MODEL 1
REMARK VINA RESULT:     -11.8      0.000      0.000
REMARK  Name = 5567
REMARK  8 active torsions:
REMARK  status: ('A' for Active; 'I' for Inactive)
REMARK    1  A    between atoms: N_1  and  C_20
REMARK    2  A    between atoms: C_2  and  C_8
REMARK    3  A    between atoms: C_2  and  O_18
REMARK    4  A    between atoms: C_11  and  C_17
REMARK    5  A    between atoms: C_20  and  C_21
REMARK    6  A    between atoms: C_21  and  C_22
REMARK    7  A    between atoms: C_22  and  C_24
REMARK    8  A    between atoms: C_24  and  C_26
REMARK                            x       y       z     vdW  Elec       q    Type
REMARK                         _______ _______ _______ _____ _____    ______ ____
ROOT
ATOM      1  N   UNL     1      35.068 -20.391 -20.337  0.00  0.00    +0.387 N 
ATOM      2  C   UNL     1      33.703 -22.536 -18.800  0.00  0.00    +0.103 C 
ATOM      3  C   UNL     1      32.961 -21.383 -19.511  0.00  0.00    +0.008 C 
ATOM      4  C   UNL     1      35.162 -22.097 -18.537  0.00  0.00    +0.008 C 
ATOM      5  C   UNL     1      33.724 -20.835 -20.723  0.00  0.00    -0.075 C 
ATOM      6  C   UNL     1      35.847 -21.497 -19.772  0.00  0.00    -0.075 C 
ATOM      7  H   UNL     1      34.967 -19.676 -19.616  0.00  0.00    -0.080 HD
ENDROOT
BRANCH   2   8
ATOM      8  C   UNL     1      33.048 -23.025 -17.508  0.00  0.00    +0.002 C 
ATOM      9  C   UNL     1      31.665 -22.941 -17.353  0.00  0.00    +0.002 C 
ATOM     10  C   UNL     1      33.835 -23.557 -16.488  0.00  0.00    -0.002 C 
ATOM     11  C   UNL     1      31.067 -23.388 -16.174  0.00  0.00    +0.071 C 
ATOM     12  C   UNL     1      33.237 -24.005 -15.309  0.00  0.00    -0.000 C 
ATOM     13  C   UNL     1      31.854 -23.920 -15.153  0.00  0.00    +0.004 C 
BRANCH  11  17
ATOM     14  F   UNL     1      29.013 -24.459 -15.577  0.00  0.00    -0.166 F 
ATOM     15  F   UNL     1      29.199 -22.350 -15.102  0.00  0.00    -0.166 F 
ATOM     16  F   UNL     1      28.947 -22.979 -17.168  0.00  0.00    -0.166 F 
ATOM     17  C   UNL     1      29.588 -23.296 -16.007  0.00  0.00    +0.419 C 
ENDBRANCH  11  17
ENDBRANCH   2   8
BRANCH   2  18
ATOM     18  O   UNL     1      33.699 -23.669 -19.683  0.00  0.00    -0.383 OA
ATOM     19  H   UNL     1      32.833 -23.740 -20.114  0.00  0.00    +0.211 HD
ENDBRANCH   2  18
BRANCH   1  20
ATOM     20  C   UNL     1      35.763 -19.805 -21.482  0.00  0.00    -0.077 C 
BRANCH  20  21
ATOM     21  C   UNL     1      34.768 -19.086 -22.395  0.00  0.00    -0.015 C 
BRANCH  21  22
ATOM     22  C   UNL     1      35.455 -18.093 -23.336  0.00  0.00    +0.067 C 
BRANCH  22  24
ATOM     23  O   UNL     1      33.955 -18.105 -25.227  0.00  0.00    -0.291 OA
ATOM     24  C   UNL     1      34.505 -17.456 -24.341  0.00  0.00    +0.173 C 
BRANCH  24  26
ATOM     25  F   UNL     1      33.429 -11.994 -23.912  0.00  0.00    -0.204 F 
ATOM     26  C   UNL     1      34.218 -15.998 -24.227  0.00  0.00    +0.035 C 
ATOM     27  C   UNL     1      33.612 -15.358 -25.285  0.00  0.00    +0.005 C 
ATOM     28  C   UNL     1      34.569 -15.344 -23.067  0.00  0.00    +0.005 C 
ATOM     29  C   UNL     1      33.343 -13.993 -25.178  0.00  0.00    +0.030 C 
ATOM     30  C   UNL     1      34.301 -13.980 -22.960  0.00  0.00    +0.030 C 
ATOM     31  C   UNL     1      33.687 -13.304 -24.015  0.00  0.00    +0.140 C 
ENDBRANCH  24  26
ENDBRANCH  22  24
ENDBRANCH  21  22
ENDBRANCH  20  21
ENDBRANCH   1  20
TORSDOF 8
ENDMDL
MODEL 2
REMARK VINA RESULT:     -11.5      3.249     10.892
REMARK  Name = 5567
REMARK  8 active torsions:
REMARK  status: ('A' for Active; 'I' for Inactive)
REMARK    1  A    between atoms: N_1  and  C_20
REMARK    2  A    between atoms: C_2  and  C_8
REMARK    3  A    between atoms: C_2  and  O_18
REMARK    4  A    between atoms: C_11  and  C_17
REMARK    5  A    between atoms: C_20  and  C_21
REMARK    6  A    between atoms: C_21  and  C_22
REMARK    7  A    between atoms: C_22  and  C_24
REMARK    8  A    between atoms: C_24  and  C_26
REMARK                            x       y       z     vdW  Elec       q    Type
REMARK                         _______ _______ _______ _____ _____    ______ ____
ROOT
ATOM      1  N   UNL     1      33.982 -16.127 -24.066  0.00  0.00    +0.387 N 
ATOM      2  C   UNL     1      33.500 -13.280 -23.367  0.00  0.00    +0.103 C 
ATOM      3  C   UNL     1      34.061 -14.325 -22.377  0.00  0.00    +0.008 C 
ATOM      4  C   UNL     1      32.738 -14.022 -24.489  0.00  0.00    +0.008 C 
ATOM      5  C   UNL     1      34.828 -15.458 -23.070  0.00  0.00    -0.075 C 
ATOM      6  C   UNL     1      33.534 -15.185 -25.096  0.00  0.00    -0.075 C 
ATOM      7  H   UNL     1      33.157 -16.486 -23.586  0.00  0.00    -0.080 HD
ENDROOT
BRANCH   2   8
ATOM      8  C   UNL     1      32.613 -12.205 -22.736  0.00  0.00    +0.002 C 
ATOM      9  C   UNL     1      32.665 -10.895 -23.210  0.00  0.00    +0.002 C 
ATOM     10  C   UNL     1      31.753 -12.538 -21.691  0.00  0.00    -0.002 C 
ATOM     11  C   UNL     1      31.855  -9.914 -22.635  0.00  0.00    +0.071 C 
ATOM     12  C   UNL     1      30.944 -11.558 -21.117  0.00  0.00    -0.000 C 
ATOM     13  C   UNL     1      30.995 -10.246 -21.589  0.00  0.00    +0.004 C 
BRANCH  11  17
ATOM     14  F   UNL     1      32.003  -8.423 -24.500  0.00  0.00    -0.166 F 
ATOM     15  F   UNL     1      30.816  -7.767 -22.807  0.00  0.00    -0.166 F 
ATOM     16  F   UNL     1      32.984  -7.822 -22.654  0.00  0.00    -0.166 F 
ATOM     17  C   UNL     1      31.911  -8.512 -23.139  0.00  0.00    +0.419 C 
ENDBRANCH  11  17
ENDBRANCH   2   8
BRANCH   2  18
ATOM     18  O   UNL     1      34.613 -12.572 -23.934  0.00  0.00    -0.383 OA
ATOM     19  H   UNL     1      34.448 -12.412 -24.877  0.00  0.00    +0.211 HD
ENDBRANCH   2  18
BRANCH   1  20
ATOM     20  C   UNL     1      34.696 -17.250 -24.673  0.00  0.00    -0.077 C 
BRANCH  20  21
ATOM     21  C   UNL     1      34.234 -18.569 -24.049  0.00  0.00    -0.015 C 
BRANCH  21  22
ATOM     22  C   UNL     1      35.355 -19.270 -23.277  0.00  0.00    +0.067 C 
BRANCH  22  24
ATOM     23  O   UNL     1      35.642 -18.026 -21.228  0.00  0.00    -0.291 OA
ATOM     24  C   UNL     1      35.271 -19.064 -21.770  0.00  0.00    +0.173 C 
BRANCH  24  26
ATOM     25  F   UNL     1      33.124 -23.147 -18.626  0.00  0.00    -0.204 F 
ATOM     26  C   UNL     1      34.698 -20.155 -20.932  0.00  0.00    +0.035 C 
ATOM     27  C   UNL     1      35.558 -21.016 -20.288  0.00  0.00    +0.005 C 
ATOM     28  C   UNL     1      33.329 -20.260 -20.830  0.00  0.00    +0.005 C 
ATOM     29  C   UNL     1      35.022 -22.036 -19.503  0.00  0.00    +0.030 C 
ATOM     30  C   UNL     1      32.792 -21.280 -20.045  0.00  0.00    +0.030 C 
ATOM     31  C   UNL     1      33.639 -22.168 -19.380  0.00  0.00    +0.140 C 
ENDBRANCH  24  26
ENDBRANCH  22  24
ENDBRANCH  21  22
ENDBRANCH  20  21
ENDBRANCH   1  20
TORSDOF 8
ENDMDL
MODEL 3
REMARK VINA RESULT:     -11.4      1.980      2.484
REMARK  Name = 5567
REMARK  8 active torsions:
REMARK  status: ('A' for Active; 'I' for Inactive)
REMARK    1  A    between atoms: N_1  and  C_20
REMARK    2  A    between atoms: C_2  and  C_8
REMARK    3  A    between atoms: C_2  and  O_18
REMARK    4  A    between atoms: C_11  and  C_17
REMARK    5  A    between atoms: C_20  and  C_21
REMARK    6  A    between atoms: C_21  and  C_22
REMARK    7  A    between atoms: C_22  and  C_24
REMARK    8  A    between atoms: C_24  and  C_26
REMARK                            x       y       z     vdW  Elec       q    Type
REMARK                         _______ _______ _______ _____ _____    ______ ____
ROOT
ATOM      1  N   UNL     1      35.072 -20.349 -20.490  0.00  0.00    +0.387 N 
ATOM      2  C   UNL     1      33.803 -22.500 -18.881  0.00  0.00    +0.103 C 
ATOM      3  C   UNL     1      33.018 -21.349 -19.549  0.00  0.00    +0.008 C 
ATOM      4  C   UNL     1      35.272 -22.055 -18.699  0.00  0.00    +0.008 C 
ATOM      5  C   UNL     1      33.710 -20.798 -20.802  0.00  0.00    -0.075 C 
ATOM      6  C   UNL     1      35.885 -21.452 -19.970  0.00  0.00    -0.075 C 
ATOM      7  H   UNL     1      35.008 -19.635 -19.765  0.00  0.00    -0.080 HD
ENDROOT
BRANCH   2   8
ATOM      8  C   UNL     1      33.223 -22.992 -17.554  0.00  0.00    +0.002 C 
ATOM      9  C   UNL     1      34.075 -23.408 -16.533  0.00  0.00    +0.002 C 
ATOM     10  C   UNL     1      31.842 -23.021 -17.368  0.00  0.00    -0.002 C 
ATOM     11  C   UNL     1      33.546 -23.855 -15.322  0.00  0.00    +0.071 C 
ATOM     12  C   UNL     1      31.312 -23.468 -16.157  0.00  0.00    -0.000 C 
ATOM     13  C   UNL     1      32.165 -23.886 -15.135  0.00  0.00    +0.004 C 
BRANCH  11  17
ATOM     14  F   UNL     1      35.349 -23.345 -13.834  0.00  0.00    -0.166 F 
ATOM     15  F   UNL     1      33.804 -24.673 -13.090  0.00  0.00    -0.166 F 
ATOM     16  F   UNL     1      35.214 -25.381 -14.586  0.00  0.00    -0.166 F 
ATOM     17  C   UNL     1      34.458 -24.303 -14.230  0.00  0.00    +0.419 C 
ENDBRANCH  11  17
ENDBRANCH   2   8
BRANCH   2  18
ATOM     18  O   UNL     1      33.754 -23.633 -19.763  0.00  0.00    -0.383 OA
ATOM     19  H   UNL     1      34.002 -23.356 -20.659  0.00  0.00    +0.211 HD
ENDBRANCH   2  18
BRANCH   1  20
ATOM     20  C   UNL     1      35.701 -19.760 -21.672  0.00  0.00    -0.077 C 
BRANCH  20  21
ATOM     21  C   UNL     1      34.697 -18.882 -22.423  0.00  0.00    -0.015 C 
BRANCH  21  22
ATOM     22  C   UNL     1      35.377 -17.968 -23.446  0.00  0.00    +0.067 C 
BRANCH  22  24
ATOM     23  O   UNL     1      33.794 -17.938 -25.268  0.00  0.00    -0.291 OA
ATOM     24  C   UNL     1      34.400 -17.306 -24.408  0.00  0.00    +0.173 C 
BRANCH  24  26
ATOM     25  F   UNL     1      33.494 -11.816 -23.933  0.00  0.00    -0.204 F 
ATOM     26  C   UNL     1      34.160 -15.840 -24.282  0.00  0.00    +0.035 C 
ATOM     27  C   UNL     1      33.596 -15.168 -25.344  0.00  0.00    +0.005 C 
ATOM     28  C   UNL     1      34.507 -15.212 -23.107  0.00  0.00    +0.005 C 
ATOM     29  C   UNL     1      33.370 -13.797 -25.225  0.00  0.00    +0.030 C 
ATOM     30  C   UNL     1      34.281 -13.840 -22.989  0.00  0.00    +0.030 C 
ATOM     31  C   UNL     1      33.712 -13.133 -24.048  0.00  0.00    +0.140 C 
ENDBRANCH  24  26
ENDBRANCH  22  24
ENDBRANCH  21  22
ENDBRANCH  20  21
ENDBRANCH   1  20
TORSDOF 8
ENDMDL
MODEL 4
REMARK VINA RESULT:     -11.1      3.115     11.213
REMARK  Name = 5567
REMARK  8 active torsions:
REMARK  status: ('A' for Active; 'I' for Inactive)
REMARK    1  A    between atoms: N_1  and  C_20
REMARK    2  A    between atoms: C_2  and  C_8
REMARK    3  A    between atoms: C_2  and  O_18
REMARK    4  A    between atoms: C_11  and  C_17
REMARK    5  A    between atoms: C_20  and  C_21
REMARK    6  A    between atoms: C_21  and  C_22
REMARK    7  A    between atoms: C_22  and  C_24
REMARK    8  A    between atoms: C_24  and  C_26
REMARK                            x       y       z     vdW  Elec       q    Type
REMARK                         _______ _______ _______ _____ _____    ______ ____
ROOT
ATOM      1  N   UNL     1      34.520 -15.796 -24.565  0.00  0.00    +0.387 N 
ATOM      2  C   UNL     1      33.288 -13.154 -23.988  0.00  0.00    +0.103 C 
ATOM      3  C   UNL     1      33.396 -13.762 -25.404  0.00  0.00    +0.008 C 
ATOM      4  C   UNL     1      34.363 -13.807 -23.088  0.00  0.00    +0.008 C 
ATOM      5  C   UNL     1      33.422 -15.295 -25.400  0.00  0.00    -0.075 C 
ATOM      6  C   UNL     1      34.380 -15.339 -23.179  0.00  0.00    -0.075 C 
ATOM      7  H   UNL     1      35.392 -15.417 -24.935  0.00  0.00    -0.080 HD
ENDROOT
BRANCH   2   8
ATOM      8  C   UNL     1      33.395 -11.629 -23.931  0.00  0.00    +0.002 C 
ATOM      9  C   UNL     1      32.553 -10.904 -23.089  0.00  0.00    +0.002 C 
ATOM     10  C   UNL     1      34.336 -10.969 -24.718  0.00  0.00    -0.002 C 
ATOM     11  C   UNL     1      32.651  -9.513 -23.036  0.00  0.00    +0.071 C 
ATOM     12  C   UNL     1      34.434  -9.578 -24.664  0.00  0.00    -0.000 C 
ATOM     13  C   UNL     1      33.591  -8.851 -23.824  0.00  0.00    +0.004 C 
BRANCH  11  17
ATOM     14  F   UNL     1      32.408  -7.846 -21.338  0.00  0.00    -0.166 F 
ATOM     15  F   UNL     1      30.819  -7.993 -22.807  0.00  0.00    -0.166 F 
ATOM     16  F   UNL     1      31.038  -9.534 -21.289  0.00  0.00    -0.166 F 
ATOM     17  C   UNL     1      31.749  -8.736 -22.138  0.00  0.00    +0.419 C 
ENDBRANCH  11  17
ENDBRANCH   2   8
BRANCH   2  18
ATOM     18  O   UNL     1      31.984 -13.465 -23.475  0.00  0.00    -0.383 OA
ATOM     19  H   UNL     1      31.889 -13.091 -22.585  0.00  0.00    +0.211 HD
ENDBRANCH   2  18
BRANCH   1  20
ATOM     20  C   UNL     1      34.583 -17.256 -24.621  0.00  0.00    -0.077 C 
BRANCH  20  21
ATOM     21  C   UNL     1      35.430 -17.793 -23.466  0.00  0.00    -0.015 C 
BRANCH  21  22
ATOM     22  C   UNL     1      34.829 -19.056 -22.843  0.00  0.00    +0.067 C 
BRANCH  22  24
ATOM     23  O   UNL     1      36.430 -18.852 -21.049  0.00  0.00    -0.291 OA
ATOM     24  C   UNL     1      35.421 -19.401 -21.484  0.00  0.00    +0.173 C 
BRANCH  24  26
ATOM     25  F   UNL     1      32.853 -23.242 -18.349  0.00  0.00    -0.204 F 
ATOM     26  C   UNL     1      34.736 -20.425 -20.646  0.00  0.00    +0.035 C 
ATOM     27  C   UNL     1      33.359 -20.458 -20.635  0.00  0.00    +0.005 C 
ATOM     28  C   UNL     1      35.504 -21.303 -19.915  0.00  0.00    +0.005 C 
ATOM     29  C   UNL     1      32.717 -21.417 -19.852  0.00  0.00    +0.030 C 
ATOM     30  C   UNL     1      34.862 -22.263 -19.132  0.00  0.00    +0.030 C 
ATOM     31  C   UNL     1      33.469 -22.321 -19.101  0.00  0.00    +0.140 C 
ENDBRANCH  24  26
ENDBRANCH  22  24
ENDBRANCH  21  22
ENDBRANCH  20  21
ENDBRANCH   1  20
TORSDOF 8
ENDMDL
MODEL 5
REMARK VINA RESULT:     -11.1      2.214      2.717
REMARK  Name = 5567
REMARK  8 active torsions:
REMARK  status: ('A' for Active; 'I' for Inactive)
REMARK    1  A    between atoms: N_1  and  C_20
REMARK    2  A    between atoms: C_2  and  C_8
REMARK    3  A    between atoms: C_2  and  O_18
REMARK    4  A    between atoms: C_11  and  C_17
REMARK    5  A    between atoms: C_20  and  C_21
REMARK    6  A    between atoms: C_21  and  C_22
REMARK    7  A    between atoms: C_22  and  C_24
REMARK    8  A    between atoms: C_24  and  C_26
REMARK                            x       y       z     vdW  Elec       q    Type
REMARK                         _______ _______ _______ _____ _____    ______ ____
ROOT
ATOM      1  N   UNL     1      34.975 -20.341 -20.507  0.00  0.00    +0.387 N 
ATOM      2  C   UNL     1      33.760 -22.508 -18.877  0.00  0.00    +0.103 C 
ATOM      3  C   UNL     1      32.951 -21.362 -19.524  0.00  0.00    +0.008 C 
ATOM      4  C   UNL     1      35.229 -22.050 -18.725  0.00  0.00    +0.008 C 
ATOM      5  C   UNL     1      33.611 -20.801 -20.790  0.00  0.00    -0.075 C 
ATOM      6  C   UNL     1      35.809 -21.438 -20.007  0.00  0.00    -0.075 C 
ATOM      7  H   UNL     1      34.921 -19.629 -19.778  0.00  0.00    -0.080 HD
ENDROOT
BRANCH   2   8
ATOM      8  C   UNL     1      33.213 -23.008 -17.539  0.00  0.00    +0.002 C 
ATOM      9  C   UNL     1      34.092 -23.387 -16.526  0.00  0.00    +0.002 C 
ATOM     10  C   UNL     1      31.836 -23.081 -17.335  0.00  0.00    -0.002 C 
ATOM     11  C   UNL     1      33.593 -23.842 -15.305  0.00  0.00    +0.071 C 
ATOM     12  C   UNL     1      31.337 -23.537 -16.114  0.00  0.00    -0.000 C 
ATOM     13  C   UNL     1      32.216 -23.917 -15.100  0.00  0.00    +0.004 C 
BRANCH  11  17
ATOM     14  F   UNL     1      35.358 -23.244 -13.805  0.00  0.00    -0.166 F 
ATOM     15  F   UNL     1      33.905 -24.686 -13.089  0.00  0.00    -0.166 F 
ATOM     16  F   UNL     1      35.359 -25.269 -14.598  0.00  0.00    -0.166 F 
ATOM     17  C   UNL     1      34.533 -24.250 -14.221  0.00  0.00    +0.419 C 
ENDBRANCH  11  17
ENDBRANCH   2   8
BRANCH   2  18
ATOM     18  O   UNL     1      33.702 -23.638 -19.760  0.00  0.00    -0.383 OA
ATOM     19  H   UNL     1      33.317 -23.367 -20.608  0.00  0.00    +0.211 HD
ENDBRANCH   2  18
BRANCH   1  20
ATOM     20  C   UNL     1      35.573 -19.743 -21.700  0.00  0.00    -0.077 C 
BRANCH  20  21
ATOM     21  C   UNL     1      34.491 -19.086 -22.561  0.00  0.00    -0.015 C 
BRANCH  21  22
ATOM     22  C   UNL     1      35.032 -17.904 -23.370  0.00  0.00    +0.067 C 
BRANCH  22  24
ATOM     23  O   UNL     1      34.939 -16.375 -21.504  0.00  0.00    -0.291 OA
ATOM     24  C   UNL     1      34.782 -16.555 -22.709  0.00  0.00    +0.173 C 
BRANCH  24  26
ATOM     25  F   UNL     1      33.173 -12.270 -25.907  0.00  0.00    -0.204 F 
ATOM     26  C   UNL     1      34.354 -15.411 -23.563  0.00  0.00    +0.035 C 
ATOM     27  C   UNL     1      34.008 -15.657 -24.874  0.00  0.00    +0.005 C 
ATOM     28  C   UNL     1      34.317 -14.151 -23.010  0.00  0.00    +0.005 C 
ATOM     29  C   UNL     1      33.606 -14.586 -25.673  0.00  0.00    +0.030 C 
ATOM     30  C   UNL     1      33.915 -13.081 -23.809  0.00  0.00    +0.030 C 
ATOM     31  C   UNL     1      33.559 -13.298 -25.140  0.00  0.00    +0.140 C 
ENDBRANCH  24  26
ENDBRANCH  22  24
ENDBRANCH  21  22
ENDBRANCH  20  21
ENDBRANCH   1  20
TORSDOF 8
ENDMDL
MODEL 6
REMARK VINA RESULT:     -10.9      3.380      5.758
REMARK  Name = 5567
REMARK  8 active torsions:
REMARK  status: ('A' for Active; 'I' for Inactive)
REMARK    1  A    between atoms: N_1  and  C_20
REMARK    2  A    between atoms: C_2  and  C_8
REMARK    3  A    between atoms: C_2  and  O_18
REMARK    4  A    between atoms: C_11  and  C_17
REMARK    5  A    between atoms: C_20  and  C_21
REMARK    6  A    between atoms: C_21  and  C_22
REMARK    7  A    between atoms: C_22  and  C_24
REMARK    8  A    between atoms: C_24  and  C_26
REMARK                            x       y       z     vdW  Elec       q    Type
REMARK                         _______ _______ _______ _____ _____    ______ ____
ROOT
ATOM      1  N   UNL     1      34.009 -16.373 -24.032  0.00  0.00    +0.387 N 
ATOM      2  C   UNL     1      35.492 -18.448 -22.508  0.00  0.00    +0.103 C 
ATOM      3  C   UNL     1      34.573 -18.757 -23.710  0.00  0.00    +0.008 C 
ATOM      4  C   UNL     1      35.079 -17.084 -21.908  0.00  0.00    +0.008 C 
ATOM      5  C   UNL     1      34.471 -17.593 -24.704  0.00  0.00    -0.075 C 
ATOM      6  C   UNL     1      34.930 -15.979 -22.962  0.00  0.00    -0.075 C 
ATOM      7  H   UNL     1      33.102 -16.572 -23.609  0.00  0.00    -0.080 HD
ENDROOT
BRANCH   2   8
ATOM      8  C   UNL     1      35.520 -19.525 -21.423  0.00  0.00    +0.002 C 
ATOM      9  C   UNL     1      34.330 -20.112 -20.994  0.00  0.00    +0.002 C 
ATOM     10  C   UNL     1      36.735 -19.920 -20.866  0.00  0.00    -0.002 C 
ATOM     11  C   UNL     1      34.355 -21.096 -20.005  0.00  0.00    +0.071 C 
ATOM     12  C   UNL     1      36.760 -20.904 -19.877  0.00  0.00    -0.000 C 
ATOM     13  C   UNL     1      35.570 -21.491 -19.447  0.00  0.00    +0.004 C 
BRANCH  11  17
ATOM     14  F   UNL     1      33.149 -22.225 -18.275  0.00  0.00    -0.166 F 
ATOM     15  F   UNL     1      32.023 -20.861 -19.531  0.00  0.00    -0.166 F 
ATOM     16  F   UNL     1      32.696 -22.767 -20.332  0.00  0.00    -0.166 F 
ATOM     17  C   UNL     1      33.082 -21.722 -19.544  0.00  0.00    +0.419 C 
ENDBRANCH  11  17
ENDBRANCH   2   8
BRANCH   2  18
ATOM     18  O   UNL     1      36.840 -18.364 -22.997  0.00  0.00    -0.383 OA
ATOM     19  H   UNL     1      37.049 -17.442 -23.213  0.00  0.00    +0.211 HD
ENDBRANCH   2  18
BRANCH   1  20
ATOM     20  C   UNL     1      33.846 -15.287 -24.997  0.00  0.00    -0.077 C 
BRANCH  20  21
ATOM     21  C   UNL     1      33.067 -14.131 -24.365  0.00  0.00    -0.015 C 
BRANCH  21  22
ATOM     22  C   UNL     1      33.978 -12.967 -23.963  0.00  0.00    +0.067 C 
BRANCH  22  24
ATOM     23  O   UNL     1      33.964 -12.052 -26.197  0.00  0.00    -0.291 OA
ATOM     24  C   UNL     1      34.007 -11.841 -24.988  0.00  0.00    +0.173 C 
BRANCH  24  26
ATOM     25  F   UNL     1      34.238  -6.570 -23.161  0.00  0.00    -0.204 F 
ATOM     26  C   UNL     1      34.069 -10.434 -24.499  0.00  0.00    +0.035 C 
ATOM     27  C   UNL     1      35.133  -9.647 -24.882  0.00  0.00    +0.005 C 
ATOM     28  C   UNL     1      33.061  -9.973 -23.684  0.00  0.00    +0.005 C 
ATOM     29  C   UNL     1      35.191  -8.330 -24.426  0.00  0.00    +0.030 C 
ATOM     30  C   UNL     1      33.118  -8.656 -23.228  0.00  0.00    +0.030 C 
ATOM     31  C   UNL     1      34.183  -7.834 -23.599  0.00  0.00    +0.140 C 
ENDBRANCH  24  26
ENDBRANCH  22  24
ENDBRANCH  21  22
ENDBRANCH  20  21
ENDBRANCH   1  20
TORSDOF 8
ENDMDL
MODEL 7
REMARK VINA RESULT:     -10.7      3.375      5.724
REMARK  Name = 5567
REMARK  8 active torsions:
REMARK  status: ('A' for Active; 'I' for Inactive)
REMARK    1  A    between atoms: N_1  and  C_20
REMARK    2  A    between atoms: C_2  and  C_8
REMARK    3  A    between atoms: C_2  and  O_18
REMARK    4  A    between atoms: C_11  and  C_17
REMARK    5  A    between atoms: C_20  and  C_21
REMARK    6  A    between atoms: C_21  and  C_22
REMARK    7  A    between atoms: C_22  and  C_24
REMARK    8  A    between atoms: C_24  and  C_26
REMARK                            x       y       z     vdW  Elec       q    Type
REMARK                         _______ _______ _______ _____ _____    ______ ____
ROOT
ATOM      1  N   UNL     1      34.010 -16.257 -23.768  0.00  0.00    +0.387 N 
ATOM      2  C   UNL     1      35.485 -18.422 -22.367  0.00  0.00    +0.103 C 
ATOM      3  C   UNL     1      34.550 -18.660 -23.573  0.00  0.00    +0.008 C 
ATOM      4  C   UNL     1      35.094 -17.086 -21.695  0.00  0.00    +0.008 C 
ATOM      5  C   UNL     1      34.451 -17.446 -24.506  0.00  0.00    -0.075 C 
ATOM      6  C   UNL     1      34.948 -15.927 -22.690  0.00  0.00    -0.075 C 
ATOM      7  H   UNL     1      33.106 -16.467 -23.346  0.00  0.00    -0.080 HD
ENDROOT
BRANCH   2   8
ATOM      8  C   UNL     1      35.512 -19.553 -21.338  0.00  0.00    +0.002 C 
ATOM      9  C   UNL     1      34.318 -20.128 -20.906  0.00  0.00    +0.002 C 
ATOM     10  C   UNL     1      36.730 -20.007 -20.836  0.00  0.00    -0.002 C 
ATOM     11  C   UNL     1      34.342 -21.161 -19.968  0.00  0.00    +0.071 C 
ATOM     12  C   UNL     1      36.754 -21.040 -19.898  0.00  0.00    -0.000 C 
ATOM     13  C   UNL     1      35.560 -21.616 -19.464  0.00  0.00    +0.004 C 
BRANCH  11  17
ATOM     14  F   UNL     1      32.629 -22.798 -20.299  0.00  0.00    -0.166 F 
ATOM     15  F   UNL     1      33.140 -22.310 -18.249  0.00  0.00    -0.166 F 
ATOM     16  F   UNL     1      32.036 -20.882 -19.461  0.00  0.00    -0.166 F 
ATOM     17  C   UNL     1      33.065 -21.776 -19.503  0.00  0.00    +0.419 C 
ENDBRANCH  11  17
ENDBRANCH   2   8
BRANCH   2  18
ATOM     18  O   UNL     1      36.829 -18.329 -22.867  0.00  0.00    -0.383 OA
ATOM     19  H   UNL     1      37.330 -19.113 -22.593  0.00  0.00    +0.211 HD
ENDBRANCH   2  18
BRANCH   1  20
ATOM     20  C   UNL     1      33.850 -15.121 -24.675  0.00  0.00    -0.077 C 
BRANCH  20  21
ATOM     21  C   UNL     1      33.856 -13.809 -23.887  0.00  0.00    -0.015 C 
BRANCH  21  22
ATOM     22  C   UNL     1      32.444 -13.359 -23.500  0.00  0.00    +0.067 C 
BRANCH  22  24
ATOM     23  O   UNL     1      32.396 -13.997 -21.172  0.00  0.00    -0.291 OA
ATOM     24  C   UNL     1      32.280 -13.105 -22.008  0.00  0.00    +0.173 C 
BRANCH  24  26
ATOM     25  F   UNL     1      31.186  -7.906 -20.290  0.00  0.00    -0.204 F 
ATOM     26  C   UNL     1      31.989 -11.717 -21.549  0.00  0.00    +0.035 C 
ATOM     27  C   UNL     1      32.002 -10.697 -22.475  0.00  0.00    +0.005 C 
ATOM     28  C   UNL     1      31.716 -11.504 -20.217  0.00  0.00    +0.005 C 
ATOM     29  C   UNL     1      31.729  -9.398 -22.046  0.00  0.00    +0.030 C 
ATOM     30  C   UNL     1      31.442 -10.206 -19.787  0.00  0.00    +0.030 C 
ATOM     31  C   UNL     1      31.448  -9.152 -20.702  0.00  0.00    +0.140 C 
ENDBRANCH  24  26
ENDBRANCH  22  24
ENDBRANCH  21  22
ENDBRANCH  20  21
ENDBRANCH   1  20
TORSDOF 8
ENDMDL
MODEL 8
REMARK VINA RESULT:     -10.7      5.251     12.892
REMARK  Name = 5567
REMARK  8 active torsions:
REMARK  status: ('A' for Active; 'I' for Inactive)
REMARK    1  A    between atoms: N_1  and  C_20
REMARK    2  A    between atoms: C_2  and  C_8
REMARK    3  A    between atoms: C_2  and  O_18
REMARK    4  A    between atoms: C_11  and  C_17
REMARK    5  A    between atoms: C_20  and  C_21
REMARK    6  A    between atoms: C_21  and  C_22
REMARK    7  A    between atoms: C_22  and  C_24
REMARK    8  A    between atoms: C_24  and  C_26
REMARK                            x       y       z     vdW  Elec       q    Type
REMARK                         _______ _______ _______ _____ _____    ______ ____
ROOT
ATOM      1  N   UNL     1      33.316 -13.055 -25.565  0.00  0.00    +0.387 N 
ATOM      2  C   UNL     1      34.292 -10.274 -25.188  0.00  0.00    +0.103 C 
ATOM      3  C   UNL     1      33.837 -11.191 -24.031  0.00  0.00    +0.008 C 
ATOM      4  C   UNL     1      33.647 -10.779 -26.499  0.00  0.00    +0.008 C 
ATOM      5  C   UNL     1      34.024 -12.682 -24.336  0.00  0.00    -0.075 C 
ATOM      6  C   UNL     1      33.813 -12.290 -26.713  0.00  0.00    -0.075 C 
ATOM      7  H   UNL     1      32.329 -12.829 -25.439  0.00  0.00    -0.080 HD
ENDROOT
BRANCH   2   8
ATOM      8  C   UNL     1      34.001  -8.786 -24.986  0.00  0.00    +0.002 C 
ATOM      9  C   UNL     1      32.685  -8.348 -24.838  0.00  0.00    +0.002 C 
ATOM     10  C   UNL     1      35.051  -7.872 -24.946  0.00  0.00    -0.002 C 
ATOM     11  C   UNL     1      32.420  -6.991 -24.652  0.00  0.00    +0.071 C 
ATOM     12  C   UNL     1      34.786  -6.514 -24.760  0.00  0.00    -0.000 C 
ATOM     13  C   UNL     1      33.470  -6.075 -24.613  0.00  0.00    +0.004 C 
BRANCH  11  17
ATOM     14  F   UNL     1      30.424  -6.933 -23.334  0.00  0.00    -0.166 F 
ATOM     15  F   UNL     1      30.888  -5.161 -24.496  0.00  0.00    -0.166 F 
ATOM     16  F   UNL     1      30.197  -6.965 -25.496  0.00  0.00    -0.166 F 
ATOM     17  C   UNL     1      31.013  -6.521 -24.496  0.00  0.00    +0.419 C 
ENDBRANCH  11  17
ENDBRANCH   2   8
BRANCH   2  18
ATOM     18  O   UNL     1      35.721 -10.373 -25.290  0.00  0.00    -0.383 OA
ATOM     19  H   UNL     1      36.018 -11.198 -24.875  0.00  0.00    +0.211 HD
ENDBRANCH   2  18
BRANCH   1  20
ATOM     20  C   UNL     1      33.440 -14.491 -25.813  0.00  0.00    -0.077 C 
BRANCH  20  21
ATOM     21  C   UNL     1      33.819 -15.219 -24.522  0.00  0.00    -0.015 C 
BRANCH  21  22
ATOM     22  C   UNL     1      34.851 -16.325 -24.761  0.00  0.00    +0.067 C 
BRANCH  22  24
ATOM     23  O   UNL     1      33.492 -18.271 -25.199  0.00  0.00    -0.291 OA
ATOM     24  C   UNL     1      34.317 -17.722 -24.474  0.00  0.00    +0.173 C 
BRANCH  24  26
ATOM     25  F   UNL     1      36.251 -20.454 -20.005  0.00  0.00    -0.204 F 
ATOM     26  C   UNL     1      34.834 -18.452 -23.282  0.00  0.00    +0.035 C 
ATOM     27  C   UNL     1      36.108 -18.177 -22.839  0.00  0.00    +0.005 C 
ATOM     28  C   UNL     1      34.017 -19.373 -22.666  0.00  0.00    +0.005 C 
ATOM     29  C   UNL     1      36.592 -18.859 -21.722  0.00  0.00    +0.030 C 
ATOM     30  C   UNL     1      34.500 -20.056 -21.550  0.00  0.00    +0.030 C 
ATOM     31  C   UNL     1      35.787 -19.799 -21.077  0.00  0.00    +0.140 C 
ENDBRANCH  24  26
ENDBRANCH  22  24
ENDBRANCH  21  22
ENDBRANCH  20  21
ENDBRANCH   1  20
TORSDOF 8
ENDMDL
MODEL 9
REMARK VINA RESULT:     -10.6      3.619      9.740
REMARK  Name = 5567
REMARK  8 active torsions:
REMARK  status: ('A' for Active; 'I' for Inactive)
REMARK    1  A    between atoms: N_1  and  C_20
REMARK    2  A    between atoms: C_2  and  C_8
REMARK    3  A    between atoms: C_2  and  O_18
REMARK    4  A    between atoms: C_11  and  C_17
REMARK    5  A    between atoms: C_20  and  C_21
REMARK    6  A    between atoms: C_21  and  C_22
REMARK    7  A    between atoms: C_22  and  C_24
REMARK    8  A    between atoms: C_24  and  C_26
REMARK                            x       y       z     vdW  Elec       q    Type
REMARK                         _______ _______ _______ _____ _____    ______ ____
ROOT
ATOM      1  N   UNL     1      34.051 -23.474 -15.926  0.00  0.00    +0.387 N 
ATOM      2  C   UNL     1      34.032 -22.577 -18.758  0.00  0.00    +0.103 C 
ATOM      3  C   UNL     1      35.238 -22.403 -17.809  0.00  0.00    +0.008 C 
ATOM      4  C   UNL     1      32.752 -22.730 -17.905  0.00  0.00    +0.008 C 
ATOM      5  C   UNL     1      35.294 -23.467 -16.706  0.00  0.00    -0.075 C 
ATOM      6  C   UNL     1      32.894 -23.762 -16.778  0.00  0.00    -0.075 C 
ATOM      7  H   UNL     1      33.926 -22.543 -15.528  0.00  0.00    -0.080 HD
ENDROOT
BRANCH   2   8
ATOM      8  C   UNL     1      33.858 -21.463 -19.791  0.00  0.00    +0.002 C 
ATOM      9  C   UNL     1      34.972 -20.769 -20.260  0.00  0.00    +0.002 C 
ATOM     10  C   UNL     1      32.586 -21.146 -20.264  0.00  0.00    -0.002 C 
ATOM     11  C   UNL     1      34.814 -19.753 -21.204  0.00  0.00    +0.071 C 
ATOM     12  C   UNL     1      32.427 -20.130 -21.208  0.00  0.00    -0.000 C 
ATOM     13  C   UNL     1      33.541 -19.434 -21.677  0.00  0.00    +0.004 C 
BRANCH  11  17
ATOM     14  F   UNL     1      37.190 -19.476 -21.211  0.00  0.00    -0.166 F 
ATOM     15  F   UNL     1      36.144 -19.050 -23.063  0.00  0.00    -0.166 F 
ATOM     16  F   UNL     1      35.970 -17.683 -21.380  0.00  0.00    -0.166 F 
ATOM     17  C   UNL     1      36.005 -19.008 -21.705  0.00  0.00    +0.419 C 
ENDBRANCH  11  17
ENDBRANCH   2   8
BRANCH   2  18
ATOM     18  O   UNL     1      34.243 -23.775 -19.521  0.00  0.00    -0.383 OA
ATOM     19  H   UNL     1      34.497 -23.541 -20.427  0.00  0.00    +0.211 HD
ENDBRANCH   2  18
BRANCH   1  20
ATOM     20  C   UNL     1      34.138 -24.441 -14.832  0.00  0.00    -0.077 C 
BRANCH  20  21
ATOM     21  C   UNL     1      33.072 -24.142 -13.776  0.00  0.00    -0.015 C 
BRANCH  21  22
ATOM     22  C   UNL     1      31.934 -25.167 -13.793  0.00  0.00    +0.067 C 
BRANCH  22  24
ATOM     23  O   UNL     1      30.113 -24.319 -12.454  0.00  0.00    -0.291 OA
ATOM     24  C   UNL     1      30.560 -24.548 -13.575  0.00  0.00    +0.173 C 
BRANCH  24  26
ATOM     25  F   UNL     1      27.490 -23.208 -18.042  0.00  0.00    -0.204 F 
ATOM     26  C   UNL     1      29.741 -24.190 -14.768  0.00  0.00    +0.035 C 
ATOM     27  C   UNL     1      29.082 -25.194 -15.443  0.00  0.00    +0.005 C 
ATOM     28  C   UNL     1      29.673 -22.870 -15.151  0.00  0.00    +0.005 C 
ATOM     29  C   UNL     1      28.315 -24.859 -16.559  0.00  0.00    +0.030 C 
ATOM     30  C   UNL     1      28.906 -22.535 -16.267  0.00  0.00    +0.030 C 
ATOM     31  C   UNL     1      28.226 -23.529 -16.971  0.00  0.00    +0.140 C 
ENDBRANCH  24  26
ENDBRANCH  22  24
ENDBRANCH  21  22
ENDBRANCH  20  21
ENDBRANCH   1  20
TORSDOF 8
ENDMDL
