MODEL 1
REMARK VINA RESULT:     -13.2      0.000      0.000
REMARK  Name = 21081761
REMARK  5 active torsions:
REMARK  status: ('A' for Active; 'I' for Inactive)
REMARK    1  A    between atoms: N_2  and  C_6
REMARK    2  A    between atoms: C_3  and  C_25
REMARK    3  A    between atoms: C_7  and  O_12
REMARK    4  A    between atoms: O_12  and  C_16
REMARK    5  A    between atoms: N_24  and  C_31
REMARK                            x       y       z     vdW  Elec       q    Type
REMARK                         _______ _______ _______ _____ _____    ______ ____
ROOT
ATOM      1  O   UNL     1      33.105 -15.427 -25.751  0.00  0.00    -0.270 OA
ATOM      2  N   UNL     1      34.514 -14.828 -23.955  0.00  0.00    -0.280 N 
ATOM      3  C   UNL     1      33.716 -14.604 -25.079  0.00  0.00    +0.254 C 
ATOM      4  H   UNL     1      34.925 -14.031 -23.550  0.00  0.00    +0.155 HD
ENDROOT
BRANCH   2   6
ATOM      5  F   UNL     1      35.397 -19.521 -24.230  0.00  0.00    -0.201 F 
ATOM      6  C   UNL     1      34.800 -16.046 -23.336  0.00  0.00    +0.053 C 
ATOM      7  C   UNL     1      35.369 -18.480 -22.098  0.00  0.00    +0.173 C 
ATOM      8  C   UNL     1      34.959 -17.199 -24.104  0.00  0.00    +0.047 C 
ATOM      9  C   UNL     1      34.926 -16.110 -21.948  0.00  0.00    +0.018 C 
ATOM     10  C   UNL     1      35.243 -18.417 -23.485  0.00  0.00    +0.176 C 
ATOM     11  C   UNL     1      35.210 -17.327 -21.329  0.00  0.00    +0.041 C 
BRANCH   7  12
ATOM     12  O   UNL     1      35.650 -19.686 -21.483  0.00  0.00    -0.451 OA
BRANCH  12  16
ATOM     13  N   UNL     1      34.148 -22.644 -18.217  0.00  0.00    -0.297 N 
ATOM     14  N   UNL     1      32.432 -21.656 -19.588  0.00  0.00    -0.229 NA
ATOM     15  C   UNL     1      34.836 -21.220 -19.793  0.00  0.00    +0.067 C 
ATOM     16  C   UNL     1      34.620 -20.331 -20.859  0.00  0.00    +0.150 C 
ATOM     17  C   UNL     1      33.718 -21.825 -19.228  0.00  0.00    +0.135 C 
ATOM     18  C   UNL     1      35.968 -21.705 -19.086  0.00  0.00    +0.022 C 
ATOM     19  C   UNL     1      35.514 -22.578 -18.122  0.00  0.00    +0.063 C 
ATOM     20  C   UNL     1      33.305 -20.118 -21.273  0.00  0.00    +0.058 C 
ATOM     21  C   UNL     1      32.282 -20.791 -20.618  0.00  0.00    +0.103 C 
ATOM     22  H   UNL     1      33.566 -23.195 -17.645  0.00  0.00    +0.154 HD
ENDBRANCH  12  16
ENDBRANCH   7  12
ENDBRANCH   2   6
BRANCH   3  25
ATOM     23  O   UNL     1      33.274 -12.430 -23.256  0.00  0.00    -0.269 OA
ATOM     24  N   UNL     1      33.457 -10.763 -24.924  0.00  0.00    -0.233 N 
ATOM     25  C   UNL     1      33.645 -13.185 -25.442  0.00  0.00    +0.108 C 
ATOM     26  C   UNL     1      33.457 -12.094 -24.427  0.00  0.00    +0.261 C 
ATOM     27  C   UNL     1      33.553 -10.537 -26.298  0.00  0.00    +0.072 C 
ATOM     28  C   UNL     1      33.739 -12.888 -26.744  0.00  0.00    +0.010 C 
ATOM     29  C   UNL     1      33.682 -11.526 -27.187  0.00  0.00    +0.017 C 
BRANCH  24  31
ATOM     30  F   UNL     1      32.983  -6.478 -21.383  0.00  0.00    -0.204 F 
ATOM     31  C   UNL     1      33.334  -9.649 -24.004  0.00  0.00    +0.059 C 
ATOM     32  C   UNL     1      32.244  -9.579 -23.136  0.00  0.00    +0.018 C 
ATOM     33  C   UNL     1      34.306  -8.648 -23.986  0.00  0.00    +0.018 C 
ATOM     34  C   UNL     1      32.126  -8.508 -22.250  0.00  0.00    +0.031 C 
ATOM     35  C   UNL     1      34.188  -7.577 -23.100  0.00  0.00    +0.031 C 
ATOM     36  C   UNL     1      33.098  -7.507 -22.232  0.00  0.00    +0.140 C 
ENDBRANCH  24  31
ENDBRANCH   3  25
TORSDOF 5
ENDMDL
MODEL 2
REMARK VINA RESULT:     -12.3      2.828      4.932
REMARK  Name = 21081761
REMARK  5 active torsions:
REMARK  status: ('A' for Active; 'I' for Inactive)
REMARK    1  A    between atoms: N_2  and  C_6
REMARK    2  A    between atoms: C_3  and  C_25
REMARK    3  A    between atoms: C_7  and  O_12
REMARK    4  A    between atoms: O_12  and  C_16
REMARK    5  A    between atoms: N_24  and  C_31
REMARK                            x       y       z     vdW  Elec       q    Type
REMARK                         _______ _______ _______ _____ _____    ______ ____
ROOT
ATOM      1  O   UNL     1      36.072 -17.902 -21.013  0.00  0.00    -0.270 OA
ATOM      2  N   UNL     1      34.218 -19.211 -21.656  0.00  0.00    -0.280 N 
ATOM      3  C   UNL     1      35.102 -18.132 -21.724  0.00  0.00    +0.254 C 
ATOM      4  H   UNL     1      33.493 -19.219 -22.322  0.00  0.00    +0.155 HD
ENDROOT
BRANCH   2   6
ATOM      5  F   UNL     1      36.641 -22.257 -18.877  0.00  0.00    -0.201 F 
ATOM      6  C   UNL     1      34.237 -20.279 -20.759  0.00  0.00    +0.053 C 
ATOM      7  C   UNL     1      34.276 -22.417 -18.967  0.00  0.00    +0.173 C 
ATOM      8  C   UNL     1      35.452 -20.746 -20.255  0.00  0.00    +0.047 C 
ATOM      9  C   UNL     1      33.042 -20.882 -20.366  0.00  0.00    +0.018 C 
ATOM     10  C   UNL     1      35.471 -21.815 -19.359  0.00  0.00    +0.176 C 
ATOM     11  C   UNL     1      33.061 -21.951 -19.471  0.00  0.00    +0.041 C 
BRANCH   7  12
ATOM     12  O   UNL     1      34.294 -23.477 -18.080  0.00  0.00    -0.451 OA
BRANCH  12  16
ATOM     13  N   UNL     1      33.657 -23.688 -13.473  0.00  0.00    -0.297 N 
ATOM     14  N   UNL     1      31.675 -23.263 -14.775  0.00  0.00    -0.229 NA
ATOM     15  C   UNL     1      33.929 -23.581 -15.687  0.00  0.00    +0.067 C 
ATOM     16  C   UNL     1      33.460 -23.411 -17.000  0.00  0.00    +0.150 C 
ATOM     17  C   UNL     1      32.996 -23.494 -14.658  0.00  0.00    +0.135 C 
ATOM     18  C   UNL     1      35.188 -23.836 -15.081  0.00  0.00    +0.022 C 
ATOM     19  C   UNL     1      34.990 -23.897 -13.719  0.00  0.00    +0.063 C 
ATOM     20  C   UNL     1      32.099 -23.168 -17.178  0.00  0.00    +0.058 C 
ATOM     21  C   UNL     1      31.279 -23.108 -16.060  0.00  0.00    +0.103 C 
ATOM     22  H   UNL     1      33.239 -23.678 -12.581  0.00  0.00    +0.154 HD
ENDBRANCH  12  16
ENDBRANCH   7  12
ENDBRANCH   2   6
BRANCH   3  25
ATOM     23  O   UNL     1      34.090 -15.467 -21.382  0.00  0.00    -0.269 OA
ATOM     24  N   UNL     1      34.045 -14.998 -23.699  0.00  0.00    -0.233 N 
ATOM     25  C   UNL     1      34.766 -17.199 -22.806  0.00  0.00    +0.108 C 
ATOM     26  C   UNL     1      34.283 -15.800 -22.552  0.00  0.00    +0.261 C 
ATOM     27  C   UNL     1      34.191 -15.549 -24.973  0.00  0.00    +0.072 C 
ATOM     28  C   UNL     1      34.891 -17.655 -24.058  0.00  0.00    +0.010 C 
ATOM     29  C   UNL     1      34.586 -16.810 -25.174  0.00  0.00    +0.017 C 
BRANCH  24  31
ATOM     30  F   UNL     1      32.438  -9.690 -23.091  0.00  0.00    -0.204 F 
ATOM     31  C   UNL     1      33.627 -13.618 -23.541  0.00  0.00    +0.059 C 
ATOM     32  C   UNL     1      34.173 -12.626 -24.356  0.00  0.00    +0.018 C 
ATOM     33  C   UNL     1      32.679 -13.283 -22.574  0.00  0.00    +0.018 C 
ATOM     34  C   UNL     1      33.771 -11.299 -24.204  0.00  0.00    +0.031 C 
ATOM     35  C   UNL     1      32.277 -11.956 -22.422  0.00  0.00    +0.031 C 
ATOM     36  C   UNL     1      32.823 -10.964 -23.237  0.00  0.00    +0.140 C 
ENDBRANCH  24  31
ENDBRANCH   3  25
TORSDOF 5
ENDMDL
MODEL 3
REMARK VINA RESULT:     -12.2      2.487      3.985
REMARK  Name = 21081761
REMARK  5 active torsions:
REMARK  status: ('A' for Active; 'I' for Inactive)
REMARK    1  A    between atoms: N_2  and  C_6
REMARK    2  A    between atoms: C_3  and  C_25
REMARK    3  A    between atoms: C_7  and  O_12
REMARK    4  A    between atoms: O_12  and  C_16
REMARK    5  A    between atoms: N_24  and  C_31
REMARK                            x       y       z     vdW  Elec       q    Type
REMARK                         _______ _______ _______ _____ _____    ______ ____
ROOT
ATOM      1  O   UNL     1      31.225 -13.211 -20.903  0.00  0.00    -0.270 OA
ATOM      2  N   UNL     1      33.270 -12.749 -21.984  0.00  0.00    -0.280 N 
ATOM      3  C   UNL     1      32.082 -12.441 -21.317  0.00  0.00    +0.254 C 
ATOM      4  H   UNL     1      33.834 -11.983 -22.240  0.00  0.00    +0.155 HD
ENDROOT
BRANCH   2   6
ATOM      5  F   UNL     1      34.226 -16.059 -25.301  0.00  0.00    -0.201 F 
ATOM      6  C   UNL     1      33.755 -14.010 -22.333  0.00  0.00    +0.053 C 
ATOM      7  C   UNL     1      34.723 -16.532 -23.029  0.00  0.00    +0.173 C 
ATOM      8  C   UNL     1      33.749 -14.415 -23.668  0.00  0.00    +0.047 C 
ATOM      9  C   UNL     1      34.245 -14.865 -21.347  0.00  0.00    +0.018 C 
ATOM     10  C   UNL     1      34.233 -15.676 -24.017  0.00  0.00    +0.176 C 
ATOM     11  C   UNL     1      34.728 -16.127 -21.694  0.00  0.00    +0.041 C 
BRANCH   7  12
ATOM     12  O   UNL     1      35.201 -17.782 -23.374  0.00  0.00    -0.451 OA
BRANCH  12  16
ATOM     13  N   UNL     1      34.140 -20.951 -20.133  0.00  0.00    -0.297 N 
ATOM     14  N   UNL     1      36.462 -20.321 -20.244  0.00  0.00    -0.229 NA
ATOM     15  C   UNL     1      34.682 -19.433 -21.678  0.00  0.00    +0.067 C 
ATOM     16  C   UNL     1      35.593 -18.609 -22.359  0.00  0.00    +0.150 C 
ATOM     17  C   UNL     1      35.184 -20.237 -20.660  0.00  0.00    +0.135 C 
ATOM     18  C   UNL     1      33.285 -19.684 -21.750  0.00  0.00    +0.022 C 
ATOM     19  C   UNL     1      32.981 -20.623 -20.788  0.00  0.00    +0.063 C 
ATOM     20  C   UNL     1      36.930 -18.656 -21.969  0.00  0.00    +0.058 C 
ATOM     21  C   UNL     1      37.294 -19.507 -20.934  0.00  0.00    +0.103 C 
ATOM     22  H   UNL     1      34.210 -21.602 -19.396  0.00  0.00    +0.154 HD
ENDBRANCH  12  16
ENDBRANCH   7  12
ENDBRANCH   2   6
BRANCH   3  25
ATOM     23  O   UNL     1      32.467 -10.423 -23.323  0.00  0.00    -0.269 OA
ATOM     24  N   UNL     1      31.829  -8.642 -21.904  0.00  0.00    -0.233 N 
ATOM     25  C   UNL     1      31.906 -10.998 -21.123  0.00  0.00    +0.108 C 
ATOM     26  C   UNL     1      32.080 -10.000 -22.233  0.00  0.00    +0.261 C 
ATOM     27  C   UNL     1      31.515  -8.293 -20.590  0.00  0.00    +0.072 C 
ATOM     28  C   UNL     1      31.594 -10.587 -19.888  0.00  0.00    +0.010 C 
ATOM     29  C   UNL     1      31.402  -9.194 -19.610  0.00  0.00    +0.017 C 
BRANCH  24  31
ATOM     30  F   UNL     1      32.191  -4.719 -25.855  0.00  0.00    -0.204 F 
ATOM     31  C   UNL     1      31.923  -7.622 -22.931  0.00  0.00    +0.059 C 
ATOM     32  C   UNL     1      30.964  -7.560 -23.942  0.00  0.00    +0.018 C 
ATOM     33  C   UNL     1      32.973  -6.703 -22.908  0.00  0.00    +0.018 C 
ATOM     34  C   UNL     1      31.054  -6.579 -24.930  0.00  0.00    +0.031 C 
ATOM     35  C   UNL     1      33.063  -5.722 -23.895  0.00  0.00    +0.031 C 
ATOM     36  C   UNL     1      32.104  -5.660 -24.906  0.00  0.00    +0.140 C 
ENDBRANCH  24  31
ENDBRANCH   3  25
TORSDOF 5
ENDMDL
MODEL 4
REMARK VINA RESULT:     -12.2      4.199     11.860
REMARK  Name = 21081761
REMARK  5 active torsions:
REMARK  status: ('A' for Active; 'I' for Inactive)
REMARK    1  A    between atoms: N_2  and  C_6
REMARK    2  A    between atoms: C_3  and  C_25
REMARK    3  A    between atoms: C_7  and  O_12
REMARK    4  A    between atoms: O_12  and  C_16
REMARK    5  A    between atoms: N_24  and  C_31
REMARK                            x       y       z     vdW  Elec       q    Type
REMARK                         _______ _______ _______ _____ _____    ______ ____
ROOT
ATOM      1  O   UNL     1      32.329 -22.119 -20.028  0.00  0.00    -0.270 OA
ATOM      2  N   UNL     1      34.393 -21.166 -19.397  0.00  0.00    -0.280 N 
ATOM      3  C   UNL     1      33.258 -21.966 -19.245  0.00  0.00    +0.254 C 
ATOM      4  H   UNL     1      35.032 -21.175 -18.648  0.00  0.00    +0.155 HD
ENDROOT
BRANCH   2   6
ATOM      5  F   UNL     1      37.630 -18.624 -21.832  0.00  0.00    -0.201 F 
ATOM      6  C   UNL     1      34.730 -20.355 -20.481  0.00  0.00    +0.053 C 
ATOM      7  C   UNL     1      35.405 -18.732 -22.647  0.00  0.00    +0.173 C 
ATOM      8  C   UNL     1      36.036 -19.884 -20.620  0.00  0.00    +0.047 C 
ATOM      9  C   UNL     1      33.762 -20.015 -21.425  0.00  0.00    +0.018 C 
ATOM     10  C   UNL     1      36.374 -19.072 -21.703  0.00  0.00    +0.176 C 
ATOM     11  C   UNL     1      34.099 -19.203 -22.508  0.00  0.00    +0.041 C 
BRANCH   7  12
ATOM     12  O   UNL     1      35.738 -17.927 -23.720  0.00  0.00    -0.451 OA
BRANCH  12  16
ATOM     13  N   UNL     1      33.579 -14.110 -22.156  0.00  0.00    -0.297 N 
ATOM     14  N   UNL     1      33.305 -14.566 -24.505  0.00  0.00    -0.229 NA
ATOM     15  C   UNL     1      34.602 -15.934 -22.937  0.00  0.00    +0.067 C 
ATOM     16  C   UNL     1      34.952 -16.834 -23.957  0.00  0.00    +0.150 C 
ATOM     17  C   UNL     1      33.797 -14.854 -23.285  0.00  0.00    +0.135 C 
ATOM     18  C   UNL     1      34.867 -15.819 -21.546  0.00  0.00    +0.022 C 
ATOM     19  C   UNL     1      34.225 -14.687 -21.093  0.00  0.00    +0.063 C 
ATOM     20  C   UNL     1      34.469 -16.583 -25.240  0.00  0.00    +0.058 C 
ATOM     21  C   UNL     1      33.672 -15.465 -25.447  0.00  0.00    +0.103 C 
ATOM     22  H   UNL     1      33.041 -13.286 -22.113  0.00  0.00    +0.154 HD
ENDBRANCH  12  16
ENDBRANCH   7  12
ENDBRANCH   2   6
BRANCH   3  25
ATOM     23  O   UNL     1      35.575 -22.843 -17.793  0.00  0.00    -0.269 OA
ATOM     24  N   UNL     1      34.328 -23.717 -15.984  0.00  0.00    -0.233 N 
ATOM     25  C   UNL     1      33.245 -22.682 -17.964  0.00  0.00    +0.108 C 
ATOM     26  C   UNL     1      34.500 -23.071 -17.237  0.00  0.00    +0.261 C 
ATOM     27  C   UNL     1      33.044 -24.022 -15.532  0.00  0.00    +0.072 C 
ATOM     28  C   UNL     1      32.046 -23.002 -17.462  0.00  0.00    +0.010 C 
ATOM     29  C   UNL     1      31.941 -23.700 -16.215  0.00  0.00    +0.017 C 
BRANCH  24  31
ATOM     30  F   UNL     1      38.794 -25.107 -12.942  0.00  0.00    -0.204 F 
ATOM     31  C   UNL     1      35.489 -24.078 -15.193  0.00  0.00    +0.059 C 
ATOM     32  C   UNL     1      36.081 -25.331 -15.355  0.00  0.00    +0.018 C 
ATOM     33  C   UNL     1      36.014 -23.173 -14.271  0.00  0.00    +0.018 C 
ATOM     34  C   UNL     1      37.197 -25.678 -14.595  0.00  0.00    +0.031 C 
ATOM     35  C   UNL     1      37.131 -23.520 -13.510  0.00  0.00    +0.031 C 
ATOM     36  C   UNL     1      37.722 -24.772 -13.673  0.00  0.00    +0.140 C 
ENDBRANCH  24  31
ENDBRANCH   3  25
TORSDOF 5
ENDMDL
MODEL 5
REMARK VINA RESULT:     -12.1      2.674     10.830
REMARK  Name = 21081761
REMARK  5 active torsions:
REMARK  status: ('A' for Active; 'I' for Inactive)
REMARK    1  A    between atoms: N_2  and  C_6
REMARK    2  A    between atoms: C_3  and  C_25
REMARK    3  A    between atoms: C_7  and  O_12
REMARK    4  A    between atoms: O_12  and  C_16
REMARK    5  A    between atoms: N_24  and  C_31
REMARK                            x       y       z     vdW  Elec       q    Type
REMARK                         _______ _______ _______ _____ _____    ______ ____
ROOT
ATOM      1  O   UNL     1      34.972 -15.085 -22.378  0.00  0.00    -0.270 OA
ATOM      2  N   UNL     1      34.043 -15.164 -24.546  0.00  0.00    -0.280 N 
ATOM      3  C   UNL     1      34.572 -15.690 -23.365  0.00  0.00    +0.254 C 
ATOM      4  H   UNL     1      33.776 -15.819 -25.231  0.00  0.00    +0.155 HD
ENDROOT
BRANCH   2   6
ATOM      5  F   UNL     1      33.252 -11.758 -27.809  0.00  0.00    -0.201 F 
ATOM      6  C   UNL     1      33.848 -13.822 -24.873  0.00  0.00    +0.053 C 
ATOM      7  C   UNL     1      33.459 -11.138 -25.528  0.00  0.00    +0.173 C 
ATOM      8  C   UNL     1      33.643 -13.450 -26.202  0.00  0.00    +0.047 C 
ATOM      9  C   UNL     1      33.856 -12.851 -23.872  0.00  0.00    +0.018 C 
ATOM     10  C   UNL     1      33.449 -12.108 -26.530  0.00  0.00    +0.176 C 
ATOM     11  C   UNL     1      33.663 -11.509 -24.199  0.00  0.00    +0.041 C 
BRANCH   7  12
ATOM     12  O   UNL     1      33.267  -9.808 -25.852  0.00  0.00    -0.451 OA
BRANCH  12  16
ATOM     13  N   UNL     1      32.385  -7.048 -22.208  0.00  0.00    -0.297 N 
ATOM     14  N   UNL     1      34.622  -6.915 -23.091  0.00  0.00    -0.229 NA
ATOM     15  C   UNL     1      32.840  -8.360 -23.957  0.00  0.00    +0.067 C 
ATOM     16  C   UNL     1      33.690  -8.872 -24.951  0.00  0.00    +0.150 C 
ATOM     17  C   UNL     1      33.370  -7.410 -23.090  0.00  0.00    +0.135 C 
ATOM     18  C   UNL     1      31.489  -8.563 -23.569  0.00  0.00    +0.022 C 
ATOM     19  C   UNL     1      31.237  -7.743 -22.491  0.00  0.00    +0.063 C 
ATOM     20  C   UNL     1      34.999  -8.394 -24.998  0.00  0.00    +0.058 C 
ATOM     21  C   UNL     1      35.395  -7.442 -24.068  0.00  0.00    +0.103 C 
ATOM     22  H   UNL     1      32.484  -6.390 -21.483  0.00  0.00    +0.154 HD
ENDBRANCH  12  16
ENDBRANCH   7  12
ENDBRANCH   2   6
BRANCH   3  25
ATOM     23  O   UNL     1      35.006 -17.372 -21.079  0.00  0.00    -0.269 OA
ATOM     24  N   UNL     1      34.791 -19.386 -22.299  0.00  0.00    -0.233 N 
ATOM     25  C   UNL     1      34.624 -17.156 -23.379  0.00  0.00    +0.108 C 
ATOM     26  C   UNL     1      34.810 -17.976 -22.134  0.00  0.00    +0.261 C 
ATOM     27  C   UNL     1      34.682 -19.933 -23.578  0.00  0.00    +0.072 C 
ATOM     28  C   UNL     1      34.517 -17.754 -24.572  0.00  0.00    +0.010 C 
ATOM     29  C   UNL     1      34.556 -19.183 -24.677  0.00  0.00    +0.017 C 
BRANCH  24  31
ATOM     30  F   UNL     1      35.249 -22.709 -17.841  0.00  0.00    -0.204 F 
ATOM     31  C   UNL     1      34.910 -20.250 -21.140  0.00  0.00    +0.059 C 
ATOM     32  C   UNL     1      33.767 -20.800 -20.560  0.00  0.00    +0.018 C 
ATOM     33  C   UNL     1      36.168 -20.530 -20.606  0.00  0.00    +0.018 C 
ATOM     34  C   UNL     1      33.882 -21.632 -19.446  0.00  0.00    +0.031 C 
ATOM     35  C   UNL     1      36.283 -21.362 -19.492  0.00  0.00    +0.031 C 
ATOM     36  C   UNL     1      35.140 -21.912 -18.912  0.00  0.00    +0.140 C 
ENDBRANCH  24  31
ENDBRANCH   3  25
TORSDOF 5
ENDMDL
MODEL 6
REMARK VINA RESULT:     -12.0      3.464      6.759
REMARK  Name = 21081761
REMARK  5 active torsions:
REMARK  status: ('A' for Active; 'I' for Inactive)
REMARK    1  A    between atoms: N_2  and  C_6
REMARK    2  A    between atoms: C_3  and  C_25
REMARK    3  A    between atoms: C_7  and  O_12
REMARK    4  A    between atoms: O_12  and  C_16
REMARK    5  A    between atoms: N_24  and  C_31
REMARK                            x       y       z     vdW  Elec       q    Type
REMARK                         _______ _______ _______ _____ _____    ______ ____
ROOT
ATOM      1  O   UNL     1      36.393 -19.561 -20.612  0.00  0.00    -0.270 OA
ATOM      2  N   UNL     1      34.327 -20.692 -20.746  0.00  0.00    -0.280 N 
ATOM      3  C   UNL     1      35.319 -19.796 -21.151  0.00  0.00    +0.254 C 
ATOM      4  H   UNL     1      33.526 -20.739 -21.317  0.00  0.00    +0.155 HD
ENDROOT
BRANCH   2   6
ATOM      5  F   UNL     1      31.983 -23.386 -17.565  0.00  0.00    -0.201 F 
ATOM      6  C   UNL     1      34.332 -21.529 -19.630  0.00  0.00    +0.053 C 
ATOM      7  C   UNL     1      34.343 -23.201 -17.397  0.00  0.00    +0.173 C 
ATOM      8  C   UNL     1      33.134 -22.051 -19.143  0.00  0.00    +0.047 C 
ATOM      9  C   UNL     1      35.536 -21.844 -19.000  0.00  0.00    +0.018 C 
ATOM     10  C   UNL     1      33.138 -22.887 -18.026  0.00  0.00    +0.176 C 
ATOM     11  C   UNL     1      35.542 -22.679 -17.883  0.00  0.00    +0.041 C 
BRANCH   7  12
ATOM     12  O   UNL     1      34.348 -24.028 -16.289  0.00  0.00    -0.451 OA
BRANCH  12  16
ATOM     13  N   UNL     1      37.866 -26.229 -14.178  0.00  0.00    -0.297 N 
ATOM     14  N   UNL     1      37.739 -23.857 -13.778  0.00  0.00    -0.229 NA
ATOM     15  C   UNL     1      36.190 -25.144 -15.177  0.00  0.00    +0.067 C 
ATOM     16  C   UNL     1      35.448 -23.990 -15.479  0.00  0.00    +0.150 C 
ATOM     17  C   UNL     1      37.292 -24.995 -14.341  0.00  0.00    +0.135 C 
ATOM     18  C   UNL     1      36.113 -26.521 -15.518  0.00  0.00    +0.022 C 
ATOM     19  C   UNL     1      37.157 -27.164 -14.889  0.00  0.00    +0.063 C 
ATOM     20  C   UNL     1      35.868 -22.783 -14.922  0.00  0.00    +0.058 C 
ATOM     21  C   UNL     1      36.988 -22.779 -14.102  0.00  0.00    +0.103 C 
ATOM     22  H   UNL     1      38.666 -26.417 -13.635  0.00  0.00    +0.154 HD
ENDBRANCH  12  16
ENDBRANCH   7  12
ENDBRANCH   2   6
BRANCH   3  25
ATOM     23  O   UNL     1      34.711 -16.997 -21.350  0.00  0.00    -0.269 OA
ATOM     24  N   UNL     1      34.413 -17.048 -23.695  0.00  0.00    -0.233 N 
ATOM     25  C   UNL     1      34.962 -19.084 -22.383  0.00  0.00    +0.108 C 
ATOM     26  C   UNL     1      34.700 -17.605 -22.420  0.00  0.00    +0.261 C 
ATOM     27  C   UNL     1      34.314 -17.882 -24.809  0.00  0.00    +0.072 C 
ATOM     28  C   UNL     1      34.857 -19.817 -23.497  0.00  0.00    +0.010 C 
ATOM     29  C   UNL     1      34.514 -19.202 -24.745  0.00  0.00    +0.017 C 
BRANCH  24  31
ATOM     30  F   UNL     1      33.595 -11.553 -24.202  0.00  0.00    -0.204 F 
ATOM     31  C   UNL     1      34.201 -15.619 -23.827  0.00  0.00    +0.059 C 
ATOM     32  C   UNL     1      33.736 -15.092 -25.032  0.00  0.00    +0.018 C 
ATOM     33  C   UNL     1      34.460 -14.773 -22.748  0.00  0.00    +0.018 C 
ATOM     34  C   UNL     1      33.531 -13.718 -25.158  0.00  0.00    +0.031 C 
ATOM     35  C   UNL     1      34.255 -13.399 -22.875  0.00  0.00    +0.031 C 
ATOM     36  C   UNL     1      33.790 -12.872 -24.080  0.00  0.00    +0.140 C 
ENDBRANCH  24  31
ENDBRANCH   3  25
TORSDOF 5
ENDMDL
MODEL 7
REMARK VINA RESULT:     -11.7      3.775     11.824
REMARK  Name = 21081761
REMARK  5 active torsions:
REMARK  status: ('A' for Active; 'I' for Inactive)
REMARK    1  A    between atoms: N_2  and  C_6
REMARK    2  A    between atoms: C_3  and  C_25
REMARK    3  A    between atoms: C_7  and  O_12
REMARK    4  A    between atoms: O_12  and  C_16
REMARK    5  A    between atoms: N_24  and  C_31
REMARK                            x       y       z     vdW  Elec       q    Type
REMARK                         _______ _______ _______ _____ _____    ______ ____
ROOT
ATOM      1  O   UNL     1      36.688 -21.633 -19.880  0.00  0.00    -0.270 OA
ATOM      2  N   UNL     1      34.577 -20.621 -20.168  0.00  0.00    -0.280 N 
ATOM      3  C   UNL     1      35.508 -21.486 -19.589  0.00  0.00    +0.254 C 
ATOM      4  H   UNL     1      33.667 -20.648 -19.792  0.00  0.00    +0.155 HD
ENDROOT
BRANCH   2   6
ATOM      5  F   UNL     1      33.286 -18.827 -24.409  0.00  0.00    -0.201 F 
ATOM      6  C   UNL     1      34.779 -19.721 -21.215  0.00  0.00    +0.053 C 
ATOM      7  C   UNL     1      35.185 -17.924 -23.310  0.00  0.00    +0.173 C 
ATOM      8  C   UNL     1      33.916 -19.721 -22.312  0.00  0.00    +0.047 C 
ATOM      9  C   UNL     1      35.844 -18.822 -21.166  0.00  0.00    +0.018 C 
ATOM     10  C   UNL     1      34.119 -18.823 -23.359  0.00  0.00    +0.176 C 
ATOM     11  C   UNL     1      36.048 -17.924 -22.214  0.00  0.00    +0.041 C 
BRANCH   7  12
ATOM     12  O   UNL     1      35.387 -17.035 -24.348  0.00  0.00    -0.451 OA
BRANCH  12  16
ATOM     13  N   UNL     1      33.221 -13.523 -22.192  0.00  0.00    -0.297 N 
ATOM     14  N   UNL     1      32.881 -13.643 -24.573  0.00  0.00    -0.229 NA
ATOM     15  C   UNL     1      34.247 -15.196 -23.256  0.00  0.00    +0.067 C 
ATOM     16  C   UNL     1      34.578 -15.935 -24.404  0.00  0.00    +0.150 C 
ATOM     17  C   UNL     1      33.415 -14.093 -23.422  0.00  0.00    +0.135 C 
ATOM     18  C   UNL     1      34.552 -15.276 -21.871  0.00  0.00    +0.022 C 
ATOM     19  C   UNL     1      33.908 -14.234 -21.242  0.00  0.00    +0.063 C 
ATOM     20  C   UNL     1      34.052 -15.512 -25.624  0.00  0.00    +0.058 C 
ATOM     21  C   UNL     1      33.232 -14.391 -25.645  0.00  0.00    +0.103 C 
ATOM     22  H   UNL     1      32.673 -12.724 -22.016  0.00  0.00    +0.154 HD
ENDBRANCH  12  16
ENDBRANCH   7  12
ENDBRANCH   2   6
BRANCH   3  25
ATOM     23  O   UNL     1      36.935 -22.501 -17.314  0.00  0.00    -0.269 OA
ATOM     24  N   UNL     1      35.020 -23.471 -16.323  0.00  0.00    -0.233 N 
ATOM     25  C   UNL     1      34.930 -22.286 -18.503  0.00  0.00    +0.108 C 
ATOM     26  C   UNL     1      35.729 -22.746 -17.317  0.00  0.00    +0.261 C 
ATOM     27  C   UNL     1      33.674 -23.782 -16.519  0.00  0.00    +0.072 C 
ATOM     28  C   UNL     1      33.638 -22.616 -18.617  0.00  0.00    +0.010 C 
ATOM     29  C   UNL     1      32.992 -23.394 -17.602  0.00  0.00    +0.017 C 
BRANCH  24  31
ATOM     30  F   UNL     1      37.656 -25.142 -11.698  0.00  0.00    -0.204 F 
ATOM     31  C   UNL     1      35.705 -23.905 -15.121  0.00  0.00    +0.059 C 
ATOM     32  C   UNL     1      35.731 -23.080 -13.996  0.00  0.00    +0.018 C 
ATOM     33  C   UNL     1      36.338 -25.149 -15.089  0.00  0.00    +0.018 C 
ATOM     34  C   UNL     1      36.390 -23.498 -12.840  0.00  0.00    +0.031 C 
ATOM     35  C   UNL     1      36.996 -25.567 -13.933  0.00  0.00    +0.031 C 
ATOM     36  C   UNL     1      37.022 -24.742 -12.808  0.00  0.00    +0.140 C 
ENDBRANCH  24  31
ENDBRANCH   3  25
TORSDOF 5
ENDMDL
MODEL 8
REMARK VINA RESULT:     -11.6      2.933     10.903
REMARK  Name = 21081761
REMARK  5 active torsions:
REMARK  status: ('A' for Active; 'I' for Inactive)
REMARK    1  A    between atoms: N_2  and  C_6
REMARK    2  A    between atoms: C_3  and  C_25
REMARK    3  A    between atoms: C_7  and  O_12
REMARK    4  A    between atoms: O_12  and  C_16
REMARK    5  A    between atoms: N_24  and  C_31
REMARK                            x       y       z     vdW  Elec       q    Type
REMARK                         _______ _______ _______ _____ _____    ______ ____
ROOT
ATOM      1  O   UNL     1      35.050 -14.020 -23.590  0.00  0.00    -0.270 OA
ATOM      2  N   UNL     1      33.061 -14.559 -22.440  0.00  0.00    -0.280 N 
ATOM      3  C   UNL     1      34.239 -14.822 -23.143  0.00  0.00    +0.254 C 
ATOM      4  H   UNL     1      32.537 -15.345 -22.163  0.00  0.00    +0.155 HD
ENDROOT
BRANCH   2   6
ATOM      5  F   UNL     1      31.411 -11.553 -19.107  0.00  0.00    -0.201 F 
ATOM      6  C   UNL     1      32.537 -13.317 -22.082  0.00  0.00    +0.053 C 
ATOM      7  C   UNL     1      31.486 -10.833 -21.366  0.00  0.00    +0.173 C 
ATOM      8  C   UNL     1      32.229 -13.047 -20.748  0.00  0.00    +0.047 C 
ATOM      9  C   UNL     1      32.320 -12.343 -23.057  0.00  0.00    +0.018 C 
ATOM     10  C   UNL     1      31.703 -11.805 -20.390  0.00  0.00    +0.176 C 
ATOM     11  C   UNL     1      31.794 -11.102 -22.700  0.00  0.00    +0.041 C 
BRANCH   7  12
ATOM     12  O   UNL     1      30.964  -9.603 -21.013  0.00  0.00    -0.451 OA
BRANCH  12  16
ATOM     13  N   UNL     1      31.823  -6.195 -24.065  0.00  0.00    -0.297 N 
ATOM     14  N   UNL     1      33.179  -6.169 -22.075  0.00  0.00    -0.229 NA
ATOM     15  C   UNL     1      31.435  -7.817 -22.581  0.00  0.00    +0.067 C 
ATOM     16  C   UNL     1      31.672  -8.491 -21.371  0.00  0.00    +0.150 C 
ATOM     17  C   UNL     1      32.212  -6.694 -22.850  0.00  0.00    +0.135 C 
ATOM     18  C   UNL     1      30.556  -7.983 -23.683  0.00  0.00    +0.022 C 
ATOM     19  C   UNL     1      30.817  -6.971 -24.581  0.00  0.00    +0.063 C 
ATOM     20  C   UNL     1      32.663  -7.989 -20.530  0.00  0.00    +0.058 C 
ATOM     21  C   UNL     1      33.364  -6.857 -20.924  0.00  0.00    +0.103 C 
ATOM     22  H   UNL     1      32.207  -5.400 -24.502  0.00  0.00    +0.154 HD
ENDBRANCH  12  16
ENDBRANCH   7  12
ENDBRANCH   2   6
BRANCH   3  25
ATOM     23  O   UNL     1      34.855 -16.709 -21.068  0.00  0.00    -0.269 OA
ATOM     24  N   UNL     1      34.895 -18.569 -22.528  0.00  0.00    -0.233 N 
ATOM     25  C   UNL     1      34.468 -16.259 -23.334  0.00  0.00    +0.108 C 
ATOM     26  C   UNL     1      34.742 -17.197 -22.193  0.00  0.00    +0.261 C 
ATOM     27  C   UNL     1      34.863 -18.963 -23.867  0.00  0.00    +0.072 C 
ATOM     28  C   UNL     1      34.443 -16.714 -24.592  0.00  0.00    +0.010 C 
ATOM     29  C   UNL     1      34.656 -18.103 -24.869  0.00  0.00    +0.017 C 
BRANCH  24  31
ATOM     30  F   UNL     1      35.717 -22.336 -18.497  0.00  0.00    -0.204 F 
ATOM     31  C   UNL     1      35.109 -19.548 -21.480  0.00  0.00    +0.059 C 
ATOM     32  C   UNL     1      34.029 -20.266 -20.966  0.00  0.00    +0.018 C 
ATOM     33  C   UNL     1      36.395 -19.772 -20.987  0.00  0.00    +0.018 C 
ATOM     34  C   UNL     1      34.235 -21.208 -19.958  0.00  0.00    +0.031 C 
ATOM     35  C   UNL     1      36.601 -20.715 -19.979  0.00  0.00    +0.031 C 
ATOM     36  C   UNL     1      35.520 -21.432 -19.465  0.00  0.00    +0.140 C 
ENDBRANCH  24  31
ENDBRANCH   3  25
TORSDOF 5
ENDMDL
MODEL 9
REMARK VINA RESULT:     -11.5      2.704     11.485
REMARK  Name = 21081761
REMARK  5 active torsions:
REMARK  status: ('A' for Active; 'I' for Inactive)
REMARK    1  A    between atoms: N_2  and  C_6
REMARK    2  A    between atoms: C_3  and  C_25
REMARK    3  A    between atoms: C_7  and  O_12
REMARK    4  A    between atoms: O_12  and  C_16
REMARK    5  A    between atoms: N_24  and  C_31
REMARK                            x       y       z     vdW  Elec       q    Type
REMARK                         _______ _______ _______ _____ _____    ______ ____
ROOT
ATOM      1  O   UNL     1      35.251 -14.204 -21.956  0.00  0.00    -0.270 OA
ATOM      2  N   UNL     1      33.368 -14.058 -23.370  0.00  0.00    -0.280 N 
ATOM      3  C   UNL     1      34.424 -14.695 -22.714  0.00  0.00    +0.254 C 
ATOM      4  H   UNL     1      32.807 -14.629 -23.944  0.00  0.00    +0.155 HD
ENDROOT
BRANCH   2   6
ATOM      5  F   UNL     1      30.877 -10.506 -21.358  0.00  0.00    -0.201 F 
ATOM      6  C   UNL     1      33.011 -12.711 -23.312  0.00  0.00    +0.053 C 
ATOM      7  C   UNL     1      32.296 -10.017 -23.196  0.00  0.00    +0.173 C 
ATOM      8  C   UNL     1      32.105 -12.270 -22.347  0.00  0.00    +0.047 C 
ATOM      9  C   UNL     1      33.560 -11.804 -24.218  0.00  0.00    +0.018 C 
ATOM     10  C   UNL     1      31.747 -10.923 -22.289  0.00  0.00    +0.176 C 
ATOM     11  C   UNL     1      33.202 -10.457 -24.161  0.00  0.00    +0.041 C 
BRANCH   7  12
ATOM     12  O   UNL     1      31.941  -8.682 -23.140  0.00  0.00    -0.451 OA
BRANCH  12  16
ATOM     13  N   UNL     1      32.750  -4.750 -25.498  0.00  0.00    -0.297 N 
ATOM     14  N   UNL     1      34.709  -5.901 -24.700  0.00  0.00    -0.229 NA
ATOM     15  C   UNL     1      32.396  -6.640 -24.363  0.00  0.00    +0.067 C 
ATOM     16  C   UNL     1      32.824  -7.773 -23.651  0.00  0.00    +0.150 C 
ATOM     17  C   UNL     1      33.376  -5.777 -24.841  0.00  0.00    +0.135 C 
ATOM     18  C   UNL     1      31.143  -6.098 -24.756  0.00  0.00    +0.022 C 
ATOM     19  C   UNL     1      31.392  -4.936 -25.452  0.00  0.00    +0.063 C 
ATOM     20  C   UNL     1      34.195  -7.951 -23.476  0.00  0.00    +0.058 C 
ATOM     21  C   UNL     1      35.064  -7.009 -24.008  0.00  0.00    +0.103 C 
ATOM     22  H   UNL     1      33.204  -3.994 -25.935  0.00  0.00    +0.154 HD
ENDBRANCH  12  16
ENDBRANCH   7  12
ENDBRANCH   2   6
BRANCH   3  25
ATOM     23  O   UNL     1      34.833 -16.795 -20.799  0.00  0.00    -0.269 OA
ATOM     24  N   UNL     1      34.656 -18.528 -22.397  0.00  0.00    -0.233 N 
ATOM     25  C   UNL     1      34.489 -16.129 -23.017  0.00  0.00    +0.108 C 
ATOM     26  C   UNL     1      34.660 -17.178 -21.956  0.00  0.00    +0.261 C 
ATOM     27  C   UNL     1      34.572 -18.811 -23.761  0.00  0.00    +0.072 C 
ATOM     28  C   UNL     1      34.406 -16.480 -24.306  0.00  0.00    +0.010 C 
ATOM     29  C   UNL     1      34.458 -17.859 -24.692  0.00  0.00    +0.017 C 
BRANCH  24  31
ATOM     30  F   UNL     1      35.069 -22.665 -18.676  0.00  0.00    -0.204 F 
ATOM     31  C   UNL     1      34.763 -19.604 -21.430  0.00  0.00    +0.059 C 
ATOM     32  C   UNL     1      36.018 -20.016 -20.982  0.00  0.00    +0.018 C 
ATOM     33  C   UNL     1      33.611 -20.226 -20.948  0.00  0.00    +0.018 C 
ATOM     34  C   UNL     1      36.121 -21.050 -20.051  0.00  0.00    +0.031 C 
ATOM     35  C   UNL     1      33.714 -21.259 -20.017  0.00  0.00    +0.031 C 
ATOM     36  C   UNL     1      34.969 -21.671 -19.569  0.00  0.00    +0.140 C 
ENDBRANCH  24  31
ENDBRANCH   3  25
TORSDOF 5
ENDMDL
