MODEL 1
REMARK VINA RESULT:     -11.7      0.000      0.000
REMARK  Name = 6918151
REMARK  4 active torsions:
REMARK  status: ('A' for Active; 'I' for Inactive)
REMARK    1  A    between atoms: C_2  and  C_11
REMARK    2  A    between atoms: C_7  and  C_18
REMARK    3  A    between atoms: C_11  and  C_12
REMARK    4  A    between atoms: C_18  and  C_23
REMARK                            x       y       z     vdW  Elec       q    Type
REMARK                         _______ _______ _______ _____ _____    ______ ____
ROOT
ATOM      1  O   UNL     1      35.742 -20.055 -20.793  0.00  0.00    -0.479 OA
ATOM      2  C   UNL     1      34.955 -19.048 -21.446  0.00  0.00    +0.171 C 
ATOM      3  C   UNL     1      33.730 -19.655 -22.127  0.00  0.00    +0.049 C 
ATOM      4  C   UNL     1      32.830 -20.280 -21.068  0.00  0.00    +0.033 C 
ATOM      5  C   UNL     1      33.641 -21.095 -20.104  0.00  0.00    +0.012 C 
ATOM      6  C   UNL     1      35.030 -20.931 -20.013  0.00  0.00    +0.134 C 
ATOM      7  C   UNL     1      33.751 -22.781 -18.361  0.00  0.00    -0.021 C 
ATOM      8  C   UNL     1      33.006 -22.017 -19.261  0.00  0.00    -0.006 C 
ATOM      9  C   UNL     1      35.775 -21.706 -19.120  0.00  0.00    +0.036 C 
ATOM     10  C   UNL     1      35.134 -22.628 -18.293  0.00  0.00    -0.001 C 
ENDROOT
BRANCH   2  11
ATOM     11  C   UNL     1      35.858 -18.363 -22.467  0.00  0.00    +0.070 C 
BRANCH  11  12
ATOM     12  C   UNL     1      35.182 -17.176 -23.099  0.00  0.00    -0.019 C 
ATOM     13  C   UNL     1      34.866 -16.073 -22.317  0.00  0.00    -0.004 C 
ATOM     14  C   UNL     1      34.885 -17.200 -24.455  0.00  0.00    -0.004 C 
ATOM     15  C   UNL     1      34.240 -14.973 -22.903  0.00  0.00    -0.000 C 
ATOM     16  C   UNL     1      34.259 -16.099 -25.040  0.00  0.00    -0.000 C 
ATOM     17  C   UNL     1      33.937 -14.986 -24.264  0.00  0.00    -0.000 C 
ENDBRANCH  11  12
ENDBRANCH   2  11
BRANCH   7  18
ATOM     18  C   UNL     1      33.065 -23.763 -17.473  0.00  0.00    +0.047 C 
BRANCH  18  23
ATOM     19  S   UNL     1      32.990 -23.948 -14.720  0.00  0.00    -0.048 S 
ATOM     20  O   UNL     1      30.249 -22.757 -17.162  0.00  0.00    -0.274 OA
ATOM     21  O   UNL     1      31.097 -24.851 -13.134  0.00  0.00    -0.263 OA
ATOM     22  N   UNL     1      30.470 -23.813 -15.115  0.00  0.00    -0.246 N 
ATOM     23  C   UNL     1      32.456 -23.102 -16.238  0.00  0.00    +0.137 C 
ATOM     24  C   UNL     1      30.947 -23.191 -16.251  0.00  0.00    +0.239 C 
ATOM     25  C   UNL     1      31.358 -24.282 -14.182  0.00  0.00    +0.279 C 
ATOM     26  H   UNL     1      29.501 -23.919 -14.977  0.00  0.00    +0.158 HD
ENDBRANCH  18  23
ENDBRANCH   7  18
TORSDOF 4
ENDMDL
MODEL 2
REMARK VINA RESULT:     -11.3      0.751      1.224
REMARK  Name = 6918151
REMARK  4 active torsions:
REMARK  status: ('A' for Active; 'I' for Inactive)
REMARK    1  A    between atoms: C_2  and  C_11
REMARK    2  A    between atoms: C_7  and  C_18
REMARK    3  A    between atoms: C_11  and  C_12
REMARK    4  A    between atoms: C_18  and  C_23
REMARK                            x       y       z     vdW  Elec       q    Type
REMARK                         _______ _______ _______ _____ _____    ______ ____
ROOT
ATOM      1  O   UNL     1      35.787 -19.807 -21.006  0.00  0.00    -0.479 OA
ATOM      2  C   UNL     1      34.951 -18.825 -21.637  0.00  0.00    +0.171 C 
ATOM      3  C   UNL     1      33.737 -19.473 -22.301  0.00  0.00    +0.049 C 
ATOM      4  C   UNL     1      32.882 -20.142 -21.232  0.00  0.00    +0.033 C 
ATOM      5  C   UNL     1      33.741 -20.933 -20.289  0.00  0.00    +0.012 C 
ATOM      6  C   UNL     1      35.124 -20.715 -20.221  0.00  0.00    +0.134 C 
ATOM      7  C   UNL     1      33.947 -22.627 -18.563  0.00  0.00    -0.021 C 
ATOM      8  C   UNL     1      33.158 -21.885 -19.443  0.00  0.00    -0.006 C 
ATOM      9  C   UNL     1      35.914 -21.468 -19.349  0.00  0.00    +0.036 C 
ATOM     10  C   UNL     1      35.325 -22.420 -18.519  0.00  0.00    -0.001 C 
ENDROOT
BRANCH   2  11
ATOM     11  C   UNL     1      35.807 -18.098 -22.667  0.00  0.00    +0.070 C 
BRANCH  11  12
ATOM     12  C   UNL     1      35.077 -16.930 -23.274  0.00  0.00    -0.019 C 
ATOM     13  C   UNL     1      34.729 -16.965 -24.618  0.00  0.00    -0.004 C 
ATOM     14  C   UNL     1      34.762 -15.834 -22.482  0.00  0.00    -0.004 C 
ATOM     15  C   UNL     1      34.052 -15.883 -25.180  0.00  0.00    -0.000 C 
ATOM     16  C   UNL     1      34.085 -14.752 -23.045  0.00  0.00    -0.000 C 
ATOM     17  C   UNL     1      33.730 -14.776 -24.393  0.00  0.00    -0.000 C 
ENDBRANCH  11  12
ENDBRANCH   2  11
BRANCH   7  18
ATOM     18  C   UNL     1      33.316 -23.641 -17.671  0.00  0.00    +0.047 C 
BRANCH  18  23
ATOM     19  S   UNL     1      34.147 -23.597 -15.039  0.00  0.00    -0.048 S 
ATOM     20  O   UNL     1      30.568 -23.422 -16.472  0.00  0.00    -0.274 OA
ATOM     21  O   UNL     1      33.177 -24.841 -12.936  0.00  0.00    -0.263 OA
ATOM     22  N   UNL     1      31.700 -24.192 -14.608  0.00  0.00    -0.246 N 
ATOM     23  C   UNL     1      32.953 -23.067 -16.304  0.00  0.00    +0.137 C 
ATOM     24  C   UNL     1      31.606 -23.566 -15.834  0.00  0.00    +0.239 C 
ATOM     25  C   UNL     1      32.928 -24.316 -14.010  0.00  0.00    +0.279 C 
ATOM     26  H   UNL     1      30.895 -24.547 -14.168  0.00  0.00    +0.158 HD
ENDBRANCH  18  23
ENDBRANCH   7  18
TORSDOF 4
ENDMDL
MODEL 3
REMARK VINA RESULT:     -10.8      6.092     10.643
REMARK  Name = 6918151
REMARK  4 active torsions:
REMARK  status: ('A' for Active; 'I' for Inactive)
REMARK    1  A    between atoms: C_2  and  C_11
REMARK    2  A    between atoms: C_7  and  C_18
REMARK    3  A    between atoms: C_11  and  C_12
REMARK    4  A    between atoms: C_18  and  C_23
REMARK                            x       y       z     vdW  Elec       q    Type
REMARK                         _______ _______ _______ _____ _____    ______ ____
ROOT
ATOM      1  O   UNL     1      35.494 -17.369 -21.705  0.00  0.00    -0.479 OA
ATOM      2  C   UNL     1      36.099 -18.512 -22.329  0.00  0.00    +0.171 C 
ATOM      3  C   UNL     1      35.162 -19.144 -23.357  0.00  0.00    +0.049 C 
ATOM      4  C   UNL     1      34.893 -18.140 -24.471  0.00  0.00    +0.033 C 
ATOM      5  C   UNL     1      34.585 -16.787 -23.896  0.00  0.00    +0.012 C 
ATOM      6  C   UNL     1      34.909 -16.478 -22.569  0.00  0.00    +0.134 C 
ATOM      7  C   UNL     1      33.697 -14.546 -24.176  0.00  0.00    -0.021 C 
ATOM      8  C   UNL     1      33.989 -15.806 -24.699  0.00  0.00    -0.006 C 
ATOM      9  C   UNL     1      34.605 -15.221 -22.043  0.00  0.00    +0.036 C 
ATOM     10  C   UNL     1      34.001 -14.255 -22.848  0.00  0.00    -0.001 C 
ENDROOT
BRANCH   2  11
ATOM     11  C   UNL     1      36.437 -19.504 -21.223  0.00  0.00    +0.070 C 
BRANCH  11  12
ATOM     12  C   UNL     1      35.216 -20.245 -20.747  0.00  0.00    -0.019 C 
ATOM     13  C   UNL     1      35.368 -21.371 -19.948  0.00  0.00    -0.004 C 
ATOM     14  C   UNL     1      33.956 -19.794 -21.115  0.00  0.00    -0.004 C 
ATOM     15  C   UNL     1      34.237 -22.058 -19.507  0.00  0.00    -0.000 C 
ATOM     16  C   UNL     1      32.825 -20.482 -20.673  0.00  0.00    -0.000 C 
ATOM     17  C   UNL     1      32.966 -21.613 -19.870  0.00  0.00    -0.000 C 
ENDBRANCH  11  12
ENDBRANCH   2  11
BRANCH   7  18
ATOM     18  C   UNL     1      33.057 -13.511 -25.038  0.00  0.00    +0.047 C 
BRANCH  18  23
ATOM     19  S   UNL     1      33.576 -10.917 -24.252  0.00  0.00    -0.048 S 
ATOM     20  O   UNL     1      34.000 -12.547 -27.725  0.00  0.00    -0.274 OA
ATOM     21  O   UNL     1      33.035  -8.642 -25.456  0.00  0.00    -0.263 OA
ATOM     22  N   UNL     1      33.510 -10.498 -26.772  0.00  0.00    -0.246 N 
ATOM     23  C   UNL     1      33.986 -12.333 -25.317  0.00  0.00    +0.137 C 
ATOM     24  C   UNL     1      33.840 -11.837 -26.738  0.00  0.00    +0.239 C 
ATOM     25  C   UNL     1      33.328  -9.820 -25.594  0.00  0.00    +0.279 C 
ATOM     26  H   UNL     1      33.406 -10.033 -27.634  0.00  0.00    +0.158 HD
ENDBRANCH  18  23
ENDBRANCH   7  18
TORSDOF 4
ENDMDL
MODEL 4
REMARK VINA RESULT:     -10.7      3.588      6.433
REMARK  Name = 6918151
REMARK  4 active torsions:
REMARK  status: ('A' for Active; 'I' for Inactive)
REMARK    1  A    between atoms: C_2  and  C_11
REMARK    2  A    between atoms: C_7  and  C_18
REMARK    3  A    between atoms: C_11  and  C_12
REMARK    4  A    between atoms: C_18  and  C_23
REMARK                            x       y       z     vdW  Elec       q    Type
REMARK                         _______ _______ _______ _____ _____    ______ ____
ROOT
ATOM      1  O   UNL     1      34.155 -15.058 -24.587  0.00  0.00    -0.479 OA
ATOM      2  C   UNL     1      34.050 -13.708 -24.108  0.00  0.00    +0.171 C 
ATOM      3  C   UNL     1      33.287 -13.645 -22.786  0.00  0.00    +0.049 C 
ATOM      4  C   UNL     1      34.063 -14.417 -21.725  0.00  0.00    +0.033 C 
ATOM      5  C   UNL     1      34.527 -15.737 -22.270  0.00  0.00    +0.012 C 
ATOM      6  C   UNL     1      34.558 -15.975 -23.651  0.00  0.00    +0.134 C 
ATOM      7  C   UNL     1      35.395 -17.972 -21.889  0.00  0.00    -0.021 C 
ATOM      8  C   UNL     1      34.962 -16.740 -21.394  0.00  0.00    -0.006 C 
ATOM      9  C   UNL     1      34.980 -17.213 -24.143  0.00  0.00    +0.036 C 
ATOM     10  C   UNL     1      35.400 -18.208 -23.262  0.00  0.00    -0.001 C 
ENDROOT
BRANCH   2  11
ATOM     11  C   UNL     1      33.333 -12.902 -25.185  0.00  0.00    +0.070 C 
BRANCH  11  12
ATOM     12  C   UNL     1      34.002 -11.575 -25.425  0.00  0.00    -0.019 C 
ATOM     13  C   UNL     1      34.508 -11.283 -26.684  0.00  0.00    -0.004 C 
ATOM     14  C   UNL     1      34.103 -10.662 -24.384  0.00  0.00    -0.004 C 
ATOM     15  C   UNL     1      35.128 -10.053 -26.907  0.00  0.00    -0.000 C 
ATOM     16  C   UNL     1      34.722  -9.432 -24.608  0.00  0.00    -0.000 C 
ATOM     17  C   UNL     1      35.235  -9.128 -25.868  0.00  0.00    -0.000 C 
ENDBRANCH  11  12
ENDBRANCH   2  11
BRANCH   7  18
ATOM     18  C   UNL     1      35.850 -19.035 -20.948  0.00  0.00    +0.047 C 
BRANCH  18  23
ATOM     19  S   UNL     1      33.341 -20.184 -20.924  0.00  0.00    -0.048 S 
ATOM     20  O   UNL     1      36.757 -21.762 -20.064  0.00  0.00    -0.274 OA
ATOM     21  O   UNL     1      32.228 -21.785 -19.160  0.00  0.00    -0.263 OA
ATOM     22  N   UNL     1      34.524 -21.932 -19.484  0.00  0.00    -0.246 N 
ATOM     23  C   UNL     1      35.132 -20.362 -21.180  0.00  0.00    +0.137 C 
ATOM     24  C   UNL     1      35.587 -21.416 -20.197  0.00  0.00    +0.239 C 
ATOM     25  C   UNL     1      33.264 -21.439 -19.706  0.00  0.00    +0.279 C 
ATOM     26  H   UNL     1      34.669 -22.647 -18.823  0.00  0.00    +0.158 HD
ENDBRANCH  18  23
ENDBRANCH   7  18
TORSDOF 4
ENDMDL
MODEL 5
REMARK VINA RESULT:     -10.6      3.475      6.070
REMARK  Name = 6918151
REMARK  4 active torsions:
REMARK  status: ('A' for Active; 'I' for Inactive)
REMARK    1  A    between atoms: C_2  and  C_11
REMARK    2  A    between atoms: C_7  and  C_18
REMARK    3  A    between atoms: C_11  and  C_12
REMARK    4  A    between atoms: C_18  and  C_23
REMARK                            x       y       z     vdW  Elec       q    Type
REMARK                         _______ _______ _______ _____ _____    ______ ____
ROOT
ATOM      1  O   UNL     1      33.490 -15.823 -25.365  0.00  0.00    -0.479 OA
ATOM      2  C   UNL     1      33.933 -14.510 -24.989  0.00  0.00    +0.171 C 
ATOM      3  C   UNL     1      33.771 -14.279 -23.487  0.00  0.00    +0.049 C 
ATOM      4  C   UNL     1      34.657 -15.263 -22.733  0.00  0.00    +0.033 C 
ATOM      5  C   UNL     1      34.516 -16.643 -23.306  0.00  0.00    +0.012 C 
ATOM      6  C   UNL     1      33.960 -16.842 -24.576  0.00  0.00    +0.134 C 
ATOM      7  C   UNL     1      34.841 -19.040 -23.100  0.00  0.00    -0.021 C 
ATOM      8  C   UNL     1      34.968 -17.752 -22.578  0.00  0.00    -0.006 C 
ATOM      9  C   UNL     1      33.822 -18.133 -25.092  0.00  0.00    +0.036 C 
ATOM     10  C   UNL     1      34.265 -19.230 -24.354  0.00  0.00    -0.001 C 
ENDROOT
BRANCH   2  11
ATOM     11  C   UNL     1      33.102 -13.509 -25.783  0.00  0.00    +0.070 C 
BRANCH  11  12
ATOM     12  C   UNL     1      33.871 -12.246 -26.063  0.00  0.00    -0.019 C 
ATOM     13  C   UNL     1      34.119 -11.353 -25.029  0.00  0.00    -0.004 C 
ATOM     14  C   UNL     1      34.322 -11.991 -27.351  0.00  0.00    -0.004 C 
ATOM     15  C   UNL     1      34.832 -10.182 -25.288  0.00  0.00    -0.000 C 
ATOM     16  C   UNL     1      35.036 -10.820 -27.610  0.00  0.00    -0.000 C 
ATOM     17  C   UNL     1      35.290  -9.916 -26.579  0.00  0.00    -0.000 C 
ENDBRANCH  11  12
ENDBRANCH   2  11
BRANCH   7  18
ATOM     18  C   UNL     1      35.321 -20.212 -22.313  0.00  0.00    +0.047 C 
BRANCH  18  23
ATOM     19  S   UNL     1      35.999 -21.172 -19.816  0.00  0.00    -0.048 S 
ATOM     20  O   UNL     1      32.530 -20.188 -21.193  0.00  0.00    -0.274 OA
ATOM     21  O   UNL     1      34.822 -22.987 -18.322  0.00  0.00    -0.263 OA
ATOM     22  N   UNL     1      33.495 -21.663 -19.695  0.00  0.00    -0.246 N 
ATOM     23  C   UNL     1      34.922 -20.127 -20.842  0.00  0.00    +0.137 C 
ATOM     24  C   UNL     1      33.516 -20.639 -20.620  0.00  0.00    +0.239 C 
ATOM     25  C   UNL     1      34.673 -22.097 -19.145  0.00  0.00    +0.279 C 
ATOM     26  H   UNL     1      32.641 -22.078 -19.433  0.00  0.00    +0.158 HD
ENDBRANCH  18  23
ENDBRANCH   7  18
TORSDOF 4
ENDMDL
MODEL 6
REMARK VINA RESULT:     -10.6      4.345      9.507
REMARK  Name = 6918151
REMARK  4 active torsions:
REMARK  status: ('A' for Active; 'I' for Inactive)
REMARK    1  A    between atoms: C_2  and  C_11
REMARK    2  A    between atoms: C_7  and  C_18
REMARK    3  A    between atoms: C_11  and  C_12
REMARK    4  A    between atoms: C_18  and  C_23
REMARK                            x       y       z     vdW  Elec       q    Type
REMARK                         _______ _______ _______ _____ _____    ______ ____
ROOT
ATOM      1  O   UNL     1      35.178 -23.126 -15.690  0.00  0.00    -0.479 OA
ATOM      2  C   UNL     1      34.100 -24.026 -15.393  0.00  0.00    +0.171 C 
ATOM      3  C   UNL     1      32.771 -23.500 -15.932  0.00  0.00    +0.049 C 
ATOM      4  C   UNL     1      32.850 -23.413 -17.452  0.00  0.00    +0.033 C 
ATOM      5  C   UNL     1      34.143 -22.780 -17.875  0.00  0.00    +0.012 C 
ATOM      6  C   UNL     1      35.223 -22.684 -16.988  0.00  0.00    +0.134 C 
ATOM      7  C   UNL     1      35.487 -21.707 -19.588  0.00  0.00    -0.021 C 
ATOM      8  C   UNL     1      34.290 -22.299 -19.183  0.00  0.00    -0.006 C 
ATOM      9  C   UNL     1      36.416 -22.080 -17.391  0.00  0.00    +0.036 C 
ATOM     10  C   UNL     1      36.548 -21.595 -18.692  0.00  0.00    -0.001 C 
ENDROOT
BRANCH   2  11
ATOM     11  C   UNL     1      34.046 -24.180 -13.877  0.00  0.00    +0.070 C 
BRANCH  11  12
ATOM     12  C   UNL     1      35.421 -24.329 -13.283  0.00  0.00    -0.019 C 
ATOM     13  C   UNL     1      35.865 -23.403 -12.348  0.00  0.00    -0.004 C 
ATOM     14  C   UNL     1      36.225 -25.390 -13.676  0.00  0.00    -0.004 C 
ATOM     15  C   UNL     1      37.139 -23.541 -11.797  0.00  0.00    -0.000 C 
ATOM     16  C   UNL     1      37.499 -25.527 -13.125  0.00  0.00    -0.000 C 
ATOM     17  C   UNL     1      37.956 -24.603 -12.186  0.00  0.00    -0.000 C 
ENDBRANCH  11  12
ENDBRANCH   2  11
BRANCH   7  18
ATOM     18  C   UNL     1      35.631 -21.193 -20.981  0.00  0.00    +0.047 C 
BRANCH  18  23
ATOM     19  S   UNL     1      34.149 -19.431 -22.502  0.00  0.00    -0.048 S 
ATOM     20  O   UNL     1      37.468 -18.841 -20.623  0.00  0.00    -0.274 OA
ATOM     21  O   UNL     1      34.926 -17.676 -24.299  0.00  0.00    -0.263 OA
ATOM     22  N   UNL     1      36.341 -18.119 -22.510  0.00  0.00    -0.246 N 
ATOM     23  C   UNL     1      35.264 -19.716 -21.095  0.00  0.00    +0.137 C 
ATOM     24  C   UNL     1      36.485 -18.862 -21.356  0.00  0.00    +0.239 C 
ATOM     25  C   UNL     1      35.202 -18.256 -23.260  0.00  0.00    +0.279 C 
ATOM     26  H   UNL     1      37.050 -17.498 -22.792  0.00  0.00    +0.158 HD
ENDBRANCH  18  23
ENDBRANCH   7  18
TORSDOF 4
ENDMDL
MODEL 7
REMARK VINA RESULT:     -10.4      6.418     11.193
REMARK  Name = 6918151
REMARK  4 active torsions:
REMARK  status: ('A' for Active; 'I' for Inactive)
REMARK    1  A    between atoms: C_2  and  C_11
REMARK    2  A    between atoms: C_7  and  C_18
REMARK    3  A    between atoms: C_11  and  C_12
REMARK    4  A    between atoms: C_18  and  C_23
REMARK                            x       y       z     vdW  Elec       q    Type
REMARK                         _______ _______ _______ _____ _____    ______ ____
ROOT
ATOM      1  O   UNL     1      34.889 -17.675 -23.515  0.00  0.00    -0.479 OA
ATOM      2  C   UNL     1      34.757 -18.021 -22.128  0.00  0.00    +0.171 C 
ATOM      3  C   UNL     1      35.288 -16.909 -21.225  0.00  0.00    +0.049 C 
ATOM      4  C   UNL     1      34.449 -15.654 -21.435  0.00  0.00    +0.033 C 
ATOM      5  C   UNL     1      34.236 -15.403 -22.899  0.00  0.00    +0.012 C 
ATOM      6  C   UNL     1      34.453 -16.416 -23.842  0.00  0.00    +0.134 C 
ATOM      7  C   UNL     1      33.589 -13.904 -24.695  0.00  0.00    -0.021 C 
ATOM      8  C   UNL     1      33.789 -14.149 -23.336  0.00  0.00    -0.006 C 
ATOM      9  C   UNL     1      34.264 -16.165 -25.204  0.00  0.00    +0.036 C 
ATOM     10  C   UNL     1      33.829 -14.910 -25.628  0.00  0.00    -0.001 C 
ENDROOT
BRANCH   2  11
ATOM     11  C   UNL     1      35.535 -19.313 -21.910  0.00  0.00    +0.070 C 
BRANCH  11  12
ATOM     12  C   UNL     1      34.800 -20.259 -20.999  0.00  0.00    -0.019 C 
ATOM     13  C   UNL     1      35.515 -21.200 -20.268  0.00  0.00    -0.004 C 
ATOM     14  C   UNL     1      33.418 -20.179 -20.901  0.00  0.00    -0.004 C 
ATOM     15  C   UNL     1      34.834 -22.076 -19.424  0.00  0.00    -0.000 C 
ATOM     16  C   UNL     1      32.737 -21.056 -20.056  0.00  0.00    -0.000 C 
ATOM     17  C   UNL     1      33.445 -22.004 -19.319  0.00  0.00    -0.000 C 
ENDBRANCH  11  12
ENDBRANCH   2  11
BRANCH   7  18
ATOM     18  C   UNL     1      33.118 -12.563 -25.149  0.00  0.00    +0.047 C 
BRANCH  18  23
ATOM     19  S   UNL     1      33.807 -10.097 -24.118  0.00  0.00    -0.048 S 
ATOM     20  O   UNL     1      34.745 -11.671 -27.515  0.00  0.00    -0.274 OA
ATOM     21  O   UNL     1      33.857  -7.734 -25.269  0.00  0.00    -0.263 OA
ATOM     22  N   UNL     1      34.346  -9.600 -26.565  0.00  0.00    -0.246 N 
ATOM     23  C   UNL     1      34.239 -11.527 -25.155  0.00  0.00    +0.137 C 
ATOM     24  C   UNL     1      34.474 -10.974 -26.543  0.00  0.00    +0.239 C 
ATOM     25  C   UNL     1      34.009  -8.938 -25.413  0.00  0.00    +0.279 C 
ATOM     26  H   UNL     1      34.496  -9.101 -27.400  0.00  0.00    +0.158 HD
ENDBRANCH  18  23
ENDBRANCH   7  18
TORSDOF 4
ENDMDL
MODEL 8
REMARK VINA RESULT:     -10.3      4.058      5.860
REMARK  Name = 6918151
REMARK  4 active torsions:
REMARK  status: ('A' for Active; 'I' for Inactive)
REMARK    1  A    between atoms: C_2  and  C_11
REMARK    2  A    between atoms: C_7  and  C_18
REMARK    3  A    between atoms: C_11  and  C_12
REMARK    4  A    between atoms: C_18  and  C_23
REMARK                            x       y       z     vdW  Elec       q    Type
REMARK                         _______ _______ _______ _____ _____    ______ ____
ROOT
ATOM      1  O   UNL     1      35.154 -22.579 -17.809  0.00  0.00    -0.479 OA
ATOM      2  C   UNL     1      33.731 -22.493 -17.973  0.00  0.00    +0.171 C 
ATOM      3  C   UNL     1      33.018 -23.629 -17.240  0.00  0.00    +0.049 C 
ATOM      4  C   UNL     1      33.285 -23.503 -15.745  0.00  0.00    +0.033 C 
ATOM      5  C   UNL     1      34.740 -23.234 -15.492  0.00  0.00    +0.012 C 
ATOM      6  C   UNL     1      35.578 -22.782 -16.520  0.00  0.00    +0.134 C 
ATOM      7  C   UNL     1      36.622 -23.164 -13.961  0.00  0.00    -0.021 C 
ATOM      8  C   UNL     1      35.271 -23.410 -14.207  0.00  0.00    -0.006 C 
ATOM      9  C   UNL     1      36.934 -22.549 -16.275  0.00  0.00    +0.036 C 
ATOM     10  C   UNL     1      37.453 -22.737 -14.994  0.00  0.00    -0.001 C 
ENDROOT
BRANCH   2  11
ATOM     11  C   UNL     1      33.444 -22.552 -19.469  0.00  0.00    +0.070 C 
BRANCH  11  12
ATOM     12  C   UNL     1      34.066 -21.392 -20.200  0.00  0.00    -0.019 C 
ATOM     13  C   UNL     1      33.248 -20.464 -20.830  0.00  0.00    -0.004 C 
ATOM     14  C   UNL     1      35.448 -21.267 -20.235  0.00  0.00    -0.004 C 
ATOM     15  C   UNL     1      33.823 -19.389 -21.508  0.00  0.00    -0.000 C 
ATOM     16  C   UNL     1      36.023 -20.192 -20.912  0.00  0.00    -0.000 C 
ATOM     17  C   UNL     1      35.211 -19.254 -21.549  0.00  0.00    -0.000 C 
ENDBRANCH  11  12
ENDBRANCH   2  11
BRANCH   7  18
ATOM     18  C   UNL     1      37.177 -23.360 -12.591  0.00  0.00    +0.047 C 
BRANCH  18  23
ATOM     19  S   UNL     1      38.699 -25.309 -13.817  0.00  0.00    -0.048 S 
ATOM     20  O   UNL     1      35.720 -25.702 -11.395  0.00  0.00    -0.274 OA
ATOM     21  O   UNL     1      37.963 -27.547 -14.986  0.00  0.00    -0.263 OA
ATOM     22  N   UNL     1      36.712 -26.785 -13.181  0.00  0.00    -0.246 N 
ATOM     23  C   UNL     1      37.721 -24.771 -12.381  0.00  0.00    +0.137 C 
ATOM     24  C   UNL     1      36.603 -25.780 -12.242  0.00  0.00    +0.239 C 
ATOM     25  C   UNL     1      37.732 -26.741 -14.097  0.00  0.00    +0.279 C 
ATOM     26  H   UNL     1      36.064 -27.526 -13.194  0.00  0.00    +0.158 HD
ENDBRANCH  18  23
ENDBRANCH   7  18
TORSDOF 4
ENDMDL
MODEL 9
REMARK VINA RESULT:     -10.1      7.665     12.187
REMARK  Name = 6918151
REMARK  4 active torsions:
REMARK  status: ('A' for Active; 'I' for Inactive)
REMARK    1  A    between atoms: C_2  and  C_11
REMARK    2  A    between atoms: C_7  and  C_18
REMARK    3  A    between atoms: C_11  and  C_12
REMARK    4  A    between atoms: C_18  and  C_23
REMARK                            x       y       z     vdW  Elec       q    Type
REMARK                         _______ _______ _______ _____ _____    ______ ____
ROOT
ATOM      1  O   UNL     1      33.915 -15.377 -25.850  0.00  0.00    -0.479 OA
ATOM      2  C   UNL     1      33.855 -16.101 -24.612  0.00  0.00    +0.171 C 
ATOM      3  C   UNL     1      34.742 -15.458 -23.548  0.00  0.00    +0.049 C 
ATOM      4  C   UNL     1      34.226 -14.055 -23.250  0.00  0.00    +0.033 C 
ATOM      5  C   UNL     1      33.922 -13.325 -24.525  0.00  0.00    +0.012 C 
ATOM      6  C   UNL     1      33.774 -14.018 -25.734  0.00  0.00    +0.134 C 
ATOM      7  C   UNL     1      33.476 -11.244 -25.692  0.00  0.00    -0.021 C 
ATOM      8  C   UNL     1      33.757 -11.934 -24.512  0.00  0.00    -0.006 C 
ATOM      9  C   UNL     1      33.505 -13.324 -26.917  0.00  0.00    +0.036 C 
ATOM     10  C   UNL     1      33.353 -11.938 -26.894  0.00  0.00    -0.001 C 
ENDROOT
BRANCH   2  11
ATOM     11  C   UNL     1      34.305 -17.528 -24.901  0.00  0.00    +0.070 C 
BRANCH  11  12
ATOM     12  C   UNL     1      34.727 -18.245 -23.647  0.00  0.00    -0.019 C 
ATOM     13  C   UNL     1      35.983 -17.998 -23.107  0.00  0.00    -0.004 C 
ATOM     14  C   UNL     1      33.855 -19.142 -23.045  0.00  0.00    -0.004 C 
ATOM     15  C   UNL     1      36.373 -18.661 -21.945  0.00  0.00    -0.000 C 
ATOM     16  C   UNL     1      34.246 -19.805 -21.882  0.00  0.00    -0.000 C 
ATOM     17  C   UNL     1      35.505 -19.565 -21.332  0.00  0.00    -0.000 C 
ENDBRANCH  11  12
ENDBRANCH   2  11
BRANCH   7  18
ATOM     18  C   UNL     1      33.308  -9.762 -25.666  0.00  0.00    +0.047 C 
BRANCH  18  23
ATOM     19  S   UNL     1      32.092  -7.993 -23.931  0.00  0.00    -0.048 S 
ATOM     20  O   UNL     1      35.825  -8.919 -24.255  0.00  0.00    -0.274 OA
ATOM     21  O   UNL     1      32.820  -5.578 -23.190  0.00  0.00    -0.263 OA
ATOM     22  N   UNL     1      34.482  -7.128 -23.672  0.00  0.00    -0.246 N 
ATOM     23  C   UNL     1      33.423  -9.189 -24.256  0.00  0.00    +0.137 C 
ATOM     24  C   UNL     1      34.716  -8.428 -24.072  0.00  0.00    +0.239 C 
ATOM     25  C   UNL     1      33.191  -6.690 -23.531  0.00  0.00    +0.279 C 
ATOM     26  H   UNL     1      35.235  -6.521 -23.490  0.00  0.00    +0.158 HD
ENDBRANCH  18  23
ENDBRANCH   7  18
TORSDOF 4
ENDMDL
