MODEL 1
REMARK VINA RESULT:     -11.7      0.000      0.000
REMARK  Name = 11538992
REMARK  4 active torsions:
REMARK  status: ('A' for Active; 'I' for Inactive)
REMARK    1  A    between atoms: C_1  and  N_7
REMARK    2  A    between atoms: C_3  and  C_24
REMARK    3  A    between atoms: C_4  and  N_30
REMARK    4  A    between atoms: C_15  and  C_20
REMARK                            x       y       z     vdW  Elec       q    Type
REMARK                         _______ _______ _______ _____ _____    ______ ____
ROOT
ATOM      1  C   UNL     1      35.100 -21.725 -19.904  0.00  0.00    -0.059 C 
ATOM      2  C   UNL     1      36.296 -20.767 -19.926  0.00  0.00    -0.042 C 
ATOM      3  C   UNL     1      34.919 -19.080 -21.245  0.00  0.00    +0.005 C 
ATOM      4  C   UNL     1      36.260 -19.853 -21.163  0.00  0.00    -0.064 C 
ATOM      5  C   UNL     1      33.778 -20.956 -19.966  0.00  0.00    -0.021 C 
ATOM      6  C   UNL     1      33.722 -20.050 -21.194  0.00  0.00    +0.000 C 
ENDROOT
BRANCH   1   7
ATOM      7  N   UNL     1      35.141 -22.541 -18.690  0.00  0.00    +0.394 N 
ATOM      8  N   UNL     1      34.969 -23.419 -16.054  0.00  0.00    -0.299 N 
ATOM      9  N   UNL     1      32.850 -23.931 -16.117  0.00  0.00    -0.136 NA
ATOM     10  N   UNL     1      33.385 -24.387 -14.923  0.00  0.00    -0.125 NA
ATOM     11  C   UNL     1      36.086 -21.975 -17.710  0.00  0.00    -0.052 C 
ATOM     12  C   UNL     1      33.788 -22.667 -18.109  0.00  0.00    -0.009 C 
ATOM     13  C   UNL     1      36.245 -22.920 -16.509  0.00  0.00    +0.086 C 
ATOM     14  C   UNL     1      33.821 -23.352 -16.790  0.00  0.00    +0.122 A 
ATOM     15  C   UNL     1      34.662 -24.069 -14.908  0.00  0.00    +0.238 A 
ATOM     16  H   UNL     1      35.471 -23.474 -18.940  0.00  0.00    -0.079 HD
BRANCH  15  20
ATOM     17  F   UNL     1      36.680 -25.167 -14.238  0.00  0.00    -0.163 F 
ATOM     18  F   UNL     1      36.250 -23.250 -13.318  0.00  0.00    -0.163 F 
ATOM     19  F   UNL     1      35.090 -25.004 -12.764  0.00  0.00    -0.163 F 
ATOM     20  C   UNL     1      35.639 -24.362 -13.845  0.00  0.00    +0.452 C 
ENDBRANCH  15  20
ENDBRANCH   1   7
BRANCH   3  24
ATOM     21  F   UNL     1      34.653 -20.077 -23.889  0.00  0.00    -0.204 F 
ATOM     22  F   UNL     1      34.794 -14.643 -23.290  0.00  0.00    -0.202 F 
ATOM     23  F   UNL     1      34.541 -15.741 -25.780  0.00  0.00    -0.202 F 
ATOM     24  C   UNL     1      34.817 -18.181 -22.470  0.00  0.00    +0.005 C 
ATOM     25  C   UNL     1      34.689 -18.746 -23.735  0.00  0.00    +0.138 C 
ATOM     26  C   UNL     1      34.853 -16.799 -22.314  0.00  0.00    +0.030 C 
ATOM     27  C   UNL     1      34.760 -15.973 -23.434  0.00  0.00    +0.167 C 
ATOM     28  C   UNL     1      34.596 -17.920 -24.855  0.00  0.00    +0.061 C 
ATOM     29  C   UNL     1      34.632 -16.535 -24.704  0.00  0.00    +0.170 C 
ENDBRANCH   3  24
BRANCH   4  30
ATOM     30  N   UNL     1      37.394 -18.924 -21.114  0.00  0.00    +0.382 N 
ATOM     31  H   UNL     1      38.264 -19.452 -21.063  0.00  0.00    -0.089 HD
ATOM     32  H   UNL     1      37.309 -18.327 -20.292  0.00  0.00    -0.089 HD
ATOM     33  H   UNL     1      37.396 -18.346 -21.955  0.00  0.00    -0.089 HD
ENDBRANCH   4  30
TORSDOF 4
ENDMDL
MODEL 2
REMARK VINA RESULT:     -11.7      1.067      1.744
REMARK  Name = 11538992
REMARK  4 active torsions:
REMARK  status: ('A' for Active; 'I' for Inactive)
REMARK    1  A    between atoms: C_1  and  N_7
REMARK    2  A    between atoms: C_3  and  C_24
REMARK    3  A    between atoms: C_4  and  N_30
REMARK    4  A    between atoms: C_15  and  C_20
REMARK                            x       y       z     vdW  Elec       q    Type
REMARK                         _______ _______ _______ _____ _____    ______ ____
ROOT
ATOM      1  C   UNL     1      34.800 -22.223 -19.346  0.00  0.00    -0.059 C 
ATOM      2  C   UNL     1      36.004 -21.276 -19.359  0.00  0.00    -0.042 C 
ATOM      3  C   UNL     1      34.705 -19.646 -20.822  0.00  0.00    +0.005 C 
ATOM      4  C   UNL     1      36.034 -20.424 -20.640  0.00  0.00    -0.064 C 
ATOM      5  C   UNL     1      33.489 -21.449 -19.508  0.00  0.00    -0.021 C 
ATOM      6  C   UNL     1      33.499 -20.604 -20.780  0.00  0.00    +0.000 C 
ENDROOT
BRANCH   1   7
ATOM      7  N   UNL     1      34.776 -22.978 -18.094  0.00  0.00    +0.394 N 
ATOM      8  N   UNL     1      34.528 -23.710 -15.419  0.00  0.00    -0.299 N 
ATOM      9  N   UNL     1      32.379 -24.076 -15.476  0.00  0.00    -0.136 NA
ATOM     10  N   UNL     1      32.874 -24.509 -14.256  0.00  0.00    -0.125 NA
ATOM     11  C   UNL     1      35.753 -22.432 -17.134  0.00  0.00    -0.052 C 
ATOM     12  C   UNL     1      33.415 -22.981 -17.519  0.00  0.00    -0.009 C 
ATOM     13  C   UNL     1      35.839 -23.325 -15.887  0.00  0.00    +0.086 C 
ATOM     14  C   UNL     1      33.392 -23.600 -16.168  0.00  0.00    +0.122 A 
ATOM     15  C   UNL     1      34.170 -24.280 -14.245  0.00  0.00    +0.238 A 
ATOM     16  H   UNL     1      35.041 -23.944 -18.294  0.00  0.00    -0.079 HD
BRANCH  15  20
ATOM     17  F   UNL     1      36.070 -25.520 -13.487  0.00  0.00    -0.163 F 
ATOM     18  F   UNL     1      35.841 -23.504 -12.719  0.00  0.00    -0.163 F 
ATOM     19  F   UNL     1      34.513 -25.085 -12.034  0.00  0.00    -0.163 F 
ATOM     20  C   UNL     1      35.118 -24.586 -13.160  0.00  0.00    +0.452 C 
ENDBRANCH  15  20
ENDBRANCH   1   7
BRANCH   3  24
ATOM     21  F   UNL     1      35.186 -16.849 -20.856  0.00  0.00    -0.204 F 
ATOM     22  F   UNL     1      34.090 -19.238 -25.653  0.00  0.00    -0.202 F 
ATOM     23  F   UNL     1      34.573 -16.550 -25.539  0.00  0.00    -0.202 F 
ATOM     24  C   UNL     1      34.670 -18.808 -22.093  0.00  0.00    +0.005 C 
ATOM     25  C   UNL     1      34.916 -17.440 -22.029  0.00  0.00    +0.138 C 
ATOM     26  C   UNL     1      34.391 -19.419 -23.311  0.00  0.00    +0.030 C 
ATOM     27  C   UNL     1      34.358 -18.655 -24.478  0.00  0.00    +0.167 C 
ATOM     28  C   UNL     1      34.883 -16.677 -23.195  0.00  0.00    +0.061 C 
ATOM     29  C   UNL     1      34.604 -17.283 -24.419  0.00  0.00    +0.170 C 
ENDBRANCH   3  24
BRANCH   4  30
ATOM     30  N   UNL     1      37.173 -19.501 -20.583  0.00  0.00    +0.382 N 
ATOM     31  H   UNL     1      37.180 -18.919 -21.420  0.00  0.00    -0.089 HD
ATOM     32  H   UNL     1      38.041 -20.034 -20.532  0.00  0.00    -0.089 HD
ATOM     33  H   UNL     1      37.089 -18.908 -19.757  0.00  0.00    -0.089 HD
ENDBRANCH   4  30
TORSDOF 4
ENDMDL
MODEL 3
REMARK VINA RESULT:     -11.1      6.755     10.907
REMARK  Name = 11538992
REMARK  4 active torsions:
REMARK  status: ('A' for Active; 'I' for Inactive)
REMARK    1  A    between atoms: C_1  and  N_7
REMARK    2  A    between atoms: C_3  and  C_24
REMARK    3  A    between atoms: C_4  and  N_30
REMARK    4  A    between atoms: C_15  and  C_20
REMARK                            x       y       z     vdW  Elec       q    Type
REMARK                         _______ _______ _______ _____ _____    ______ ____
ROOT
ATOM      1  C   UNL     1      33.606 -12.313 -24.730  0.00  0.00    -0.059 C 
ATOM      2  C   UNL     1      34.580 -11.533 -25.619  0.00  0.00    -0.042 C 
ATOM      3  C   UNL     1      33.939  -9.376 -24.430  0.00  0.00    +0.005 C 
ATOM      4  C   UNL     1      34.130 -10.074 -25.801  0.00  0.00    -0.064 C 
ATOM      5  C   UNL     1      33.436 -11.630 -23.371  0.00  0.00    -0.021 C 
ATOM      6  C   UNL     1      32.979 -10.182 -23.533  0.00  0.00    +0.000 C 
ENDROOT
BRANCH   1   7
ATOM      7  N   UNL     1      34.093 -13.679 -24.540  0.00  0.00    +0.394 N 
ATOM      8  N   UNL     1      34.309 -16.366 -23.844  0.00  0.00    -0.299 N 
ATOM      9  N   UNL     1      33.340 -17.149 -25.634  0.00  0.00    -0.136 NA
ATOM     10  N   UNL     1      33.877 -18.207 -24.917  0.00  0.00    -0.125 NA
ATOM     11  C   UNL     1      34.150 -14.020 -23.106  0.00  0.00    -0.052 C 
ATOM     12  C   UNL     1      33.244 -14.637 -25.278  0.00  0.00    -0.009 C 
ATOM     13  C   UNL     1      34.812 -15.391 -22.905  0.00  0.00    +0.086 C 
ATOM     14  C   UNL     1      33.614 -16.044 -24.974  0.00  0.00    +0.122 A 
ATOM     15  C   UNL     1      34.457 -17.712 -23.845  0.00  0.00    +0.238 A 
ATOM     16  H   UNL     1      35.042 -13.738 -24.913  0.00  0.00    -0.079 HD
BRANCH  15  20
ATOM     17  F   UNL     1      36.537 -18.324 -22.834  0.00  0.00    -0.163 F 
ATOM     18  F   UNL     1      34.831 -18.096 -21.514  0.00  0.00    -0.163 F 
ATOM     19  F   UNL     1      34.952 -19.811 -22.845  0.00  0.00    -0.163 F 
ATOM     20  C   UNL     1      35.171 -18.458 -22.795  0.00  0.00    +0.452 C 
ENDBRANCH  15  20
ENDBRANCH   1   7
BRANCH   3  24
ATOM     21  F   UNL     1      35.555  -7.141 -23.759  0.00  0.00    -0.204 F 
ATOM     22  F   UNL     1      30.499  -6.095 -25.565  0.00  0.00    -0.202 F 
ATOM     23  F   UNL     1      32.164  -4.038 -24.884  0.00  0.00    -0.202 F 
ATOM     24  C   UNL     1      33.462  -7.935 -24.551  0.00  0.00    +0.005 C 
ATOM     25  C   UNL     1      34.314  -6.892 -24.202  0.00  0.00    +0.138 C 
ATOM     26  C   UNL     1      32.176  -7.673 -25.011  0.00  0.00    +0.030 C 
ATOM     27  C   UNL     1      31.736  -6.354 -25.123  0.00  0.00    +0.167 C 
ATOM     28  C   UNL     1      33.874  -5.573 -24.315  0.00  0.00    +0.061 C 
ATOM     29  C   UNL     1      32.586  -5.304 -24.774  0.00  0.00    +0.170 C 
ENDBRANCH   3  24
BRANCH   4  30
ATOM     30  N   UNL     1      35.117  -9.358 -26.616  0.00  0.00    +0.382 N 
ATOM     31  H   UNL     1      34.706  -9.125 -27.519  0.00  0.00    -0.089 HD
ATOM     32  H   UNL     1      35.935  -9.949 -26.756  0.00  0.00    -0.089 HD
ATOM     33  H   UNL     1      35.395  -8.500 -26.137  0.00  0.00    -0.089 HD
ENDBRANCH   4  30
TORSDOF 4
ENDMDL
MODEL 4
REMARK VINA RESULT:     -10.5      6.870     10.930
REMARK  Name = 11538992
REMARK  4 active torsions:
REMARK  status: ('A' for Active; 'I' for Inactive)
REMARK    1  A    between atoms: C_1  and  N_7
REMARK    2  A    between atoms: C_3  and  C_24
REMARK    3  A    between atoms: C_4  and  N_30
REMARK    4  A    between atoms: C_15  and  C_20
REMARK                            x       y       z     vdW  Elec       q    Type
REMARK                         _______ _______ _______ _____ _____    ______ ____
ROOT
ATOM      1  C   UNL     1      34.234 -12.075 -23.612  0.00  0.00    -0.059 C 
ATOM      2  C   UNL     1      32.801 -11.874 -23.111  0.00  0.00    -0.042 C 
ATOM      3  C   UNL     1      32.696  -9.632 -24.313  0.00  0.00    +0.005 C 
ATOM      4  C   UNL     1      32.458 -10.380 -22.975  0.00  0.00    -0.064 C 
ATOM      5  C   UNL     1      34.458 -11.350 -24.942  0.00  0.00    -0.021 C 
ATOM      6  C   UNL     1      34.131  -9.863 -24.823  0.00  0.00    +0.000 C 
ENDROOT
BRANCH   1   7
ATOM      7  N   UNL     1      34.506 -13.503 -23.776  0.00  0.00    +0.394 N 
ATOM      8  N   UNL     1      34.283 -16.278 -23.819  0.00  0.00    -0.299 N 
ATOM      9  N   UNL     1      33.358 -16.407 -25.791  0.00  0.00    -0.136 NA
ATOM     10  N   UNL     1      33.681 -17.685 -25.363  0.00  0.00    -0.125 NA
ATOM     11  C   UNL     1      34.400 -14.208 -22.485  0.00  0.00    -0.052 C 
ATOM     12  C   UNL     1      33.591 -14.090 -24.777  0.00  0.00    -0.009 C 
ATOM     13  C   UNL     1      34.843 -15.672 -22.634  0.00  0.00    +0.086 C 
ATOM     14  C   UNL     1      33.733 -15.568 -24.847  0.00  0.00    +0.122 A 
ATOM     15  C   UNL     1      34.238 -17.583 -24.175  0.00  0.00    +0.238 A 
ATOM     16  H   UNL     1      35.463 -13.612 -24.114  0.00  0.00    -0.079 HD
BRANCH  15  20
ATOM     17  F   UNL     1      36.054 -18.516 -22.929  0.00  0.00    -0.163 F 
ATOM     18  F   UNL     1      34.054 -18.875 -22.171  0.00  0.00    -0.163 F 
ATOM     19  F   UNL     1      34.734 -19.899 -23.965  0.00  0.00    -0.163 F 
ATOM     20  C   UNL     1      34.753 -18.679 -23.337  0.00  0.00    +0.452 C 
ENDBRANCH  15  20
ENDBRANCH   1   7
BRANCH   3  24
ATOM     21  F   UNL     1      31.373  -8.187 -26.366  0.00  0.00    -0.204 F 
ATOM     22  F   UNL     1      32.886  -5.370 -21.929  0.00  0.00    -0.202 F 
ATOM     23  F   UNL     1      31.603  -4.104 -23.983  0.00  0.00    -0.202 F 
ATOM     24  C   UNL     1      32.400  -8.140 -24.227  0.00  0.00    +0.005 C 
ATOM     25  C   UNL     1      31.747  -7.502 -25.276  0.00  0.00    +0.138 C 
ATOM     26  C   UNL     1      32.786  -7.428 -23.096  0.00  0.00    +0.030 C 
ATOM     27  C   UNL     1      32.517  -6.062 -23.014  0.00  0.00    +0.167 C 
ATOM     28  C   UNL     1      31.478  -6.136 -25.194  0.00  0.00    +0.061 C 
ATOM     29  C   UNL     1      31.863  -5.416 -24.064  0.00  0.00    +0.170 C 
ENDBRANCH   3  24
BRANCH   4  30
ATOM     30  N   UNL     1      31.064 -10.238 -22.541  0.00  0.00    +0.382 N 
ATOM     31  H   UNL     1      30.476 -10.880 -23.073  0.00  0.00    -0.089 HD
ATOM     32  H   UNL     1      30.754  -9.280 -22.702  0.00  0.00    -0.089 HD
ATOM     33  H   UNL     1      30.993 -10.457 -21.547  0.00  0.00    -0.089 HD
ENDBRANCH   4  30
TORSDOF 4
ENDMDL
MODEL 5
REMARK VINA RESULT:     -10.5      1.458      1.834
REMARK  Name = 11538992
REMARK  4 active torsions:
REMARK  status: ('A' for Active; 'I' for Inactive)
REMARK    1  A    between atoms: C_1  and  N_7
REMARK    2  A    between atoms: C_3  and  C_24
REMARK    3  A    between atoms: C_4  and  N_30
REMARK    4  A    between atoms: C_15  and  C_20
REMARK                            x       y       z     vdW  Elec       q    Type
REMARK                         _______ _______ _______ _____ _____    ______ ____
ROOT
ATOM      1  C   UNL     1      35.764 -21.109 -18.879  0.00  0.00    -0.059 C 
ATOM      2  C   UNL     1      34.425 -21.344 -19.587  0.00  0.00    -0.042 C 
ATOM      3  C   UNL     1      35.252 -20.013 -21.593  0.00  0.00    +0.005 C 
ATOM      4  C   UNL     1      34.102 -20.207 -20.571  0.00  0.00    -0.064 C 
ATOM      5  C   UNL     1      36.898 -20.936 -19.893  0.00  0.00    -0.021 C 
ATOM      6  C   UNL     1      36.598 -19.804 -20.872  0.00  0.00    +0.000 C 
ENDROOT
BRANCH   1   7
ATOM      7  N   UNL     1      36.061 -22.233 -17.992  0.00  0.00    +0.394 N 
ATOM      8  N   UNL     1      36.400 -23.852 -15.752  0.00  0.00    -0.299 N 
ATOM      9  N   UNL     1      34.334 -24.544 -15.651  0.00  0.00    -0.136 NA
ATOM     10  N   UNL     1      35.093 -25.269 -14.746  0.00  0.00    -0.125 NA
ATOM     11  C   UNL     1      37.129 -21.880 -17.038  0.00  0.00    -0.052 C 
ATOM     12  C   UNL     1      34.839 -22.664 -17.281  0.00  0.00    -0.009 C 
ATOM     13  C   UNL     1      37.547 -23.110 -16.220  0.00  0.00    +0.086 C 
ATOM     14  C   UNL     1      35.139 -23.696 -16.253  0.00  0.00    +0.122 A 
ATOM     15  C   UNL     1      36.334 -24.836 -14.826  0.00  0.00    +0.238 A 
ATOM     16  H   UNL     1      36.393 -23.013 -18.559  0.00  0.00    -0.079 HD
BRANCH  15  20
ATOM     17  F   UNL     1      38.497 -25.857 -14.831  0.00  0.00    -0.163 F 
ATOM     18  F   UNL     1      38.123 -24.352 -13.315  0.00  0.00    -0.163 F 
ATOM     19  F   UNL     1      37.181 -26.306 -13.160  0.00  0.00    -0.163 F 
ATOM     20  C   UNL     1      37.495 -25.320 -14.061  0.00  0.00    +0.452 C 
ENDBRANCH  15  20
ENDBRANCH   1   7
BRANCH   3  24
ATOM     21  F   UNL     1      34.672 -20.429 -24.340  0.00  0.00    -0.204 F 
ATOM     22  F   UNL     1      34.853 -15.247 -22.600  0.00  0.00    -0.202 F 
ATOM     23  F   UNL     1      34.306 -15.794 -25.221  0.00  0.00    -0.202 F 
ATOM     24  C   UNL     1      34.997 -18.876 -22.574  0.00  0.00    +0.005 C 
ATOM     25  C   UNL     1      34.718 -19.161 -23.907  0.00  0.00    +0.138 C 
ATOM     26  C   UNL     1      35.043 -17.560 -22.128  0.00  0.00    +0.030 C 
ATOM     27  C   UNL     1      34.810 -16.516 -23.023  0.00  0.00    +0.167 C 
ATOM     28  C   UNL     1      34.485 -18.118 -24.803  0.00  0.00    +0.061 C 
ATOM     29  C   UNL     1      34.531 -16.796 -24.362  0.00  0.00    +0.170 C 
ENDBRANCH   3  24
BRANCH   4  30
ATOM     30  N   UNL     1      32.840 -20.502 -21.257  0.00  0.00    +0.382 N 
ATOM     31  H   UNL     1      32.869 -20.117 -22.201  0.00  0.00    -0.089 HD
ATOM     32  H   UNL     1      32.067 -20.081 -20.743  0.00  0.00    -0.089 HD
ATOM     33  H   UNL     1      32.707 -21.512 -21.306  0.00  0.00    -0.089 HD
ENDBRANCH   4  30
TORSDOF 4
ENDMDL
MODEL 6
REMARK VINA RESULT:     -10.4      7.001     11.117
REMARK  Name = 11538992
REMARK  4 active torsions:
REMARK  status: ('A' for Active; 'I' for Inactive)
REMARK    1  A    between atoms: C_1  and  N_7
REMARK    2  A    between atoms: C_3  and  C_24
REMARK    3  A    between atoms: C_4  and  N_30
REMARK    4  A    between atoms: C_15  and  C_20
REMARK                            x       y       z     vdW  Elec       q    Type
REMARK                         _______ _______ _______ _____ _____    ______ ____
ROOT
ATOM      1  C   UNL     1      34.214 -11.943 -23.556  0.00  0.00    -0.059 C 
ATOM      2  C   UNL     1      32.764 -11.735 -23.105  0.00  0.00    -0.042 C 
ATOM      3  C   UNL     1      32.746  -9.444 -24.214  0.00  0.00    +0.005 C 
ATOM      4  C   UNL     1      32.441 -10.243 -22.921  0.00  0.00    -0.064 C 
ATOM      5  C   UNL     1      34.505 -11.167 -24.843  0.00  0.00    -0.021 C 
ATOM      6  C   UNL     1      34.198  -9.680 -24.675  0.00  0.00    +0.000 C 
ENDROOT
BRANCH   1   7
ATOM      7  N   UNL     1      34.468 -13.367 -23.769  0.00  0.00    +0.394 N 
ATOM      8  N   UNL     1      34.216 -16.137 -23.896  0.00  0.00    -0.299 N 
ATOM      9  N   UNL     1      33.260 -16.194 -25.856  0.00  0.00    -0.136 NA
ATOM     10  N   UNL     1      33.576 -17.488 -25.474  0.00  0.00    -0.125 NA
ATOM     11  C   UNL     1      34.375 -14.112 -22.500  0.00  0.00    -0.052 C 
ATOM     12  C   UNL     1      33.532 -13.913 -24.773  0.00  0.00    -0.009 C 
ATOM     13  C   UNL     1      34.800 -15.574 -22.701  0.00  0.00    +0.086 C 
ATOM     14  C   UNL     1      33.657 -15.389 -24.893  0.00  0.00    +0.122 A 
ATOM     15  C   UNL     1      34.152 -17.429 -24.293  0.00  0.00    +0.238 A 
ATOM     16  H   UNL     1      35.419 -13.475 -24.125  0.00  0.00    -0.079 HD
BRANCH  15  20
ATOM     17  F   UNL     1      36.001 -18.460 -23.178  0.00  0.00    -0.163 F 
ATOM     18  F   UNL     1      34.041 -18.729 -22.287  0.00  0.00    -0.163 F 
ATOM     19  F   UNL     1      34.548 -19.768 -24.130  0.00  0.00    -0.163 F 
ATOM     20  C   UNL     1      34.669 -18.556 -23.498  0.00  0.00    +0.452 C 
ENDBRANCH  15  20
ENDBRANCH   1   7
BRANCH   3  24
ATOM     21  F   UNL     1      34.093  -7.779 -22.352  0.00  0.00    -0.204 F 
ATOM     22  F   UNL     1      30.353  -5.399 -25.555  0.00  0.00    -0.202 F 
ATOM     23  F   UNL     1      31.726  -3.915 -23.716  0.00  0.00    -0.202 F 
ATOM     24  C   UNL     1      32.473  -7.952 -24.077  0.00  0.00    +0.005 C 
ATOM     25  C   UNL     1      33.175  -7.202 -23.139  0.00  0.00    +0.138 C 
ATOM     26  C   UNL     1      31.521  -7.350 -24.894  0.00  0.00    +0.030 C 
ATOM     27  C   UNL     1      31.268  -5.984 -24.771  0.00  0.00    +0.167 C 
ATOM     28  C   UNL     1      32.922  -5.836 -23.017  0.00  0.00    +0.061 C 
ATOM     29  C   UNL     1      31.969  -5.228 -23.832  0.00  0.00    +0.170 C 
ENDBRANCH   3  24
BRANCH   4  30
ATOM     30  N   UNL     1      31.033 -10.094 -22.538  0.00  0.00    +0.382 N 
ATOM     31  H   UNL     1      30.970  -9.925 -21.534  0.00  0.00    -0.089 HD
ATOM     32  H   UNL     1      30.525 -10.946 -22.772  0.00  0.00    -0.089 HD
ATOM     33  H   UNL     1      30.625  -9.306 -23.041  0.00  0.00    -0.089 HD
ENDBRANCH   4  30
TORSDOF 4
ENDMDL
MODEL 7
REMARK VINA RESULT:     -10.2      6.351     10.471
REMARK  Name = 11538992
REMARK  4 active torsions:
REMARK  status: ('A' for Active; 'I' for Inactive)
REMARK    1  A    between atoms: C_1  and  N_7
REMARK    2  A    between atoms: C_3  and  C_24
REMARK    3  A    between atoms: C_4  and  N_30
REMARK    4  A    between atoms: C_15  and  C_20
REMARK                            x       y       z     vdW  Elec       q    Type
REMARK                         _______ _______ _______ _____ _____    ______ ____
ROOT
ATOM      1  C   UNL     1      33.087 -12.600 -24.189  0.00  0.00    -0.059 C 
ATOM      2  C   UNL     1      34.277 -12.078 -25.001  0.00  0.00    -0.042 C 
ATOM      3  C   UNL     1      33.819  -9.720 -24.158  0.00  0.00    +0.005 C 
ATOM      4  C   UNL     1      34.081 -10.606 -25.403  0.00  0.00    -0.064 C 
ATOM      5  C   UNL     1      32.844 -11.732 -22.951  0.00  0.00    -0.021 C 
ATOM      6  C   UNL     1      32.638 -10.268 -23.333  0.00  0.00    +0.000 C 
ENDROOT
BRANCH   1   7
ATOM      7  N   UNL     1      33.332 -13.983 -23.782  0.00  0.00    +0.394 N 
ATOM      8  N   UNL     1      34.550 -16.373 -23.036  0.00  0.00    -0.299 N 
ATOM      9  N   UNL     1      34.693 -15.908 -20.910  0.00  0.00    -0.136 NA
ATOM     10  N   UNL     1      35.047 -17.234 -21.103  0.00  0.00    -0.125 NA
ATOM     11  C   UNL     1      34.144 -14.689 -24.790  0.00  0.00    -0.052 C 
ATOM     12  C   UNL     1      33.982 -14.023 -22.456  0.00  0.00    -0.009 C 
ATOM     13  C   UNL     1      34.261 -16.180 -24.438  0.00  0.00    +0.086 C 
ATOM     14  C   UNL     1      34.391 -15.404 -22.088  0.00  0.00    +0.122 A 
ATOM     15  C   UNL     1      34.952 -17.492 -22.390  0.00  0.00    +0.238 A 
ATOM     16  H   UNL     1      32.434 -14.463 -23.713  0.00  0.00    -0.079 HD
BRANCH  15  20
ATOM     17  F   UNL     1      34.312 -19.101 -24.041  0.00  0.00    -0.163 F 
ATOM     18  F   UNL     1      36.437 -18.840 -23.693  0.00  0.00    -0.163 F 
ATOM     19  F   UNL     1      35.210 -19.849 -22.207  0.00  0.00    -0.163 F 
ATOM     20  C   UNL     1      35.218 -18.775 -23.061  0.00  0.00    +0.452 C 
ENDBRANCH  15  20
ENDBRANCH   1   7
BRANCH   3  24
ATOM     21  F   UNL     1      35.806  -7.716 -23.856  0.00  0.00    -0.204 F 
ATOM     22  F   UNL     1      30.943  -6.117 -25.780  0.00  0.00    -0.202 F 
ATOM     23  F   UNL     1      32.949  -4.293 -25.439  0.00  0.00    -0.202 F 
ATOM     24  C   UNL     1      33.586  -8.255 -24.502  0.00  0.00    +0.005 C 
ATOM     25  C   UNL     1      34.612  -7.331 -24.326  0.00  0.00    +0.138 C 
ATOM     26  C   UNL     1      32.348  -7.852 -24.992  0.00  0.00    +0.030 C 
ATOM     27  C   UNL     1      32.132  -6.511 -25.309  0.00  0.00    +0.167 C 
ATOM     28  C   UNL     1      34.395  -5.990 -24.643  0.00  0.00    +0.061 C 
ATOM     29  C   UNL     1      33.156  -5.580 -25.133  0.00  0.00    +0.170 C 
ENDBRANCH   3  24
BRANCH   4  30
ATOM     30  N   UNL     1      35.264 -10.140 -26.134  0.00  0.00    +0.382 N 
ATOM     31  H   UNL     1      35.052  -9.254 -26.593  0.00  0.00    -0.089 HD
ATOM     32  H   UNL     1      35.525 -10.832 -26.835  0.00  0.00    -0.089 HD
ATOM     33  H   UNL     1      36.036 -10.008 -25.481  0.00  0.00    -0.089 HD
ENDBRANCH   4  30
TORSDOF 4
ENDMDL
MODEL 8
REMARK VINA RESULT:      -9.9      4.519     11.230
REMARK  Name = 11538992
REMARK  4 active torsions:
REMARK  status: ('A' for Active; 'I' for Inactive)
REMARK    1  A    between atoms: C_1  and  N_7
REMARK    2  A    between atoms: C_3  and  C_24
REMARK    3  A    between atoms: C_4  and  N_30
REMARK    4  A    between atoms: C_15  and  C_20
REMARK                            x       y       z     vdW  Elec       q    Type
REMARK                         _______ _______ _______ _____ _____    ______ ____
ROOT
ATOM      1  C   UNL     1      35.144 -16.248 -23.368  0.00  0.00    -0.059 C 
ATOM      2  C   UNL     1      34.518 -17.437 -24.103  0.00  0.00    -0.042 C 
ATOM      3  C   UNL     1      34.112 -18.602 -21.876  0.00  0.00    +0.005 C 
ATOM      4  C   UNL     1      34.689 -18.743 -23.308  0.00  0.00    -0.064 C 
ATOM      5  C   UNL     1      34.558 -16.102 -21.961  0.00  0.00    -0.021 C 
ATOM      6  C   UNL     1      34.728 -17.387 -21.154  0.00  0.00    +0.000 C 
ENDROOT
BRANCH   1   7
ATOM      7  N   UNL     1      34.917 -15.019 -24.128  0.00  0.00    +0.394 N 
ATOM      8  N   UNL     1      33.742 -12.805 -25.339  0.00  0.00    -0.299 N 
ATOM      9  N   UNL     1      33.856 -11.498 -23.596  0.00  0.00    -0.136 NA
ATOM     10  N   UNL     1      33.453 -10.750 -24.691  0.00  0.00    -0.125 NA
ATOM     11  C   UNL     1      33.978 -15.257 -25.240  0.00  0.00    -0.052 C 
ATOM     12  C   UNL     1      34.424 -13.947 -23.238  0.00  0.00    -0.009 C 
ATOM     13  C   UNL     1      33.870 -14.008 -26.128  0.00  0.00    +0.086 C 
ATOM     14  C   UNL     1      34.031 -12.737 -24.006  0.00  0.00    +0.122 A 
ATOM     15  C   UNL     1      33.393 -11.557 -25.729  0.00  0.00    +0.238 A 
ATOM     16  H   UNL     1      35.807 -14.719 -24.528  0.00  0.00    -0.079 HD
BRANCH  15  20
ATOM     17  F   UNL     1      34.072 -11.205 -27.996  0.00  0.00    -0.163 F 
ATOM     18  F   UNL     1      32.097 -12.045 -27.679  0.00  0.00    -0.163 F 
ATOM     19  F   UNL     1      32.472  -9.952 -27.222  0.00  0.00    -0.163 F 
ATOM     20  C   UNL     1      33.022 -11.204 -27.110  0.00  0.00    +0.452 C 
ENDBRANCH  15  20
ENDBRANCH   1   7
BRANCH   3  24
ATOM     21  F   UNL     1      31.929 -20.113 -20.874  0.00  0.00    -0.204 F 
ATOM     22  F   UNL     1      36.951 -21.902 -19.655  0.00  0.00    -0.202 F 
ATOM     23  F   UNL     1      34.757 -23.260 -18.755  0.00  0.00    -0.202 F 
ATOM     24  C   UNL     1      34.284 -19.859 -21.033  0.00  0.00    +0.005 C 
ATOM     25  C   UNL     1      33.162 -20.545 -20.578  0.00  0.00    +0.138 C 
ATOM     26  C   UNL     1      35.562 -20.311 -20.726  0.00  0.00    +0.030 C 
ATOM     27  C   UNL     1      35.723 -21.462 -19.954  0.00  0.00    +0.167 C 
ATOM     28  C   UNL     1      33.323 -21.696 -19.807  0.00  0.00    +0.061 C 
ATOM     29  C   UNL     1      34.603 -22.154 -19.495  0.00  0.00    +0.170 C 
ENDBRANCH   3  24
BRANCH   4  30
ATOM     30  N   UNL     1      34.032 -19.840 -24.027  0.00  0.00    +0.382 N 
ATOM     31  H   UNL     1      34.500 -20.719 -23.805  0.00  0.00    -0.089 HD
ATOM     32  H   UNL     1      34.088 -19.670 -25.031  0.00  0.00    -0.089 HD
ATOM     33  H   UNL     1      33.054 -19.894 -23.744  0.00  0.00    -0.089 HD
ENDBRANCH   4  30
TORSDOF 4
ENDMDL
MODEL 9
REMARK VINA RESULT:      -9.8      6.605      8.202
REMARK  Name = 11538992
REMARK  4 active torsions:
REMARK  status: ('A' for Active; 'I' for Inactive)
REMARK    1  A    between atoms: C_1  and  N_7
REMARK    2  A    between atoms: C_3  and  C_24
REMARK    3  A    between atoms: C_4  and  N_30
REMARK    4  A    between atoms: C_15  and  C_20
REMARK                            x       y       z     vdW  Elec       q    Type
REMARK                         _______ _______ _______ _____ _____    ______ ____
ROOT
ATOM      1  C   UNL     1      33.751 -23.598 -15.467  0.00  0.00    -0.059 C 
ATOM      2  C   UNL     1      32.830 -24.608 -14.775  0.00  0.00    -0.042 C 
ATOM      3  C   UNL     1      30.885 -23.823 -16.217  0.00  0.00    +0.005 C 
ATOM      4  C   UNL     1      31.368 -24.128 -14.776  0.00  0.00    -0.064 C 
ATOM      5  C   UNL     1      33.280 -23.314 -16.895  0.00  0.00    -0.021 C 
ATOM      6  C   UNL     1      31.832 -22.827 -16.914  0.00  0.00    +0.000 C 
ENDROOT
BRANCH   1   7
ATOM      7  N   UNL     1      35.121 -24.111 -15.491  0.00  0.00    +0.394 N 
ATOM      8  N   UNL     1      37.544 -25.292 -14.796  0.00  0.00    -0.299 N 
ATOM      9  N   UNL     1      36.957 -27.334 -15.288  0.00  0.00    -0.136 NA
ATOM     10  N   UNL     1      38.316 -27.312 -15.014  0.00  0.00    -0.125 NA
ATOM     11  C   UNL     1      35.949 -23.441 -14.471  0.00  0.00    -0.052 C 
ATOM     12  C   UNL     1      35.125 -25.576 -15.298  0.00  0.00    -0.009 C 
ATOM     13  C   UNL     1      37.419 -23.865 -14.608  0.00  0.00    +0.086 C 
ATOM     14  C   UNL     1      36.507 -26.104 -15.155  0.00  0.00    +0.122 A 
ATOM     15  C   UNL     1      38.647 -26.073 -14.723  0.00  0.00    +0.238 A 
ATOM     16  H   UNL     1      35.525 -23.907 -16.405  0.00  0.00    -0.079 HD
BRANCH  15  20
ATOM     17  F   UNL     1      40.018 -24.757 -13.269  0.00  0.00    -0.163 F 
ATOM     18  F   UNL     1      40.908 -26.550 -14.105  0.00  0.00    -0.163 F 
ATOM     19  F   UNL     1      40.559 -24.818 -15.374  0.00  0.00    -0.163 F 
ATOM     20  C   UNL     1      39.986 -25.568 -14.377  0.00  0.00    +0.452 C 
ENDBRANCH  15  20
ENDBRANCH   1   7
BRANCH   3  24
ATOM     21  F   UNL     1      29.652 -22.402 -14.091  0.00  0.00    -0.204 F 
ATOM     22  F   UNL     1      26.629 -23.292 -18.562  0.00  0.00    -0.202 F 
ATOM     23  F   UNL     1      25.569 -21.937 -16.438  0.00  0.00    -0.202 F 
ATOM     24  C   UNL     1      29.451 -23.313 -16.274  0.00  0.00    +0.005 C 
ATOM     25  C   UNL     1      28.917 -22.624 -15.190  0.00  0.00    +0.138 C 
ATOM     26  C   UNL     1      28.685 -23.541 -17.413  0.00  0.00    +0.030 C 
ATOM     27  C   UNL     1      27.371 -23.076 -17.468  0.00  0.00    +0.167 C 
ATOM     28  C   UNL     1      27.603 -22.159 -15.245  0.00  0.00    +0.061 C 
ATOM     29  C   UNL     1      26.831 -22.385 -16.384  0.00  0.00    +0.170 C 
ENDBRANCH   3  24
BRANCH   4  30
ATOM     30  N   UNL     1      30.521 -25.148 -14.149  0.00  0.00    +0.382 N 
ATOM     31  H   UNL     1      30.759 -25.227 -13.161  0.00  0.00    -0.089 HD
ATOM     32  H   UNL     1      30.673 -26.046 -14.608  0.00  0.00    -0.089 HD
ATOM     33  H   UNL     1      29.541 -24.880 -14.243  0.00  0.00    -0.089 HD
ENDBRANCH   4  30
TORSDOF 4
ENDMDL
