MODEL 1
REMARK VINA RESULT:     -11.8      0.000      0.000
REMARK  Name = 59568713
REMARK  8 active torsions:
REMARK  status: ('A' for Active; 'I' for Inactive)
REMARK    1  A    between atoms: N_1  and  C_9
REMARK    2  A    between atoms: N_2  and  C_24
REMARK    3  A    between atoms: C_9  and  C_10
REMARK    4  A    between atoms: C_10  and  C_13
REMARK    5  A    between atoms: C_10  and  O_22
REMARK    6  A    between atoms: C_24  and  C_25
REMARK    7  A    between atoms: C_25  and  C_28
REMARK    8  A    between atoms: C_25  and  O_37
REMARK                            x       y       z     vdW  Elec       q    Type
REMARK                         _______ _______ _______ _____ _____    ______ ____
ROOT
ATOM      1  N   UNL     1      33.966 -13.480 -23.977  0.00  0.00    +0.386 N 
ATOM      2  N   UNL     1      33.937 -16.362 -23.750  0.00  0.00    +0.386 N 
ATOM      3  C   UNL     1      33.929 -15.700 -25.061  0.00  0.00    -0.101 C 
ATOM      4  C   UNL     1      34.625 -15.527 -22.759  0.00  0.00    -0.101 C 
ATOM      5  C   UNL     1      33.279 -14.316 -24.968  0.00  0.00    -0.101 C 
ATOM      6  C   UNL     1      33.975 -14.142 -22.667  0.00  0.00    -0.101 C 
ATOM      7  H   UNL     1      34.932 -13.352 -24.278  0.00  0.00    -0.080 HD
ATOM      8  H   UNL     1      32.971 -16.489 -23.448  0.00  0.00    -0.080 HD
ENDROOT
BRANCH   1   9
ATOM      9  C   UNL     1      33.342 -12.161 -23.887  0.00  0.00    -0.043 C 
BRANCH   9  10
ATOM     10  C   UNL     1      33.811 -11.257 -25.035  0.00  0.00    +0.112 C 
BRANCH  10  13
ATOM     11  O   UNL     1      34.209  -5.224 -24.768  0.00  0.00    -0.440 OA
ATOM     12  O   UNL     1      32.689  -5.068 -23.030  0.00  0.00    -0.245 OA
ATOM     13  C   UNL     1      33.655  -9.793 -24.686  0.00  0.00    -0.002 C 
ATOM     14  C   UNL     1      34.372  -8.814 -25.381  0.00  0.00    -0.024 C 
ATOM     15  C   UNL     1      34.193  -7.491 -25.020  0.00  0.00    +0.023 C 
ATOM     16  C   UNL     1      32.776  -9.438 -23.649  0.00  0.00    -0.002 C 
ATOM     17  C   UNL     1      33.326  -7.157 -23.999  0.00  0.00    +0.075 C 
ATOM     18  C   UNL     1      32.603  -8.100 -23.293  0.00  0.00    +0.006 C 
ATOM     19  C   UNL     1      34.808  -6.271 -25.572  0.00  0.00    +0.235 C 
ATOM     20  C   UNL     1      35.309  -9.177 -26.483  0.00  0.00    +0.031 C 
ATOM     21  C   UNL     1      33.332  -5.711 -23.835  0.00  0.00    +0.341 C 
ENDBRANCH  10  13
BRANCH  10  22
ATOM     22  O   UNL     1      35.187 -11.502 -25.326  0.00  0.00    -0.382 OA
ATOM     23  H   UNL     1      35.608 -10.678 -25.616  0.00  0.00    +0.211 HD
ENDBRANCH  10  22
ENDBRANCH   9  10
ENDBRANCH   1   9
BRANCH   2  24
ATOM     24  C   UNL     1      34.558 -17.681 -23.839  0.00  0.00    -0.043 C 
BRANCH  24  25
ATOM     25  C   UNL     1      35.496 -17.924 -22.649  0.00  0.00    +0.112 C 
BRANCH  25  28
ATOM     26  O   UNL     1      34.968 -22.474 -18.694  0.00  0.00    -0.440 OA
ATOM     27  O   UNL     1      32.704 -22.737 -19.096  0.00  0.00    -0.245 OA
ATOM     28  C   UNL     1      34.997 -19.051 -21.771  0.00  0.00    -0.002 C 
ATOM     29  C   UNL     1      35.871 -19.728 -20.915  0.00  0.00    -0.024 C 
ATOM     30  C   UNL     1      35.363 -20.751 -20.136  0.00  0.00    +0.023 C 
ATOM     31  C   UNL     1      33.638 -19.405 -21.836  0.00  0.00    -0.002 C 
ATOM     32  C   UNL     1      34.027 -21.088 -20.209  0.00  0.00    +0.075 C 
ATOM     33  C   UNL     1      33.137 -20.439 -21.045  0.00  0.00    +0.006 C 
ATOM     34  C   UNL     1      36.043 -21.620 -19.160  0.00  0.00    +0.235 C 
ATOM     35  C   UNL     1      37.315 -19.364 -20.838  0.00  0.00    +0.031 C 
ATOM     36  C   UNL     1      33.769 -22.187 -19.291  0.00  0.00    +0.341 C 
ENDBRANCH  25  28
BRANCH  25  37
ATOM     37  O   UNL     1      36.803 -18.264 -23.111  0.00  0.00    -0.382 OA
ATOM     38  H   UNL     1      37.003 -19.182 -22.870  0.00  0.00    +0.211 HD
ENDBRANCH  25  37
ENDBRANCH  24  25
ENDBRANCH   2  24
TORSDOF 8
ENDMDL
MODEL 2
REMARK VINA RESULT:     -11.8      0.033     11.969
REMARK  Name = 59568713
REMARK  8 active torsions:
REMARK  status: ('A' for Active; 'I' for Inactive)
REMARK    1  A    between atoms: N_1  and  C_9
REMARK    2  A    between atoms: N_2  and  C_24
REMARK    3  A    between atoms: C_9  and  C_10
REMARK    4  A    between atoms: C_10  and  C_13
REMARK    5  A    between atoms: C_10  and  O_22
REMARK    6  A    between atoms: C_24  and  C_25
REMARK    7  A    between atoms: C_25  and  C_28
REMARK    8  A    between atoms: C_25  and  O_37
REMARK                            x       y       z     vdW  Elec       q    Type
REMARK                         _______ _______ _______ _____ _____    ______ ____
ROOT
ATOM      1  N   UNL     1      33.931 -16.342 -23.740  0.00  0.00    +0.386 N 
ATOM      2  N   UNL     1      33.972 -13.460 -23.976  0.00  0.00    +0.386 N 
ATOM      3  C   UNL     1      33.247 -14.294 -24.942  0.00  0.00    -0.101 C 
ATOM      4  C   UNL     1      34.018 -14.118 -22.665  0.00  0.00    -0.101 C 
ATOM      5  C   UNL     1      33.884 -15.683 -25.051  0.00  0.00    -0.101 C 
ATOM      6  C   UNL     1      34.655 -15.508 -22.774  0.00  0.00    -0.101 C 
ATOM      7  H   UNL     1      32.975 -16.463 -23.408  0.00  0.00    -0.080 HD
ATOM      8  H   UNL     1      34.929 -13.341 -24.309  0.00  0.00    -0.080 HD
ENDROOT
BRANCH   1   9
ATOM      9  C   UNL     1      34.542 -17.665 -23.846  0.00  0.00    -0.043 C 
BRANCH   9  10
ATOM     10  C   UNL     1      35.497 -17.920 -22.672  0.00  0.00    +0.112 C 
BRANCH  10  13
ATOM     11  O   UNL     1      35.003 -22.470 -18.713  0.00  0.00    -0.440 OA
ATOM     12  O   UNL     1      32.743 -22.755 -19.121  0.00  0.00    -0.245 OA
ATOM     13  C   UNL     1      35.007 -19.051 -21.794  0.00  0.00    -0.002 C 
ATOM     14  C   UNL     1      35.885 -19.717 -20.934  0.00  0.00    -0.024 C 
ATOM     15  C   UNL     1      35.385 -20.745 -20.155  0.00  0.00    +0.023 C 
ATOM     16  C   UNL     1      33.652 -19.417 -21.862  0.00  0.00    -0.002 C 
ATOM     17  C   UNL     1      34.052 -21.095 -20.233  0.00  0.00    +0.075 C 
ATOM     18  C   UNL     1      33.158 -20.456 -21.072  0.00  0.00    +0.006 C 
ATOM     19  C   UNL     1      36.071 -21.606 -19.176  0.00  0.00    +0.235 C 
ATOM     20  C   UNL     1      37.325 -19.339 -20.853  0.00  0.00    +0.031 C 
ATOM     21  C   UNL     1      33.803 -22.195 -19.314  0.00  0.00    +0.341 C 
ENDBRANCH  10  13
BRANCH  10  22
ATOM     22  O   UNL     1      36.795 -18.261 -23.156  0.00  0.00    -0.382 OA
ATOM     23  H   UNL     1      37.309 -17.452 -23.303  0.00  0.00    +0.211 HD
ENDBRANCH  10  22
ENDBRANCH   9  10
ENDBRANCH   1   9
BRANCH   2  24
ATOM     24  C   UNL     1      33.363 -12.137 -23.872  0.00  0.00    -0.043 C 
BRANCH  24  25
ATOM     25  C   UNL     1      33.816 -11.235 -25.026  0.00  0.00    +0.112 C 
BRANCH  25  28
ATOM     26  O   UNL     1      34.198  -5.200 -24.780  0.00  0.00    -0.440 OA
ATOM     27  O   UNL     1      32.691  -5.044 -23.030  0.00  0.00    -0.245 OA
ATOM     28  C   UNL     1      33.658  -9.770 -24.680  0.00  0.00    -0.002 C 
ATOM     29  C   UNL     1      34.367  -8.791 -25.383  0.00  0.00    -0.024 C 
ATOM     30  C   UNL     1      34.186  -7.468 -25.025  0.00  0.00    +0.023 C 
ATOM     31  C   UNL     1      32.786  -9.414 -23.636  0.00  0.00    -0.002 C 
ATOM     32  C   UNL     1      33.327  -7.132 -23.999  0.00  0.00    +0.075 C 
ATOM     33  C   UNL     1      32.612  -8.075 -23.284  0.00  0.00    +0.006 C 
ATOM     34  C   UNL     1      34.794  -6.248 -25.585  0.00  0.00    +0.235 C 
ATOM     35  C   UNL     1      35.296  -9.154 -26.491  0.00  0.00    +0.031 C 
ATOM     36  C   UNL     1      33.330  -5.687 -23.837  0.00  0.00    +0.341 C 
ENDBRANCH  25  28
BRANCH  25  37
ATOM     37  O   UNL     1      35.190 -11.475 -25.331  0.00  0.00    -0.382 OA
ATOM     38  H   UNL     1      35.465 -12.318 -24.938  0.00  0.00    +0.211 HD
ENDBRANCH  25  37
ENDBRANCH  24  25
ENDBRANCH   2  24
TORSDOF 8
ENDMDL
MODEL 3
REMARK VINA RESULT:     -11.7      1.398     12.005
REMARK  Name = 59568713
REMARK  8 active torsions:
REMARK  status: ('A' for Active; 'I' for Inactive)
REMARK    1  A    between atoms: N_1  and  C_9
REMARK    2  A    between atoms: N_2  and  C_24
REMARK    3  A    between atoms: C_9  and  C_10
REMARK    4  A    between atoms: C_10  and  C_13
REMARK    5  A    between atoms: C_10  and  O_22
REMARK    6  A    between atoms: C_24  and  C_25
REMARK    7  A    between atoms: C_25  and  C_28
REMARK    8  A    between atoms: C_25  and  O_37
REMARK                            x       y       z     vdW  Elec       q    Type
REMARK                         _______ _______ _______ _____ _____    ______ ____
ROOT
ATOM      1  N   UNL     1      34.659 -16.507 -23.995  0.00  0.00    +0.386 N 
ATOM      2  N   UNL     1      33.567 -13.832 -24.111  0.00  0.00    +0.386 N 
ATOM      3  C   UNL     1      34.606 -14.190 -23.137  0.00  0.00    -0.101 C 
ATOM      4  C   UNL     1      33.690 -14.657 -25.318  0.00  0.00    -0.101 C 
ATOM      5  C   UNL     1      34.537 -15.680 -22.788  0.00  0.00    -0.101 C 
ATOM      6  C   UNL     1      33.621 -16.148 -24.969  0.00  0.00    -0.101 C 
ATOM      7  H   UNL     1      35.570 -16.327 -24.416  0.00  0.00    -0.080 HD
ATOM      8  H   UNL     1      32.656 -14.013 -23.689  0.00  0.00    -0.080 HD
ENDROOT
BRANCH   1   9
ATOM      9  C   UNL     1      34.589 -17.928 -23.661  0.00  0.00    -0.043 C 
BRANCH   9  10
ATOM     10  C   UNL     1      35.548 -18.266 -22.513  0.00  0.00    +0.112 C 
BRANCH  10  13
ATOM     11  O   UNL     1      34.714 -22.668 -18.445  0.00  0.00    -0.440 OA
ATOM     12  O   UNL     1      32.437 -22.784 -18.840  0.00  0.00    -0.245 OA
ATOM     13  C   UNL     1      34.974 -19.334 -21.607  0.00  0.00    -0.002 C 
ATOM     14  C   UNL     1      35.801 -20.047 -20.734  0.00  0.00    -0.024 C 
ATOM     15  C   UNL     1      35.225 -21.013 -19.929  0.00  0.00    +0.023 C 
ATOM     16  C   UNL     1      33.595 -19.593 -21.663  0.00  0.00    -0.002 C 
ATOM     17  C   UNL     1      33.868 -21.259 -19.995  0.00  0.00    +0.075 C 
ATOM     18  C   UNL     1      33.024 -20.571 -20.847  0.00  0.00    +0.006 C 
ATOM     19  C   UNL     1      35.845 -21.903 -18.931  0.00  0.00    +0.235 C 
ATOM     20  C   UNL     1      37.267 -19.782 -20.665  0.00  0.00    +0.031 C 
ATOM     21  C   UNL     1      33.537 -22.314 -19.050  0.00  0.00    +0.341 C 
ENDBRANCH  10  13
BRANCH  10  22
ATOM     22  O   UNL     1      36.790 -18.740 -23.031  0.00  0.00    -0.382 OA
ATOM     23  H   UNL     1      36.623 -19.375 -23.744  0.00  0.00    +0.211 HD
ENDBRANCH  10  22
ENDBRANCH   9  10
ENDBRANCH   1   9
BRANCH   2  24
ATOM     24  C   UNL     1      33.635 -12.411 -24.444  0.00  0.00    -0.043 C 
BRANCH  24  25
ATOM     25  C   UNL     1      33.083 -11.555 -23.298  0.00  0.00    +0.112 C 
BRANCH  25  28
ATOM     26  O   UNL     1      30.894  -5.938 -23.834  0.00  0.00    -0.440 OA
ATOM     27  O   UNL     1      31.794  -5.646 -25.946  0.00  0.00    -0.245 OA
ATOM     28  C   UNL     1      32.710 -10.167 -23.773  0.00  0.00    -0.002 C 
ATOM     29  C   UNL     1      31.946  -9.318 -22.966  0.00  0.00    -0.024 C 
ATOM     30  C   UNL     1      31.634  -8.061 -23.449  0.00  0.00    +0.023 C 
ATOM     31  C   UNL     1      33.146  -9.750 -25.043  0.00  0.00    -0.002 C 
ATOM     32  C   UNL     1      32.068  -7.664 -24.697  0.00  0.00    +0.075 C 
ATOM     33  C   UNL     1      32.823  -8.479 -25.520  0.00  0.00    +0.006 C 
ATOM     34  C   UNL     1      30.856  -6.977 -22.824  0.00  0.00    +0.235 C 
ATOM     35  C   UNL     1      31.477  -9.749 -21.618  0.00  0.00    +0.031 C 
ATOM     36  C   UNL     1      31.599  -6.310 -24.949  0.00  0.00    +0.341 C 
ENDBRANCH  25  28
BRANCH  25  37
ATOM     37  O   UNL     1      31.917 -12.164 -22.743  0.00  0.00    -0.382 OA
ATOM     38  H   UNL     1      31.497 -11.550 -22.121  0.00  0.00    +0.211 HD
ENDBRANCH  25  37
ENDBRANCH  24  25
ENDBRANCH   2  24
TORSDOF 8
ENDMDL
MODEL 4
REMARK VINA RESULT:     -11.7      1.411      2.248
REMARK  Name = 59568713
REMARK  8 active torsions:
REMARK  status: ('A' for Active; 'I' for Inactive)
REMARK    1  A    between atoms: N_1  and  C_9
REMARK    2  A    between atoms: N_2  and  C_24
REMARK    3  A    between atoms: C_9  and  C_10
REMARK    4  A    between atoms: C_10  and  C_13
REMARK    5  A    between atoms: C_10  and  O_22
REMARK    6  A    between atoms: C_24  and  C_25
REMARK    7  A    between atoms: C_25  and  C_28
REMARK    8  A    between atoms: C_25  and  O_37
REMARK                            x       y       z     vdW  Elec       q    Type
REMARK                         _______ _______ _______ _____ _____    ______ ____
ROOT
ATOM      1  N   UNL     1      33.561 -13.823 -24.079  0.00  0.00    +0.386 N 
ATOM      2  N   UNL     1      34.652 -16.499 -23.974  0.00  0.00    +0.386 N 
ATOM      3  C   UNL     1      34.523 -15.680 -22.762  0.00  0.00    -0.101 C 
ATOM      4  C   UNL     1      33.619 -16.135 -24.951  0.00  0.00    -0.101 C 
ATOM      5  C   UNL     1      34.594 -14.187 -23.102  0.00  0.00    -0.101 C 
ATOM      6  C   UNL     1      33.690 -14.642 -25.290  0.00  0.00    -0.101 C 
ATOM      7  H   UNL     1      32.648 -14.005 -23.663  0.00  0.00    -0.080 HD
ATOM      8  H   UNL     1      35.566 -16.314 -24.390  0.00  0.00    -0.080 HD
ENDROOT
BRANCH   1   9
ATOM      9  C   UNL     1      33.633 -12.400 -24.404  0.00  0.00    -0.043 C 
BRANCH   9  10
ATOM     10  C   UNL     1      33.032 -11.551 -23.276  0.00  0.00    +0.112 C 
BRANCH  10  13
ATOM     11  O   UNL     1      30.900  -5.916 -23.838  0.00  0.00    -0.440 OA
ATOM     12  O   UNL     1      31.784  -5.651 -25.960  0.00  0.00    -0.245 OA
ATOM     13  C   UNL     1      32.671 -10.164 -23.759  0.00  0.00    -0.002 C 
ATOM     14  C   UNL     1      31.924  -9.301 -22.951  0.00  0.00    -0.024 C 
ATOM     15  C   UNL     1      31.620  -8.044 -23.442  0.00  0.00    +0.023 C 
ATOM     16  C   UNL     1      33.099  -9.762 -25.035  0.00  0.00    -0.002 C 
ATOM     17  C   UNL     1      32.047  -7.662 -24.698  0.00  0.00    +0.075 C 
ATOM     18  C   UNL     1      32.786  -8.492 -25.521  0.00  0.00    +0.006 C 
ATOM     19  C   UNL     1      30.860  -6.946 -22.818  0.00  0.00    +0.235 C 
ATOM     20  C   UNL     1      31.462  -9.715 -21.595  0.00  0.00    +0.031 C 
ATOM     21  C   UNL     1      31.590  -6.305 -24.955  0.00  0.00    +0.341 C 
ENDBRANCH  10  13
BRANCH  10  22
ATOM     22  O   UNL     1      31.851 -12.170 -22.768  0.00  0.00    -0.382 OA
ATOM     23  H   UNL     1      31.452 -11.600 -22.092  0.00  0.00    +0.211 HD
ENDBRANCH  10  22
ENDBRANCH   9  10
ENDBRANCH   1   9
BRANCH   2  24
ATOM     24  C   UNL     1      34.583 -17.921 -23.650  0.00  0.00    -0.043 C 
BRANCH  24  25
ATOM     25  C   UNL     1      35.547 -18.269 -22.509  0.00  0.00    +0.112 C 
BRANCH  25  28
ATOM     26  O   UNL     1      34.708 -22.673 -18.444  0.00  0.00    -0.440 OA
ATOM     27  O   UNL     1      32.429 -22.777 -18.829  0.00  0.00    -0.245 OA
ATOM     28  C   UNL     1      34.972 -19.335 -21.602  0.00  0.00    -0.002 C 
ATOM     29  C   UNL     1      35.798 -20.055 -20.734  0.00  0.00    -0.024 C 
ATOM     30  C   UNL     1      35.220 -21.018 -19.928  0.00  0.00    +0.023 C 
ATOM     31  C   UNL     1      33.589 -19.588 -21.652  0.00  0.00    -0.002 C 
ATOM     32  C   UNL     1      33.863 -21.257 -19.987  0.00  0.00    +0.075 C 
ATOM     33  C   UNL     1      33.018 -20.564 -20.834  0.00  0.00    +0.006 C 
ATOM     34  C   UNL     1      35.840 -21.913 -18.935  0.00  0.00    +0.235 C 
ATOM     35  C   UNL     1      37.265 -19.797 -20.671  0.00  0.00    +0.031 C 
ATOM     36  C   UNL     1      33.530 -22.312 -19.043  0.00  0.00    +0.341 C 
ENDBRANCH  25  28
BRANCH  25  37
ATOM     37  O   UNL     1      36.783 -18.751 -23.036  0.00  0.00    -0.382 OA
ATOM     38  H   UNL     1      37.037 -18.217 -23.804  0.00  0.00    +0.211 HD
ENDBRANCH  25  37
ENDBRANCH  24  25
ENDBRANCH   2  24
TORSDOF 8
ENDMDL
MODEL 5
REMARK VINA RESULT:     -11.3      2.646      4.676
REMARK  Name = 59568713
REMARK  8 active torsions:
REMARK  status: ('A' for Active; 'I' for Inactive)
REMARK    1  A    between atoms: N_1  and  C_9
REMARK    2  A    between atoms: N_2  and  C_24
REMARK    3  A    between atoms: C_9  and  C_10
REMARK    4  A    between atoms: C_10  and  C_13
REMARK    5  A    between atoms: C_10  and  O_22
REMARK    6  A    between atoms: C_24  and  C_25
REMARK    7  A    between atoms: C_25  and  C_28
REMARK    8  A    between atoms: C_25  and  O_37
REMARK                            x       y       z     vdW  Elec       q    Type
REMARK                         _______ _______ _______ _____ _____    ______ ____
ROOT
ATOM      1  N   UNL     1      31.534  -9.191 -22.557  0.00  0.00    +0.386 N 
ATOM      2  N   UNL     1      32.488 -11.918 -22.681  0.00  0.00    +0.386 N 
ATOM      3  C   UNL     1      31.237 -11.578 -21.991  0.00  0.00    -0.101 C 
ATOM      4  C   UNL     1      32.745 -10.971 -23.772  0.00  0.00    -0.101 C 
ATOM      5  C   UNL     1      31.277 -10.139 -21.466  0.00  0.00    -0.101 C 
ATOM      6  C   UNL     1      32.784  -9.531 -23.247  0.00  0.00    -0.101 C 
ATOM      7  H   UNL     1      30.769  -9.258 -23.227  0.00  0.00    -0.080 HD
ATOM      8  H   UNL     1      33.254 -11.850 -22.010  0.00  0.00    -0.080 HD
ENDROOT
BRANCH   1   9
ATOM      9  C   UNL     1      31.576  -7.820 -22.053  0.00  0.00    -0.043 C 
BRANCH   9  10
ATOM     10  C   UNL     1      33.004  -7.262 -22.108  0.00  0.00    +0.112 C 
BRANCH  10  13
ATOM     11  O   UNL     1      34.918  -4.178 -26.950  0.00  0.00    -0.440 OA
ATOM     12  O   UNL     1      33.171  -2.664 -26.841  0.00  0.00    -0.245 OA
ATOM     13  C   UNL     1      33.172  -6.278 -23.245  0.00  0.00    -0.002 C 
ATOM     14  C   UNL     1      34.249  -6.390 -24.130  0.00  0.00    -0.024 C 
ATOM     15  C   UNL     1      34.355  -5.463 -25.151  0.00  0.00    +0.023 C 
ATOM     16  C   UNL     1      32.225  -5.251 -23.392  0.00  0.00    -0.002 C 
ATOM     17  C   UNL     1      33.418  -4.458 -25.284  0.00  0.00    +0.075 C 
ATOM     18  C   UNL     1      32.343  -4.321 -24.425  0.00  0.00    +0.006 C 
ATOM     19  C   UNL     1      35.370  -5.342 -26.213  0.00  0.00    +0.235 C 
ATOM     20  C   UNL     1      35.261  -7.475 -23.985  0.00  0.00    +0.031 C 
ATOM     21  C   UNL     1      33.772  -3.636 -26.430  0.00  0.00    +0.341 C 
ENDBRANCH  10  13
BRANCH  10  22
ATOM     22  O   UNL     1      33.319  -6.592 -20.887  0.00  0.00    -0.382 OA
ATOM     23  H   UNL     1      33.446  -5.647 -21.060  0.00  0.00    +0.211 HD
ENDBRANCH  10  22
ENDBRANCH   9  10
ENDBRANCH   1   9
BRANCH   2  24
ATOM     24  C   UNL     1      32.448 -13.289 -23.183  0.00  0.00    -0.043 C 
BRANCH  24  25
ATOM     25  C   UNL     1      33.726 -13.622 -23.964  0.00  0.00    +0.112 C 
BRANCH  25  28
ATOM     26  O   UNL     1      35.392 -19.135 -22.106  0.00  0.00    -0.440 OA
ATOM     27  O   UNL     1      35.074 -20.080 -24.195  0.00  0.00    -0.245 OA
ATOM     28  C   UNL     1      34.069 -15.092 -23.865  0.00  0.00    -0.002 C 
ATOM     29  C   UNL     1      34.495 -15.645 -22.652  0.00  0.00    -0.024 C 
ATOM     30  C   UNL     1      34.796 -16.994 -22.618  0.00  0.00    +0.023 C 
ATOM     31  C   UNL     1      33.955 -15.891 -25.017  0.00  0.00    -0.002 C 
ATOM     32  C   UNL     1      34.679 -17.766 -23.755  0.00  0.00    +0.075 C 
ATOM     33  C   UNL     1      34.263 -17.251 -24.969  0.00  0.00    +0.006 C 
ATOM     34  C   UNL     1      35.260 -17.828 -21.495  0.00  0.00    +0.235 C 
ATOM     35  C   UNL     1      34.622 -14.809 -21.424  0.00  0.00    +0.031 C 
ATOM     36  C   UNL     1      35.058 -19.133 -23.435  0.00  0.00    +0.341 C 
ENDBRANCH  25  28
BRANCH  25  37
ATOM     37  O   UNL     1      33.560 -13.295 -25.344  0.00  0.00    -0.382 OA
ATOM     38  H   UNL     1      34.411 -13.383 -25.801  0.00  0.00    +0.211 HD
ENDBRANCH  25  37
ENDBRANCH  24  25
ENDBRANCH   2  24
TORSDOF 8
ENDMDL
MODEL 6
REMARK VINA RESULT:     -11.3      2.646     12.099
REMARK  Name = 59568713
REMARK  8 active torsions:
REMARK  status: ('A' for Active; 'I' for Inactive)
REMARK    1  A    between atoms: N_1  and  C_9
REMARK    2  A    between atoms: N_2  and  C_24
REMARK    3  A    between atoms: C_9  and  C_10
REMARK    4  A    between atoms: C_10  and  C_13
REMARK    5  A    between atoms: C_10  and  O_22
REMARK    6  A    between atoms: C_24  and  C_25
REMARK    7  A    between atoms: C_25  and  C_28
REMARK    8  A    between atoms: C_25  and  O_37
REMARK                            x       y       z     vdW  Elec       q    Type
REMARK                         _______ _______ _______ _____ _____    ______ ____
ROOT
ATOM      1  N   UNL     1      32.489 -11.908 -22.703  0.00  0.00    +0.386 N 
ATOM      2  N   UNL     1      31.547  -9.176 -22.594  0.00  0.00    +0.386 N 
ATOM      3  C   UNL     1      31.273 -10.122 -21.504  0.00  0.00    -0.101 C 
ATOM      4  C   UNL     1      32.803  -9.522 -23.269  0.00  0.00    -0.101 C 
ATOM      5  C   UNL     1      31.232 -11.561 -22.028  0.00  0.00    -0.101 C 
ATOM      6  C   UNL     1      32.763 -10.963 -23.792  0.00  0.00    -0.101 C 
ATOM      7  H   UNL     1      33.246 -11.844 -22.024  0.00  0.00    -0.080 HD
ATOM      8  H   UNL     1      30.789  -9.242 -23.274  0.00  0.00    -0.080 HD
ENDROOT
BRANCH   1   9
ATOM      9  C   UNL     1      32.446 -13.280 -23.205  0.00  0.00    -0.043 C 
BRANCH   9  10
ATOM     10  C   UNL     1      33.725 -13.616 -23.983  0.00  0.00    +0.112 C 
BRANCH  10  13
ATOM     11  O   UNL     1      35.388 -19.118 -22.090  0.00  0.00    -0.440 OA
ATOM     12  O   UNL     1      35.079 -20.074 -24.175  0.00  0.00    -0.245 OA
ATOM     13  C   UNL     1      34.070 -15.085 -23.875  0.00  0.00    -0.002 C 
ATOM     14  C   UNL     1      34.490 -15.631 -22.657  0.00  0.00    -0.024 C 
ATOM     15  C   UNL     1      34.793 -16.979 -22.615  0.00  0.00    +0.023 C 
ATOM     16  C   UNL     1      33.960 -15.889 -25.022  0.00  0.00    -0.002 C 
ATOM     17  C   UNL     1      34.681 -17.757 -23.750  0.00  0.00    +0.075 C 
ATOM     18  C   UNL     1      34.269 -17.248 -24.967  0.00  0.00    +0.006 C 
ATOM     19  C   UNL     1      35.252 -17.808 -21.485  0.00  0.00    +0.235 C 
ATOM     20  C   UNL     1      34.612 -14.789 -21.432  0.00  0.00    +0.031 C 
ATOM     21  C   UNL     1      35.060 -19.123 -23.420  0.00  0.00    +0.341 C 
ENDBRANCH  10  13
BRANCH  10  22
ATOM     22  O   UNL     1      33.562 -13.296 -25.364  0.00  0.00    -0.382 OA
ATOM     23  H   UNL     1      32.720 -13.656 -25.682  0.00  0.00    +0.211 HD
ENDBRANCH  10  22
ENDBRANCH   9  10
ENDBRANCH   1   9
BRANCH   2  24
ATOM     24  C   UNL     1      31.587  -7.804 -22.094  0.00  0.00    -0.043 C 
BRANCH  24  25
ATOM     25  C   UNL     1      33.015  -7.247 -22.143  0.00  0.00    +0.112 C 
BRANCH  25  28
ATOM     26  O   UNL     1      34.944  -4.167 -26.982  0.00  0.00    -0.440 OA
ATOM     27  O   UNL     1      33.202  -2.647 -26.874  0.00  0.00    -0.245 OA
ATOM     28  C   UNL     1      33.188  -6.263 -23.280  0.00  0.00    -0.002 C 
ATOM     29  C   UNL     1      34.265  -6.377 -24.163  0.00  0.00    -0.024 C 
ATOM     30  C   UNL     1      34.375  -5.450 -25.184  0.00  0.00    +0.023 C 
ATOM     31  C   UNL     1      32.243  -5.232 -23.427  0.00  0.00    -0.002 C 
ATOM     32  C   UNL     1      33.442  -4.443 -25.318  0.00  0.00    +0.075 C 
ATOM     33  C   UNL     1      32.366  -4.303 -24.461  0.00  0.00    +0.006 C 
ATOM     34  C   UNL     1      35.392  -5.331 -26.244  0.00  0.00    +0.235 C 
ATOM     35  C   UNL     1      35.274  -7.465 -24.017  0.00  0.00    +0.031 C 
ATOM     36  C   UNL     1      33.799  -3.621 -26.463  0.00  0.00    +0.341 C 
ENDBRANCH  25  28
BRANCH  25  37
ATOM     37  O   UNL     1      33.326  -6.576 -20.922  0.00  0.00    -0.382 OA
ATOM     38  H   UNL     1      34.277  -6.387 -20.891  0.00  0.00    +0.211 HD
ENDBRANCH  25  37
ENDBRANCH  24  25
ENDBRANCH   2  24
TORSDOF 8
ENDMDL
MODEL 7
REMARK VINA RESULT:     -11.3      2.540     12.141
REMARK  Name = 59568713
REMARK  8 active torsions:
REMARK  status: ('A' for Active; 'I' for Inactive)
REMARK    1  A    between atoms: N_1  and  C_9
REMARK    2  A    between atoms: N_2  and  C_24
REMARK    3  A    between atoms: C_9  and  C_10
REMARK    4  A    between atoms: C_10  and  C_13
REMARK    5  A    between atoms: C_10  and  O_22
REMARK    6  A    between atoms: C_24  and  C_25
REMARK    7  A    between atoms: C_25  and  C_28
REMARK    8  A    between atoms: C_25  and  O_37
REMARK                            x       y       z     vdW  Elec       q    Type
REMARK                         _______ _______ _______ _____ _____    ______ ____
ROOT
ATOM      1  N   UNL     1      34.626 -19.187 -21.694  0.00  0.00    +0.386 N 
ATOM      2  N   UNL     1      35.314 -17.406 -23.864  0.00  0.00    +0.386 N 
ATOM      3  C   UNL     1      34.588 -18.659 -24.107  0.00  0.00    -0.101 C 
ATOM      4  C   UNL     1      35.014 -16.892 -22.523  0.00  0.00    -0.101 C 
ATOM      5  C   UNL     1      34.925 -19.701 -23.036  0.00  0.00    -0.101 C 
ATOM      6  C   UNL     1      35.350 -17.934 -21.451  0.00  0.00    -0.101 C 
ATOM      7  H   UNL     1      33.626 -18.996 -21.639  0.00  0.00    -0.080 HD
ATOM      8  H   UNL     1      36.315 -17.599 -23.918  0.00  0.00    -0.080 HD
ENDROOT
BRANCH   1   9
ATOM      9  C   UNL     1      34.952 -20.182 -20.673  0.00  0.00    -0.043 C 
BRANCH   9  10
ATOM     10  C   UNL     1      33.820 -21.208 -20.531  0.00  0.00    +0.112 C 
BRANCH  10  13
ATOM     11  O   UNL     1      35.607 -23.763 -15.344  0.00  0.00    -0.440 OA
ATOM     12  O   UNL     1      33.472 -24.480 -14.808  0.00  0.00    -0.245 OA
ATOM     13  C   UNL     1      33.895 -21.934 -19.205  0.00  0.00    -0.002 C 
ATOM     14  C   UNL     1      35.115 -22.071 -18.535  0.00  0.00    -0.024 C 
ATOM     15  C   UNL     1      35.126 -22.745 -17.328  0.00  0.00    +0.023 C 
ATOM     16  C   UNL     1      32.714 -22.468 -18.663  0.00  0.00    -0.002 C 
ATOM     17  C   UNL     1      33.958 -23.265 -16.807  0.00  0.00    +0.075 C 
ATOM     18  C   UNL     1      32.737 -23.147 -17.444  0.00  0.00    +0.006 C 
ATOM     19  C   UNL     1      36.250 -23.034 -16.419  0.00  0.00    +0.235 C 
ATOM     20  C   UNL     1      36.375 -21.510 -19.100  0.00  0.00    +0.031 C 
ATOM     21  C   UNL     1      34.259 -23.916 -15.541  0.00  0.00    +0.341 C 
ENDBRANCH  10  13
BRANCH  10  22
ATOM     22  O   UNL     1      32.552 -20.560 -20.614  0.00  0.00    -0.382 OA
ATOM     23  H   UNL     1      32.425 -20.210 -21.509  0.00  0.00    +0.211 HD
ENDBRANCH  10  22
ENDBRANCH   9  10
ENDBRANCH   1   9
BRANCH   2  24
ATOM     24  C   UNL     1      34.991 -16.412 -24.885  0.00  0.00    -0.043 C 
BRANCH  24  25
ATOM     25  C   UNL     1      33.597 -15.819 -24.647  0.00  0.00    +0.112 C 
BRANCH  25  28
ATOM     26  O   UNL     1      33.302  -9.791 -24.190  0.00  0.00    -0.440 OA
ATOM     27  O   UNL     1      33.595  -9.472 -26.464  0.00  0.00    -0.245 OA
ATOM     28  C   UNL     1      33.576 -14.329 -24.913  0.00  0.00    -0.002 C 
ATOM     29  C   UNL     1      33.398 -13.420 -23.864  0.00  0.00    -0.024 C 
ATOM     30  C   UNL     1      33.387 -12.070 -24.163  0.00  0.00    +0.023 C 
ATOM     31  C   UNL     1      33.736 -13.877 -26.235  0.00  0.00    -0.002 C 
ATOM     32  C   UNL     1      33.545 -11.641 -25.464  0.00  0.00    +0.075 C 
ATOM     33  C   UNL     1      33.722 -12.512 -26.523  0.00  0.00    +0.006 C 
ATOM     34  C   UNL     1      33.222 -10.909 -23.271  0.00  0.00    +0.235 C 
ATOM     35  C   UNL     1      33.226 -13.886 -22.459  0.00  0.00    +0.031 C 
ATOM     36  C   UNL     1      33.492 -10.187 -25.489  0.00  0.00    +0.341 C 
ENDBRANCH  25  28
BRANCH  25  37
ATOM     37  O   UNL     1      32.642 -16.438 -25.509  0.00  0.00    -0.382 OA
ATOM     38  H   UNL     1      33.087 -16.749 -26.313  0.00  0.00    +0.211 HD
ENDBRANCH  25  37
ENDBRANCH  24  25
ENDBRANCH   2  24
TORSDOF 8
ENDMDL
MODEL 8
REMARK VINA RESULT:     -11.3      2.497      4.440
REMARK  Name = 59568713
REMARK  8 active torsions:
REMARK  status: ('A' for Active; 'I' for Inactive)
REMARK    1  A    between atoms: N_1  and  C_9
REMARK    2  A    between atoms: N_2  and  C_24
REMARK    3  A    between atoms: C_9  and  C_10
REMARK    4  A    between atoms: C_10  and  C_13
REMARK    5  A    between atoms: C_10  and  O_22
REMARK    6  A    between atoms: C_24  and  C_25
REMARK    7  A    between atoms: C_25  and  C_28
REMARK    8  A    between atoms: C_25  and  O_37
REMARK                            x       y       z     vdW  Elec       q    Type
REMARK                         _______ _______ _______ _____ _____    ______ ____
ROOT
ATOM      1  N   UNL     1      35.343 -17.294 -23.817  0.00  0.00    +0.386 N 
ATOM      2  N   UNL     1      34.622 -19.131 -21.704  0.00  0.00    +0.386 N 
ATOM      3  C   UNL     1      34.979 -19.612 -23.044  0.00  0.00    -0.101 C 
ATOM      4  C   UNL     1      35.310 -17.868 -21.413  0.00  0.00    -0.101 C 
ATOM      5  C   UNL     1      34.654 -18.558 -24.107  0.00  0.00    -0.101 C 
ATOM      6  C   UNL     1      34.987 -16.813 -22.476  0.00  0.00    -0.101 C 
ATOM      7  H   UNL     1      36.348 -17.463 -23.841  0.00  0.00    -0.080 HD
ATOM      8  H   UNL     1      33.616 -18.961 -21.681  0.00  0.00    -0.080 HD
ENDROOT
BRANCH   1   9
ATOM      9  C   UNL     1      35.029 -16.288 -24.829  0.00  0.00    -0.043 C 
BRANCH   9  10
ATOM     10  C   UNL     1      33.623 -15.714 -24.611  0.00  0.00    +0.112 C 
BRANCH  10  13
ATOM     11  O   UNL     1      33.215  -9.696 -24.121  0.00  0.00    -0.440 OA
ATOM     12  O   UNL     1      33.583  -9.354 -26.380  0.00  0.00    -0.245 OA
ATOM     13  C   UNL     1      33.588 -14.223 -24.866  0.00  0.00    -0.002 C 
ATOM     14  C   UNL     1      33.360 -13.326 -23.817  0.00  0.00    -0.024 C 
ATOM     15  C   UNL     1      33.336 -11.974 -24.106  0.00  0.00    +0.023 C 
ATOM     16  C   UNL     1      33.787 -13.759 -26.177  0.00  0.00    -0.002 C 
ATOM     17  C   UNL     1      33.533 -11.532 -25.399  0.00  0.00    +0.075 C 
ATOM     18  C   UNL     1      33.761 -12.392 -26.457  0.00  0.00    +0.006 C 
ATOM     19  C   UNL     1      33.122 -10.822 -23.212  0.00  0.00    +0.235 C 
ATOM     20  C   UNL     1      33.146 -13.805 -22.421  0.00  0.00    +0.031 C 
ATOM     21  C   UNL     1      33.457 -10.079 -25.413  0.00  0.00    +0.341 C 
ENDBRANCH  10  13
BRANCH  10  22
ATOM     22  O   UNL     1      32.692 -16.340 -25.493  0.00  0.00    -0.382 OA
ATOM     23  H   UNL     1      31.791 -16.203 -25.162  0.00  0.00    +0.211 HD
ENDBRANCH  10  22
ENDBRANCH   9  10
ENDBRANCH   1   9
BRANCH   2  24
ATOM     24  C   UNL     1      34.932 -20.137 -20.691  0.00  0.00    -0.043 C 
BRANCH  24  25
ATOM     25  C   UNL     1      33.791 -21.154 -20.563  0.00  0.00    +0.112 C 
BRANCH  25  28
ATOM     26  O   UNL     1      35.528 -23.794 -15.402  0.00  0.00    -0.440 OA
ATOM     27  O   UNL     1      33.378 -24.459 -14.864  0.00  0.00    -0.245 OA
ATOM     28  C   UNL     1      33.851 -21.892 -19.243  0.00  0.00    -0.002 C 
ATOM     29  C   UNL     1      35.069 -22.066 -18.579  0.00  0.00    -0.024 C 
ATOM     30  C   UNL     1      35.067 -22.749 -17.376  0.00  0.00    +0.023 C 
ATOM     31  C   UNL     1      32.658 -22.400 -18.700  0.00  0.00    -0.002 C 
ATOM     32  C   UNL     1      33.889 -23.242 -16.855  0.00  0.00    +0.075 C 
ATOM     33  C   UNL     1      32.669 -23.088 -17.486  0.00  0.00    +0.006 C 
ATOM     34  C   UNL     1      36.186 -23.074 -16.475  0.00  0.00    +0.235 C 
ATOM     35  C   UNL     1      36.342 -21.534 -19.144  0.00  0.00    +0.031 C 
ATOM     36  C   UNL     1      34.176 -23.910 -15.595  0.00  0.00    +0.341 C 
ENDBRANCH  25  28
BRANCH  25  37
ATOM     37  O   UNL     1      32.528 -20.493 -20.648  0.00  0.00    -0.382 OA
ATOM     38  H   UNL     1      32.657 -19.593 -20.985  0.00  0.00    +0.211 HD
ENDBRANCH  25  37
ENDBRANCH  24  25
ENDBRANCH   2  24
TORSDOF 8
ENDMDL
MODEL 9
REMARK VINA RESULT:     -11.2      3.799      7.233
REMARK  Name = 59568713
REMARK  8 active torsions:
REMARK  status: ('A' for Active; 'I' for Inactive)
REMARK    1  A    between atoms: N_1  and  C_9
REMARK    2  A    between atoms: N_2  and  C_24
REMARK    3  A    between atoms: C_9  and  C_10
REMARK    4  A    between atoms: C_10  and  C_13
REMARK    5  A    between atoms: C_10  and  O_22
REMARK    6  A    between atoms: C_24  and  C_25
REMARK    7  A    between atoms: C_25  and  C_28
REMARK    8  A    between atoms: C_25  and  O_37
REMARK                            x       y       z     vdW  Elec       q    Type
REMARK                         _______ _______ _______ _____ _____    ______ ____
ROOT
ATOM      1  N   UNL     1      34.199 -19.699 -21.235  0.00  0.00    +0.386 N 
ATOM      2  N   UNL     1      33.323 -21.897 -19.574  0.00  0.00    +0.386 N 
ATOM      3  C   UNL     1      34.723 -21.453 -19.576  0.00  0.00    -0.101 C 
ATOM      4  C   UNL     1      32.429 -20.776 -19.888  0.00  0.00    -0.101 C 
ATOM      5  C   UNL     1      35.093 -20.820 -20.921  0.00  0.00    -0.101 C 
ATOM      6  C   UNL     1      32.800 -20.142 -21.233  0.00  0.00    -0.101 C 
ATOM      7  H   UNL     1      34.312 -18.987 -20.514  0.00  0.00    -0.080 HD
ATOM      8  H   UNL     1      33.211 -22.608 -20.297  0.00  0.00    -0.080 HD
ENDROOT
BRANCH   1   9
ATOM      9  C   UNL     1      34.552 -19.099 -22.521  0.00  0.00    -0.043 C 
BRANCH   9  10
ATOM     10  C   UNL     1      35.542 -17.943 -22.330  0.00  0.00    +0.112 C 
BRANCH  10  13
ATOM     11  O   UNL     1      32.965 -13.034 -24.755  0.00  0.00    -0.440 OA
ATOM     12  O   UNL     1      32.698 -11.997 -22.703  0.00  0.00    -0.245 OA
ATOM     13  C   UNL     1      34.883 -16.603 -22.571  0.00  0.00    -0.002 C 
ATOM     14  C   UNL     1      34.550 -16.194 -23.866  0.00  0.00    -0.024 C 
ATOM     15  C   UNL     1      33.950 -14.959 -24.029  0.00  0.00    +0.023 C 
ATOM     16  C   UNL     1      34.613 -15.777 -21.466  0.00  0.00    -0.002 C 
ATOM     17  C   UNL     1      33.691 -14.158 -22.935  0.00  0.00    +0.075 C 
ATOM     18  C   UNL     1      34.008 -14.533 -21.642  0.00  0.00    +0.006 C 
ATOM     19  C   UNL     1      33.498 -14.284 -25.259  0.00  0.00    +0.235 C 
ATOM     20  C   UNL     1      34.832 -17.060 -25.047  0.00  0.00    +0.031 C 
ATOM     21  C   UNL     1      33.062 -12.929 -23.393  0.00  0.00    +0.341 C 
ENDBRANCH  10  13
BRANCH  10  22
ATOM     22  O   UNL     1      36.063 -17.953 -21.002  0.00  0.00    -0.382 OA
ATOM     23  H   UNL     1      35.721 -18.724 -20.525  0.00  0.00    +0.211 HD
ENDBRANCH  10  22
ENDBRANCH   9  10
ENDBRANCH   1   9
BRANCH   2  24
ATOM     24  C   UNL     1      32.971 -22.499 -18.291  0.00  0.00    -0.043 C 
BRANCH  24  25
ATOM     25  C   UNL     1      33.917 -23.658 -17.953  0.00  0.00    +0.112 C 
BRANCH  25  28
ATOM     26  O   UNL     1      36.467 -23.223 -12.481  0.00  0.00    -0.440 OA
ATOM     27  O   UNL     1      34.645 -24.167 -11.411  0.00  0.00    -0.245 OA
ATOM     28  C   UNL     1      34.225 -23.708 -16.472  0.00  0.00    -0.002 C 
ATOM     29  C   UNL     1      35.444 -23.231 -15.980  0.00  0.00    -0.024 C 
ATOM     30  C   UNL     1      35.673 -23.302 -14.618  0.00  0.00    +0.023 C 
ATOM     31  C   UNL     1      33.260 -24.247 -15.601  0.00  0.00    -0.002 C 
ATOM     32  C   UNL     1      34.718 -23.833 -13.775  0.00  0.00    +0.075 C 
ATOM     33  C   UNL     1      33.504 -24.313 -14.229  0.00  0.00    +0.006 C 
ATOM     34  C   UNL     1      36.849 -22.880 -13.837  0.00  0.00    +0.235 C 
ATOM     35  C   UNL     1      36.475 -22.659 -16.892  0.00  0.00    +0.031 C 
ATOM     36  C   UNL     1      35.219 -23.785 -12.411  0.00  0.00    +0.341 C 
ENDBRANCH  25  28
BRANCH  25  37
ATOM     37  O   UNL     1      33.328 -24.903 -18.329  0.00  0.00    -0.382 OA
ATOM     38  H   UNL     1      33.299 -25.491 -17.559  0.00  0.00    +0.211 HD
ENDBRANCH  25  37
ENDBRANCH  24  25
ENDBRANCH   2  24
TORSDOF 8
ENDMDL
