MODEL 1
REMARK VINA RESULT:     -11.6      0.000      0.000
REMARK  Name = 23586145
REMARK  7 active torsions:
REMARK  status: ('A' for Active; 'I' for Inactive)
REMARK    1  A    between atoms: C_5  and  O_24
REMARK    2  A    between atoms: C_7  and  N_10
REMARK    3  A    between atoms: N_10  and  C_12
REMARK    4  A    between atoms: C_15  and  S_18
REMARK    5  A    between atoms: S_18  and  N_21
REMARK    6  A    between atoms: O_24  and  C_25
REMARK    7  A    between atoms: C_25  and  C_26
REMARK                            x       y       z     vdW  Elec       q    Type
REMARK                         _______ _______ _______ _____ _____    ______ ____
ROOT
ATOM      1  N   UNL     1      32.337 -23.514 -14.624  0.00  0.00    -0.299 NA
ATOM      2  N   UNL     1      31.359 -23.025 -16.766  0.00  0.00    -0.106 N 
ATOM      3  N   UNL     1      30.124 -22.794 -17.283  0.00  0.00    -0.139 NA
ATOM      4  N   UNL     1      29.970 -23.172 -15.043  0.00  0.00    -0.145 NA
ATOM      5  C   UNL     1      33.467 -23.531 -15.254  0.00  0.00    +0.291 C 
ATOM      6  C   UNL     1      33.702 -23.302 -16.696  0.00  0.00    +0.105 C 
ATOM      7  C   UNL     1      32.599 -23.049 -17.423  0.00  0.00    +0.142 C 
ATOM      8  C   UNL     1      31.239 -23.255 -15.390  0.00  0.00    +0.178 C 
ATOM      9  C   UNL     1      29.342 -22.894 -16.213  0.00  0.00    +0.230 C 
ENDROOT
BRANCH   7  10
ATOM     10  N   UNL     1      32.606 -22.811 -18.767  0.00  0.00    -0.299 N 
ATOM     11  H   UNL     1      31.979 -23.350 -19.302  0.00  0.00    +0.153 HD
BRANCH  10  12
ATOM     12  C   UNL     1      33.392 -21.901 -19.484  0.00  0.00    +0.049 C 
ATOM     13  C   UNL     1      32.790 -20.895 -20.250  0.00  0.00    +0.016 C 
ATOM     14  C   UNL     1      34.789 -21.987 -19.444  0.00  0.00    +0.016 C 
ATOM     15  C   UNL     1      34.965 -20.081 -20.919  0.00  0.00    +0.122 C 
ATOM     16  C   UNL     1      33.574 -19.988 -20.964  0.00  0.00    +0.021 C 
ATOM     17  C   UNL     1      35.573 -21.081 -20.158  0.00  0.00    +0.021 C 
BRANCH  15  18
ATOM     18  S   UNL     1      35.946 -18.946 -21.813  0.00  0.00    +0.057 S 
ATOM     19  O   UNL     1      37.315 -19.042 -21.328  0.00  0.00    -0.153 OA
ATOM     20  O   UNL     1      35.667 -19.113 -23.232  0.00  0.00    -0.153 OA
BRANCH  18  21
ATOM     21  N   UNL     1      35.279 -17.461 -21.293  0.00  0.00    -0.203 NA
ATOM     22  H   UNL     1      36.000 -16.741 -21.311  0.00  0.00    +0.144 HD
ATOM     23  H   UNL     1      34.922 -17.563 -20.344  0.00  0.00    +0.144 HD
ENDBRANCH  18  21
ENDBRANCH  15  18
ENDBRANCH  10  12
ENDBRANCH   7  10
BRANCH   5  24
ATOM     24  O   UNL     1      34.594 -23.776 -14.592  0.00  0.00    -0.451 OA
BRANCH  24  25
ATOM     25  C   UNL     1      35.762 -23.219 -15.164  0.00  0.00    +0.208 C 
BRANCH  25  26
ATOM     26  C   UNL     1      36.973 -23.722 -14.379  0.00  0.00    +0.044 C 
ATOM     27  C   UNL     1      36.631 -23.860 -12.889  0.00  0.00    +0.004 C 
ATOM     28  C   UNL     1      37.474 -25.055 -14.950  0.00  0.00    +0.004 C 
ATOM     29  C   UNL     1      37.811 -24.411 -12.089  0.00  0.00    +0.000 C 
ATOM     30  C   UNL     1      38.652 -25.605 -14.147  0.00  0.00    +0.000 C 
ATOM     31  C   UNL     1      38.312 -25.731 -12.666  0.00  0.00    +0.000 C 
ENDBRANCH  25  26
ENDBRANCH  24  25
ENDBRANCH   5  24
TORSDOF 7
ENDMDL
MODEL 2
REMARK VINA RESULT:     -11.5      3.449      7.182
REMARK  Name = 23586145
REMARK  7 active torsions:
REMARK  status: ('A' for Active; 'I' for Inactive)
REMARK    1  A    between atoms: C_5  and  O_24
REMARK    2  A    between atoms: C_7  and  N_10
REMARK    3  A    between atoms: N_10  and  C_12
REMARK    4  A    between atoms: C_15  and  S_18
REMARK    5  A    between atoms: S_18  and  N_21
REMARK    6  A    between atoms: O_24  and  C_25
REMARK    7  A    between atoms: C_25  and  C_26
REMARK                            x       y       z     vdW  Elec       q    Type
REMARK                         _______ _______ _______ _____ _____    ______ ____
ROOT
ATOM      1  N   UNL     1      31.302 -23.532 -16.528  0.00  0.00    -0.299 NA
ATOM      2  N   UNL     1      32.062 -24.533 -14.478  0.00  0.00    -0.106 N 
ATOM      3  N   UNL     1      31.518 -25.091 -13.365  0.00  0.00    -0.139 NA
ATOM      4  N   UNL     1      29.867 -24.417 -14.781  0.00  0.00    -0.145 NA
ATOM      5  C   UNL     1      32.557 -23.376 -16.802  0.00  0.00    +0.291 C 
ATOM      6  C   UNL     1      33.719 -23.767 -15.974  0.00  0.00    +0.105 C 
ATOM      7  C   UNL     1      33.415 -24.351 -14.801  0.00  0.00    +0.142 C 
ATOM      8  C   UNL     1      31.029 -24.127 -15.332  0.00  0.00    +0.178 C 
ATOM      9  C   UNL     1      30.215 -24.994 -13.603  0.00  0.00    +0.230 C 
ENDROOT
BRANCH   7  10
ATOM     10  N   UNL     1      34.344 -24.783 -13.899  0.00  0.00    -0.299 N 
ATOM     11  H   UNL     1      34.006 -24.976 -12.994  0.00  0.00    +0.153 HD
BRANCH  10  12
ATOM     12  C   UNL     1      35.715 -24.986 -14.093  0.00  0.00    +0.049 C 
ATOM     13  C   UNL     1      36.169 -26.018 -14.924  0.00  0.00    +0.016 C 
ATOM     14  C   UNL     1      36.650 -24.159 -13.457  0.00  0.00    +0.016 C 
ATOM     15  C   UNL     1      38.460 -25.390 -14.480  0.00  0.00    +0.122 C 
ATOM     16  C   UNL     1      37.536 -26.219 -15.116  0.00  0.00    +0.021 C 
ATOM     17  C   UNL     1      38.017 -24.360 -13.650  0.00  0.00    +0.021 C 
BRANCH  15  18
ATOM     18  S   UNL     1      40.171 -25.642 -14.721  0.00  0.00    +0.057 S 
ATOM     19  O   UNL     1      40.851 -24.366 -14.553  0.00  0.00    -0.153 OA
ATOM     20  O   UNL     1      40.585 -26.793 -13.930  0.00  0.00    -0.153 OA
BRANCH  18  21
ATOM     21  N   UNL     1      40.205 -26.073 -16.374  0.00  0.00    -0.203 NA
ATOM     22  H   UNL     1      39.934 -25.269 -16.940  0.00  0.00    +0.144 HD
ATOM     23  H   UNL     1      39.554 -26.840 -16.539  0.00  0.00    +0.144 HD
ENDBRANCH  18  21
ENDBRANCH  15  18
ENDBRANCH  10  12
ENDBRANCH   7  10
BRANCH   5  24
ATOM     24  O   UNL     1      32.923 -22.805 -17.946  0.00  0.00    -0.451 OA
BRANCH  24  25
ATOM     25  C   UNL     1      34.310 -22.844 -18.223  0.00  0.00    +0.208 C 
BRANCH  25  26
ATOM     26  C   UNL     1      34.562 -22.103 -19.535  0.00  0.00    +0.044 C 
ATOM     27  C   UNL     1      33.401 -21.149 -19.850  0.00  0.00    +0.004 C 
ATOM     28  C   UNL     1      35.894 -21.343 -19.481  0.00  0.00    +0.004 C 
ATOM     29  C   UNL     1      33.654 -20.357 -21.131  0.00  0.00    +0.000 C 
ATOM     30  C   UNL     1      36.143 -20.550 -20.763  0.00  0.00    +0.000 C 
ATOM     31  C   UNL     1      34.983 -19.611 -21.077  0.00  0.00    +0.000 C 
ENDBRANCH  25  26
ENDBRANCH  24  25
ENDBRANCH   5  24
TORSDOF 7
ENDMDL
MODEL 3
REMARK VINA RESULT:     -11.4      3.966      7.269
REMARK  Name = 23586145
REMARK  7 active torsions:
REMARK  status: ('A' for Active; 'I' for Inactive)
REMARK    1  A    between atoms: C_5  and  O_24
REMARK    2  A    between atoms: C_7  and  N_10
REMARK    3  A    between atoms: N_10  and  C_12
REMARK    4  A    between atoms: C_15  and  S_18
REMARK    5  A    between atoms: S_18  and  N_21
REMARK    6  A    between atoms: O_24  and  C_25
REMARK    7  A    between atoms: C_25  and  C_26
REMARK                            x       y       z     vdW  Elec       q    Type
REMARK                         _______ _______ _______ _____ _____    ______ ____
ROOT
ATOM      1  N   UNL     1      37.101 -23.503 -13.903  0.00  0.00    -0.299 NA
ATOM      2  N   UNL     1      35.194 -24.204 -12.615  0.00  0.00    -0.106 N 
ATOM      3  N   UNL     1      34.860 -24.353 -11.306  0.00  0.00    -0.139 NA
ATOM      4  N   UNL     1      37.001 -23.597 -11.479  0.00  0.00    -0.145 NA
ATOM      5  C   UNL     1      36.362 -23.738 -14.939  0.00  0.00    +0.291 C 
ATOM      6  C   UNL     1      34.966 -24.227 -14.964  0.00  0.00    +0.105 C 
ATOM      7  C   UNL     1      34.417 -24.450 -13.756  0.00  0.00    +0.142 C 
ATOM      8  C   UNL     1      36.513 -23.739 -12.695  0.00  0.00    +0.178 C 
ATOM      9  C   UNL     1      35.971 -23.978 -10.682  0.00  0.00    +0.230 C 
ENDROOT
BRANCH   7  10
ATOM     10  N   UNL     1      33.142 -24.902 -13.567  0.00  0.00    -0.299 N 
ATOM     11  H   UNL     1      33.031 -25.596 -12.878  0.00  0.00    +0.153 HD
BRANCH  10  12
ATOM     12  C   UNL     1      31.974 -24.506 -14.229  0.00  0.00    +0.049 C 
ATOM     13  C   UNL     1      30.909 -25.403 -14.383  0.00  0.00    +0.016 C 
ATOM     14  C   UNL     1      31.856 -23.209 -14.744  0.00  0.00    +0.016 C 
ATOM     15  C   UNL     1      29.636 -23.714 -15.553  0.00  0.00    +0.122 C 
ATOM     16  C   UNL     1      29.745 -25.008 -15.043  0.00  0.00    +0.021 C 
ATOM     17  C   UNL     1      30.692 -22.815 -15.404  0.00  0.00    +0.021 C 
BRANCH  15  18
ATOM     18  S   UNL     1      28.179 -23.221 -16.378  0.00  0.00    +0.057 S 
ATOM     19  O   UNL     1      27.142 -22.992 -15.382  0.00  0.00    -0.153 OA
ATOM     20  O   UNL     1      28.518 -22.167 -17.325  0.00  0.00    -0.153 OA
BRANCH  18  21
ATOM     21  N   UNL     1      27.803 -24.641 -17.251  0.00  0.00    -0.203 NA
ATOM     22  H   UNL     1      26.829 -24.894 -17.083  0.00  0.00    +0.144 HD
ATOM     23  H   UNL     1      28.409 -25.400 -16.942  0.00  0.00    +0.144 HD
ENDBRANCH  18  21
ENDBRANCH  15  18
ENDBRANCH  10  12
ENDBRANCH   7  10
BRANCH   5  24
ATOM     24  O   UNL     1      36.847 -23.538 -16.161  0.00  0.00    -0.451 OA
BRANCH  24  25
ATOM     25  C   UNL     1      36.670 -22.231 -16.674  0.00  0.00    +0.208 C 
BRANCH  25  26
ATOM     26  C   UNL     1      35.993 -22.335 -18.040  0.00  0.00    +0.044 C 
ATOM     27  C   UNL     1      34.469 -22.439 -17.882  0.00  0.00    +0.004 C 
ATOM     28  C   UNL     1      36.370 -21.140 -18.925  0.00  0.00    +0.004 C 
ATOM     29  C   UNL     1      33.765 -22.492 -19.236  0.00  0.00    +0.000 C 
ATOM     30  C   UNL     1      35.662 -21.195 -20.278  0.00  0.00    +0.000 C 
ATOM     31  C   UNL     1      34.150 -21.307 -20.116  0.00  0.00    +0.000 C 
ENDBRANCH  25  26
ENDBRANCH  24  25
ENDBRANCH   5  24
TORSDOF 7
ENDMDL
MODEL 4
REMARK VINA RESULT:     -10.0      3.227      7.888
REMARK  Name = 23586145
REMARK  7 active torsions:
REMARK  status: ('A' for Active; 'I' for Inactive)
REMARK    1  A    between atoms: C_5  and  O_24
REMARK    2  A    between atoms: C_7  and  N_10
REMARK    3  A    between atoms: N_10  and  C_12
REMARK    4  A    between atoms: C_15  and  S_18
REMARK    5  A    between atoms: S_18  and  N_21
REMARK    6  A    between atoms: O_24  and  C_25
REMARK    7  A    between atoms: C_25  and  C_26
REMARK                            x       y       z     vdW  Elec       q    Type
REMARK                         _______ _______ _______ _____ _____    ______ ____
ROOT
ATOM      1  N   UNL     1      31.970 -21.831 -18.788  0.00  0.00    -0.299 NA
ATOM      2  N   UNL     1      31.986 -23.437 -16.998  0.00  0.00    -0.106 N 
ATOM      3  N   UNL     1      31.124 -23.916 -16.063  0.00  0.00    -0.139 NA
ATOM      4  N   UNL     1      30.088 -22.342 -17.343  0.00  0.00    -0.145 NA
ATOM      5  C   UNL     1      33.204 -22.175 -18.975  0.00  0.00    +0.291 C 
ATOM      6  C   UNL     1      33.988 -23.176 -18.220  0.00  0.00    +0.105 C 
ATOM      7  C   UNL     1      33.325 -23.790 -17.224  0.00  0.00    +0.142 C 
ATOM      8  C   UNL     1      31.327 -22.473 -17.771  0.00  0.00    +0.178 C 
ATOM      9  C   UNL     1      30.015 -23.229 -16.318  0.00  0.00    +0.230 C 
ENDROOT
BRANCH   7  10
ATOM     10  N   UNL     1      33.873 -24.742 -16.413  0.00  0.00    -0.299 N 
ATOM     11  H   UNL     1      33.765 -25.674 -16.713  0.00  0.00    +0.153 HD
BRANCH  10  12
ATOM     12  C   UNL     1      34.566 -24.565 -15.210  0.00  0.00    +0.049 C 
ATOM     13  C   UNL     1      35.959 -24.417 -15.210  0.00  0.00    +0.016 C 
ATOM     14  C   UNL     1      33.875 -24.535 -13.993  0.00  0.00    +0.016 C 
ATOM     15  C   UNL     1      35.953 -24.212 -12.802  0.00  0.00    +0.122 C 
ATOM     16  C   UNL     1      36.649 -24.241 -14.011  0.00  0.00    +0.021 C 
ATOM     17  C   UNL     1      34.565 -24.358 -12.793  0.00  0.00    +0.021 C 
BRANCH  15  18
ATOM     18  S   UNL     1      36.817 -23.991 -11.302  0.00  0.00    +0.057 S 
ATOM     19  O   UNL     1      35.878 -24.158 -10.202  0.00  0.00    -0.153 OA
ATOM     20  O   UNL     1      38.031 -24.795 -11.344  0.00  0.00    -0.153 OA
BRANCH  18  21
ATOM     21  N   UNL     1      37.248 -22.342 -11.415  0.00  0.00    -0.203 NA
ATOM     22  H   UNL     1      38.137 -22.190 -10.938  0.00  0.00    +0.144 HD
ATOM     23  H   UNL     1      36.526 -21.771 -10.977  0.00  0.00    +0.144 HD
ENDBRANCH  18  21
ENDBRANCH  15  18
ENDBRANCH  10  12
ENDBRANCH   7  10
BRANCH   5  24
ATOM     24  O   UNL     1      33.914 -21.604 -19.943  0.00  0.00    -0.451 OA
BRANCH  24  25
ATOM     25  C   UNL     1      33.239 -20.597 -20.673  0.00  0.00    +0.208 C 
BRANCH  25  26
ATOM     26  C   UNL     1      34.266 -19.568 -21.143  0.00  0.00    +0.044 C 
ATOM     27  C   UNL     1      35.689 -20.024 -20.790  0.00  0.00    +0.004 C 
ATOM     28  C   UNL     1      34.131 -19.317 -22.650  0.00  0.00    +0.004 C 
ATOM     29  C   UNL     1      36.738 -19.036 -21.296  0.00  0.00    +0.000 C 
ATOM     30  C   UNL     1      35.184 -18.330 -23.153  0.00  0.00    +0.000 C 
ATOM     31  C   UNL     1      36.595 -18.782 -22.793  0.00  0.00    +0.000 C 
ENDBRANCH  25  26
ENDBRANCH  24  25
ENDBRANCH   5  24
TORSDOF 7
ENDMDL
MODEL 5
REMARK VINA RESULT:      -9.6      5.858     11.675
REMARK  Name = 23586145
REMARK  7 active torsions:
REMARK  status: ('A' for Active; 'I' for Inactive)
REMARK    1  A    between atoms: C_5  and  O_24
REMARK    2  A    between atoms: C_7  and  N_10
REMARK    3  A    between atoms: N_10  and  C_12
REMARK    4  A    between atoms: C_15  and  S_18
REMARK    5  A    between atoms: S_18  and  N_21
REMARK    6  A    between atoms: O_24  and  C_25
REMARK    7  A    between atoms: C_25  and  C_26
REMARK                            x       y       z     vdW  Elec       q    Type
REMARK                         _______ _______ _______ _____ _____    ______ ____
ROOT
ATOM      1  N   UNL     1      33.754 -14.605 -23.642  0.00  0.00    -0.299 NA
ATOM      2  N   UNL     1      34.672 -16.288 -22.190  0.00  0.00    -0.106 N 
ATOM      3  N   UNL     1      34.898 -16.462 -20.861  0.00  0.00    -0.139 NA
ATOM      4  N   UNL     1      33.942 -14.428 -21.227  0.00  0.00    -0.145 NA
ATOM      5  C   UNL     1      34.020 -15.429 -24.603  0.00  0.00    +0.291 C 
ATOM      6  C   UNL     1      34.634 -16.771 -24.500  0.00  0.00    +0.105 C 
ATOM      7  C   UNL     1      34.949 -17.162 -23.252  0.00  0.00    +0.142 C 
ATOM      8  C   UNL     1      34.086 -15.033 -22.389  0.00  0.00    +0.178 C 
ATOM      9  C   UNL     1      34.444 -15.326 -20.342  0.00  0.00    +0.230 C 
ENDROOT
BRANCH   7  10
ATOM     10  N   UNL     1      35.522 -18.364 -22.949  0.00  0.00    -0.299 N 
ATOM     11  H   UNL     1      36.343 -18.584 -23.445  0.00  0.00    +0.153 HD
BRANCH  10  12
ATOM     12  C   UNL     1      35.091 -19.323 -22.025  0.00  0.00    +0.049 C 
ATOM     13  C   UNL     1      33.727 -19.607 -21.881  0.00  0.00    +0.016 C 
ATOM     14  C   UNL     1      36.020 -20.011 -21.234  0.00  0.00    +0.016 C 
ATOM     15  C   UNL     1      34.231 -21.243 -20.176  0.00  0.00    +0.122 C 
ATOM     16  C   UNL     1      33.299 -20.563 -20.961  0.00  0.00    +0.021 C 
ATOM     17  C   UNL     1      35.592 -20.967 -20.313  0.00  0.00    +0.021 C 
BRANCH  15  18
ATOM     18  S   UNL     1      33.694 -22.440 -19.024  0.00  0.00    +0.057 S 
ATOM     19  O   UNL     1      34.675 -22.517 -17.951  0.00  0.00    -0.153 OA
ATOM     20  O   UNL     1      32.296 -22.185 -18.709  0.00  0.00    -0.153 OA
BRANCH  18  21
ATOM     21  N   UNL     1      33.793 -23.864 -19.965  0.00  0.00    -0.203 NA
ATOM     22  H   UNL     1      33.513 -24.664 -19.398  0.00  0.00    +0.144 HD
ATOM     23  H   UNL     1      34.751 -23.993 -20.286  0.00  0.00    +0.144 HD
ENDBRANCH  18  21
ENDBRANCH  15  18
ENDBRANCH  10  12
ENDBRANCH   7  10
BRANCH   5  24
ATOM     24  O   UNL     1      33.733 -15.101 -25.859  0.00  0.00    -0.451 OA
BRANCH  24  25
ATOM     25  C   UNL     1      33.058 -13.868 -26.021  0.00  0.00    +0.208 C 
BRANCH  25  26
ATOM     26  C   UNL     1      34.100 -12.757 -26.135  0.00  0.00    +0.044 C 
ATOM     27  C   UNL     1      34.091 -12.149 -27.545  0.00  0.00    +0.004 C 
ATOM     28  C   UNL     1      33.860 -11.676 -25.073  0.00  0.00    +0.004 C 
ATOM     29  C   UNL     1      35.090 -11.000 -27.669  0.00  0.00    +0.000 C 
ATOM     30  C   UNL     1      34.858 -10.527 -25.202  0.00  0.00    +0.000 C 
ATOM     31  C   UNL     1      34.852  -9.932 -26.606  0.00  0.00    +0.000 C 
ENDBRANCH  25  26
ENDBRANCH  24  25
ENDBRANCH   5  24
TORSDOF 7
ENDMDL
MODEL 6
REMARK VINA RESULT:      -9.5      8.984     13.521
REMARK  Name = 23586145
REMARK  7 active torsions:
REMARK  status: ('A' for Active; 'I' for Inactive)
REMARK    1  A    between atoms: C_5  and  O_24
REMARK    2  A    between atoms: C_7  and  N_10
REMARK    3  A    between atoms: N_10  and  C_12
REMARK    4  A    between atoms: C_15  and  S_18
REMARK    5  A    between atoms: S_18  and  N_21
REMARK    6  A    between atoms: O_24  and  C_25
REMARK    7  A    between atoms: C_25  and  C_26
REMARK                            x       y       z     vdW  Elec       q    Type
REMARK                         _______ _______ _______ _____ _____    ______ ____
ROOT
ATOM      1  N   UNL     1      34.244 -10.006 -25.373  0.00  0.00    -0.299 NA
ATOM      2  N   UNL     1      34.097 -12.227 -26.285  0.00  0.00    -0.106 N 
ATOM      3  N   UNL     1      34.461 -12.878 -27.421  0.00  0.00    -0.139 NA
ATOM      4  N   UNL     1      35.085 -10.691 -27.545  0.00  0.00    -0.145 NA
ATOM      5  C   UNL     1      33.634 -10.496 -24.342  0.00  0.00    +0.291 C 
ATOM      6  C   UNL     1      33.178 -11.888 -24.138  0.00  0.00    +0.105 C 
ATOM      7  C   UNL     1      33.436 -12.730 -25.154  0.00  0.00    +0.142 C 
ATOM      8  C   UNL     1      34.491 -10.887 -26.385  0.00  0.00    +0.178 C 
ATOM      9  C   UNL     1      35.042 -11.916 -28.129  0.00  0.00    +0.230 C 
ENDROOT
BRANCH   7  10
ATOM     10  N   UNL     1      33.097 -14.053 -25.157  0.00  0.00    -0.299 N 
ATOM     11  H   UNL     1      32.322 -14.295 -25.714  0.00  0.00    +0.153 HD
BRANCH  10  12
ATOM     12  C   UNL     1      33.706 -15.108 -24.469  0.00  0.00    +0.049 C 
ATOM     13  C   UNL     1      33.882 -16.351 -25.089  0.00  0.00    +0.016 C 
ATOM     14  C   UNL     1      34.148 -14.932 -23.151  0.00  0.00    +0.016 C 
ATOM     15  C   UNL     1      34.927 -17.219 -23.090  0.00  0.00    +0.122 C 
ATOM     16  C   UNL     1      34.490 -17.402 -24.402  0.00  0.00    +0.021 C 
ATOM     17  C   UNL     1      34.756 -15.983 -22.465  0.00  0.00    +0.021 C 
BRANCH  15  18
ATOM     18  S   UNL     1      35.687 -18.535 -22.231  0.00  0.00    +0.057 S 
ATOM     19  O   UNL     1      35.809 -18.158 -20.830  0.00  0.00    -0.153 OA
ATOM     20  O   UNL     1      35.012 -19.773 -22.591  0.00  0.00    -0.153 OA
BRANCH  18  21
ATOM     21  N   UNL     1      37.242 -18.530 -22.941  0.00  0.00    -0.203 NA
ATOM     22  H   UNL     1      37.507 -17.573 -23.170  0.00  0.00    +0.144 HD
ATOM     23  H   UNL     1      37.228 -19.092 -23.792  0.00  0.00    +0.144 HD
ENDBRANCH  18  21
ENDBRANCH  15  18
ENDBRANCH  10  12
ENDBRANCH   7  10
BRANCH   5  24
ATOM     24  O   UNL     1      33.350  -9.715 -23.305  0.00  0.00    -0.451 OA
BRANCH  24  25
ATOM     25  C   UNL     1      32.122  -9.018 -23.393  0.00  0.00    +0.208 C 
BRANCH  25  26
ATOM     26  C   UNL     1      31.370  -9.192 -22.075  0.00  0.00    +0.044 C 
ATOM     27  C   UNL     1      31.029 -10.670 -21.838  0.00  0.00    +0.004 C 
ATOM     28  C   UNL     1      32.186  -8.626 -20.906  0.00  0.00    +0.004 C 
ATOM     29  C   UNL     1      30.322 -10.878 -20.500  0.00  0.00    +0.000 C 
ATOM     30  C   UNL     1      31.478  -8.837 -19.568  0.00  0.00    +0.000 C 
ATOM     31  C   UNL     1      31.133 -10.306 -19.341  0.00  0.00    +0.000 C 
ENDBRANCH  25  26
ENDBRANCH  24  25
ENDBRANCH   5  24
TORSDOF 7
ENDMDL
MODEL 7
REMARK VINA RESULT:      -9.5      9.613     15.119
REMARK  Name = 23586145
REMARK  7 active torsions:
REMARK  status: ('A' for Active; 'I' for Inactive)
REMARK    1  A    between atoms: C_5  and  O_24
REMARK    2  A    between atoms: C_7  and  N_10
REMARK    3  A    between atoms: N_10  and  C_12
REMARK    4  A    between atoms: C_15  and  S_18
REMARK    5  A    between atoms: S_18  and  N_21
REMARK    6  A    between atoms: O_24  and  C_25
REMARK    7  A    between atoms: C_25  and  C_26
REMARK                            x       y       z     vdW  Elec       q    Type
REMARK                         _______ _______ _______ _____ _____    ______ ____
ROOT
ATOM      1  N   UNL     1      34.888  -9.762 -25.772  0.00  0.00    -0.299 NA
ATOM      2  N   UNL     1      34.153 -12.029 -26.097  0.00  0.00    -0.106 N 
ATOM      3  N   UNL     1      34.185 -12.970 -27.076  0.00  0.00    -0.139 NA
ATOM      4  N   UNL     1      35.202 -11.064 -27.797  0.00  0.00    -0.145 NA
ATOM      5  C   UNL     1      34.373  -9.869 -24.590  0.00  0.00    +0.291 C 
ATOM      6  C   UNL     1      33.690 -11.042 -24.003  0.00  0.00    +0.105 C 
ATOM      7  C   UNL     1      33.603 -12.116 -24.809  0.00  0.00    +0.142 C 
ATOM      8  C   UNL     1      34.782 -10.868 -26.563  0.00  0.00    +0.178 C 
ATOM      9  C   UNL     1      34.820 -12.340 -28.059  0.00  0.00    +0.230 C 
ENDROOT
BRANCH   7  10
ATOM     10  N   UNL     1      33.012 -13.294 -24.453  0.00  0.00    -0.299 N 
ATOM     11  H   UNL     1      32.035 -13.336 -24.569  0.00  0.00    +0.153 HD
BRANCH  10  12
ATOM     12  C   UNL     1      33.615 -14.449 -23.941  0.00  0.00    +0.049 C 
ATOM     13  C   UNL     1      33.811 -15.568 -24.760  0.00  0.00    +0.016 C 
ATOM     14  C   UNL     1      34.030 -14.498 -22.604  0.00  0.00    +0.016 C 
ATOM     15  C   UNL     1      34.822 -16.760 -22.917  0.00  0.00    +0.122 C 
ATOM     16  C   UNL     1      34.412 -16.719 -24.249  0.00  0.00    +0.021 C 
ATOM     17  C   UNL     1      34.631 -15.649 -22.094  0.00  0.00    +0.021 C 
BRANCH  15  18
ATOM     18  S   UNL     1      35.574 -18.200 -22.278  0.00  0.00    +0.057 S 
ATOM     19  O   UNL     1      36.707 -18.540 -23.126  0.00  0.00    -0.153 OA
ATOM     20  O   UNL     1      35.769 -18.024 -20.846  0.00  0.00    -0.153 OA
BRANCH  18  21
ATOM     21  N   UNL     1      34.335 -19.350 -22.525  0.00  0.00    -0.203 NA
ATOM     22  H   UNL     1      34.647 -20.045 -23.203  0.00  0.00    +0.144 HD
ATOM     23  H   UNL     1      33.501 -18.881 -22.878  0.00  0.00    +0.144 HD
ENDBRANCH  18  21
ENDBRANCH  15  18
ENDBRANCH  10  12
ENDBRANCH   7  10
BRANCH   5  24
ATOM     24  O   UNL     1      34.426  -8.843 -23.746  0.00  0.00    -0.451 OA
BRANCH  24  25
ATOM     25  C   UNL     1      35.399  -7.861 -24.050  0.00  0.00    +0.208 C 
BRANCH  25  26
ATOM     26  C   UNL     1      34.713  -6.496 -24.092  0.00  0.00    +0.044 C 
ATOM     27  C   UNL     1      34.637  -5.973 -25.533  0.00  0.00    +0.004 C 
ATOM     28  C   UNL     1      33.315  -6.573 -23.465  0.00  0.00    +0.004 C 
ATOM     29  C   UNL     1      33.909  -4.632 -25.608  0.00  0.00    +0.000 C 
ATOM     30  C   UNL     1      32.588  -5.231 -23.544  0.00  0.00    +0.000 C 
ATOM     31  C   UNL     1      32.523  -4.710 -24.975  0.00  0.00    +0.000 C 
ENDBRANCH  25  26
ENDBRANCH  24  25
ENDBRANCH   5  24
TORSDOF 7
ENDMDL
MODEL 8
REMARK VINA RESULT:      -9.4      9.351     14.536
REMARK  Name = 23586145
REMARK  7 active torsions:
REMARK  status: ('A' for Active; 'I' for Inactive)
REMARK    1  A    between atoms: C_5  and  O_24
REMARK    2  A    between atoms: C_7  and  N_10
REMARK    3  A    between atoms: N_10  and  C_12
REMARK    4  A    between atoms: C_15  and  S_18
REMARK    5  A    between atoms: S_18  and  N_21
REMARK    6  A    between atoms: O_24  and  C_25
REMARK    7  A    between atoms: C_25  and  C_26
REMARK                            x       y       z     vdW  Elec       q    Type
REMARK                         _______ _______ _______ _____ _____    ______ ____
ROOT
ATOM      1  N   UNL     1      33.142  -9.749 -23.311  0.00  0.00    -0.299 NA
ATOM      2  N   UNL     1      32.648 -12.099 -23.439  0.00  0.00    -0.106 N 
ATOM      3  N   UNL     1      31.911 -13.015 -22.758  0.00  0.00    -0.139 NA
ATOM      4  N   UNL     1      31.700 -10.967 -21.784  0.00  0.00    -0.145 NA
ATOM      5  C   UNL     1      33.874  -9.946 -24.360  0.00  0.00    +0.291 C 
ATOM      6  C   UNL     1      34.093 -11.217 -25.084  0.00  0.00    +0.105 C 
ATOM      7  C   UNL     1      33.449 -12.283 -24.577  0.00  0.00    +0.142 C 
ATOM      8  C   UNL     1      32.503 -10.850 -22.823  0.00  0.00    +0.178 C 
ATOM      9  C   UNL     1      31.372 -12.284 -21.788  0.00  0.00    +0.230 C 
ENDROOT
BRANCH   7  10
ATOM     10  N   UNL     1      33.522 -13.542 -25.101  0.00  0.00    -0.299 N 
ATOM     11  H   UNL     1      33.230 -13.635 -26.036  0.00  0.00    +0.153 HD
BRANCH  10  12
ATOM     12  C   UNL     1      33.956 -14.718 -24.479  0.00  0.00    +0.049 C 
ATOM     13  C   UNL     1      34.436 -14.689 -23.163  0.00  0.00    +0.016 C 
ATOM     14  C   UNL     1      33.916 -15.939 -25.165  0.00  0.00    +0.016 C 
ATOM     15  C   UNL     1      34.826 -17.073 -23.235  0.00  0.00    +0.122 C 
ATOM     16  C   UNL     1      34.869 -15.862 -22.545  0.00  0.00    +0.021 C 
ATOM     17  C   UNL     1      34.349 -17.111 -24.546  0.00  0.00    +0.021 C 
BRANCH  15  18
ATOM     18  S   UNL     1      35.368 -18.540 -22.460  0.00  0.00    +0.057 S 
ATOM     19  O   UNL     1      35.156 -18.407 -21.026  0.00  0.00    -0.153 OA
ATOM     20  O   UNL     1      34.801 -19.676 -23.173  0.00  0.00    -0.153 OA
BRANCH  18  21
ATOM     21  N   UNL     1      37.045 -18.475 -22.779  0.00  0.00    -0.203 NA
ATOM     22  H   UNL     1      37.560 -18.752 -21.943  0.00  0.00    +0.144 HD
ATOM     23  H   UNL     1      37.305 -17.525 -23.039  0.00  0.00    +0.144 HD
ENDBRANCH  18  21
ENDBRANCH  15  18
ENDBRANCH  10  12
ENDBRANCH   7  10
BRANCH   5  24
ATOM     24  O   UNL     1      34.537  -8.933 -24.909  0.00  0.00    -0.451 OA
BRANCH  24  25
ATOM     25  C   UNL     1      35.214  -8.090 -23.996  0.00  0.00    +0.208 C 
BRANCH  25  26
ATOM     26  C   UNL     1      34.833  -6.642 -24.300  0.00  0.00    +0.044 C 
ATOM     27  C   UNL     1      34.981  -6.347 -25.799  0.00  0.00    +0.004 C 
ATOM     28  C   UNL     1      33.405  -6.345 -23.823  0.00  0.00    +0.004 C 
ATOM     29  C   UNL     1      34.556  -4.919 -26.137  0.00  0.00    +0.000 C 
ATOM     30  C   UNL     1      32.982  -4.917 -24.164  0.00  0.00    +0.000 C 
ATOM     31  C   UNL     1      33.139  -4.625 -25.653  0.00  0.00    +0.000 C 
ENDBRANCH  25  26
ENDBRANCH  24  25
ENDBRANCH   5  24
TORSDOF 7
ENDMDL
MODEL 9
REMARK VINA RESULT:      -9.3      9.296     14.821
REMARK  Name = 23586145
REMARK  7 active torsions:
REMARK  status: ('A' for Active; 'I' for Inactive)
REMARK    1  A    between atoms: C_5  and  O_24
REMARK    2  A    between atoms: C_7  and  N_10
REMARK    3  A    between atoms: N_10  and  C_12
REMARK    4  A    between atoms: C_15  and  S_18
REMARK    5  A    between atoms: S_18  and  N_21
REMARK    6  A    between atoms: O_24  and  C_25
REMARK    7  A    between atoms: C_25  and  C_26
REMARK                            x       y       z     vdW  Elec       q    Type
REMARK                         _______ _______ _______ _____ _____    ______ ____
ROOT
ATOM      1  N   UNL     1      34.173  -9.517 -24.875  0.00  0.00    -0.299 NA
ATOM      2  N   UNL     1      34.188 -11.619 -26.044  0.00  0.00    -0.106 N 
ATOM      3  N   UNL     1      34.664 -12.120 -27.215  0.00  0.00    -0.139 NA
ATOM      4  N   UNL     1      35.204  -9.914 -27.037  0.00  0.00    -0.145 NA
ATOM      5  C   UNL     1      33.508 -10.144 -23.959  0.00  0.00    +0.291 C 
ATOM      6  C   UNL     1      33.096 -11.565 -23.953  0.00  0.00    +0.105 C 
ATOM      7  C   UNL     1      33.465 -12.273 -25.035  0.00  0.00    +0.142 C 
ATOM      8  C   UNL     1      34.532 -10.264 -25.958  0.00  0.00    +0.178 C 
ATOM      9  C   UNL     1      35.257 -11.063 -27.759  0.00  0.00    +0.230 C 
ENDROOT
BRANCH   7  10
ATOM     10  N   UNL     1      33.182 -13.596 -25.217  0.00  0.00    -0.299 N 
ATOM     11  H   UNL     1      32.525 -13.801 -25.921  0.00  0.00    +0.153 HD
BRANCH  10  12
ATOM     12  C   UNL     1      33.703 -14.698 -24.530  0.00  0.00    +0.049 C 
ATOM     13  C   UNL     1      34.179 -14.557 -23.221  0.00  0.00    +0.016 C 
ATOM     14  C   UNL     1      33.756 -15.956 -25.145  0.00  0.00    +0.016 C 
ATOM     15  C   UNL     1      34.747 -16.905 -23.157  0.00  0.00    +0.122 C 
ATOM     16  C   UNL     1      34.699 -15.657 -22.537  0.00  0.00    +0.021 C 
ATOM     17  C   UNL     1      34.275 -17.055 -24.462  0.00  0.00    +0.021 C 
BRANCH  15  18
ATOM     18  S   UNL     1      35.398 -18.281 -22.301  0.00  0.00    +0.057 S 
ATOM     19  O   UNL     1      35.464 -17.951 -20.884  0.00  0.00    -0.153 OA
ATOM     20  O   UNL     1      34.684 -19.474 -22.733  0.00  0.00    -0.153 OA
BRANCH  18  21
ATOM     21  N   UNL     1      36.986 -18.333 -22.930  0.00  0.00    -0.203 NA
ATOM     22  H   UNL     1      37.655 -18.183 -22.175  0.00  0.00    +0.144 HD
ATOM     23  H   UNL     1      37.097 -17.604 -23.633  0.00  0.00    +0.144 HD
ENDBRANCH  18  21
ENDBRANCH  15  18
ENDBRANCH  10  12
ENDBRANCH   7  10
BRANCH   5  24
ATOM     24  O   UNL     1      33.113  -9.500 -22.865  0.00  0.00    -0.451 OA
BRANCH  24  25
ATOM     25  C   UNL     1      31.739  -9.168 -22.823  0.00  0.00    +0.208 C 
BRANCH  25  26
ATOM     26  C   UNL     1      31.596  -7.665 -23.060  0.00  0.00    +0.044 C 
ATOM     27  C   UNL     1      32.901  -6.936 -22.709  0.00  0.00    +0.004 C 
ATOM     28  C   UNL     1      31.185  -7.381 -24.510  0.00  0.00    +0.004 C 
ATOM     29  C   UNL     1      32.801  -5.437 -22.987  0.00  0.00    +0.000 C 
ATOM     30  C   UNL     1      31.088  -5.882 -24.786  0.00  0.00    +0.000 C 
ATOM     31  C   UNL     1      32.383  -5.160 -24.427  0.00  0.00    +0.000 C 
ENDBRANCH  25  26
ENDBRANCH  24  25
ENDBRANCH   5  24
TORSDOF 7
ENDMDL
