MODEL 1
REMARK VINA RESULT:     -11.9      0.000      0.000
REMARK  Name = 10267580
REMARK  2 active torsions:
REMARK  status: ('A' for Active; 'I' for Inactive)
REMARK    1  A    between atoms: N_1  and  C_21
REMARK    2  A    between atoms: C_7  and  C_14
REMARK                            x       y       z     vdW  Elec       q    Type
REMARK                         _______ _______ _______ _____ _____    ______ ____
ROOT
ATOM      1  N   UNL     1      32.508 -22.561 -18.625  0.00  0.00    -0.290 N 
ATOM      2  N   UNL     1      34.019 -23.343 -17.000  0.00  0.00    -0.327 NA
ATOM      3  N   UNL     1      33.226 -24.165 -14.879  0.00  0.00    -0.342 NA
ATOM      4  C   UNL     1      31.653 -23.378 -16.508  0.00  0.00    +0.143 C 
ATOM      5  C   UNL     1      32.737 -23.110 -17.339  0.00  0.00    +0.184 C 
ATOM      6  C   UNL     1      31.956 -23.921 -15.249  0.00  0.00    +0.133 C 
ATOM      7  C   UNL     1      34.187 -23.864 -15.773  0.00  0.00    +0.165 C 
ATOM      8  C   UNL     1      30.322 -23.125 -16.885  0.00  0.00    -0.011 C 
ATOM      9  C   UNL     1      30.897 -24.201 -14.390  0.00  0.00    +0.029 C 
ATOM     10  C   UNL     1      29.283 -23.415 -16.005  0.00  0.00    -0.004 C 
ATOM     11  C   UNL     1      29.572 -23.953 -14.757  0.00  0.00    +0.002 C 
ATOM     12  H   UNL     1      31.612 -22.714 -19.006  0.00  0.00    +0.154 HD
ENDROOT
BRANCH   7  14
ATOM     13  N   UNL     1      35.686 -25.096 -14.433  0.00  0.00    -0.398 NA
ATOM     14  C   UNL     1      35.544 -24.128 -15.369  0.00  0.00    +0.197 C 
ATOM     15  C   UNL     1      36.607 -23.425 -15.920  0.00  0.00    +0.098 C 
ATOM     16  C   UNL     1      36.949 -25.366 -14.032  0.00  0.00    +0.110 C 
ATOM     17  C   UNL     1      37.890 -23.733 -15.481  0.00  0.00    -0.016 C 
ATOM     18  C   UNL     1      38.073 -24.720 -14.520  0.00  0.00    +0.023 C 
ATOM     19  C   UNL     1      37.107 -26.432 -13.000  0.00  0.00    +0.066 C 
ENDBRANCH   7  14
BRANCH   1  21
ATOM     20  N   UNL     1      35.166 -20.352 -21.020  0.00  0.00    -0.242 NA
ATOM     21  C   UNL     1      33.382 -21.835 -19.412  0.00  0.00    +0.053 C 
ATOM     22  C   UNL     1      32.917 -20.819 -20.263  0.00  0.00    +0.035 C 
ATOM     23  C   UNL     1      34.763 -22.089 -19.388  0.00  0.00    +0.035 C 
ATOM     24  C   UNL     1      33.833 -20.120 -21.033  0.00  0.00    +0.100 C 
ATOM     25  C   UNL     1      35.597 -21.333 -20.196  0.00  0.00    +0.100 C 
ENDBRANCH   1  21
TORSDOF 2
ENDMDL
MODEL 2
REMARK VINA RESULT:     -11.5      1.484      6.774
REMARK  Name = 10267580
REMARK  2 active torsions:
REMARK  status: ('A' for Active; 'I' for Inactive)
REMARK    1  A    between atoms: N_1  and  C_21
REMARK    2  A    between atoms: C_7  and  C_14
REMARK                            x       y       z     vdW  Elec       q    Type
REMARK                         _______ _______ _______ _____ _____    ______ ____
ROOT
ATOM      1  N   UNL     1      35.602 -23.552 -16.665  0.00  0.00    -0.290 N 
ATOM      2  N   UNL     1      33.249 -23.534 -16.624  0.00  0.00    -0.327 NA
ATOM      3  N   UNL     1      31.999 -22.352 -18.310  0.00  0.00    -0.342 NA
ATOM      4  C   UNL     1      34.396 -22.345 -18.388  0.00  0.00    +0.143 C 
ATOM      5  C   UNL     1      34.377 -23.132 -17.240  0.00  0.00    +0.184 C 
ATOM      6  C   UNL     1      33.144 -21.968 -18.902  0.00  0.00    +0.133 C 
ATOM      7  C   UNL     1      32.113 -23.114 -17.204  0.00  0.00    +0.165 C 
ATOM      8  C   UNL     1      35.588 -21.937 -19.013  0.00  0.00    -0.011 C 
ATOM      9  C   UNL     1      33.124 -21.179 -20.049  0.00  0.00    +0.029 C 
ATOM     10  C   UNL     1      35.537 -21.148 -20.159  0.00  0.00    -0.004 C 
ATOM     11  C   UNL     1      34.304 -20.769 -20.676  0.00  0.00    +0.002 C 
ATOM     12  H   UNL     1      36.378 -23.571 -17.270  0.00  0.00    +0.154 HD
ENDROOT
BRANCH   7  14
ATOM     13  N   UNL     1      29.769 -22.912 -17.048  0.00  0.00    -0.398 NA
ATOM     14  C   UNL     1      30.883 -23.521 -16.577  0.00  0.00    +0.197 C 
ATOM     15  C   UNL     1      30.874 -24.472 -15.566  0.00  0.00    +0.098 C 
ATOM     16  C   UNL     1      28.598 -23.272 -16.478  0.00  0.00    +0.110 C 
ATOM     17  C   UNL     1      29.649 -24.816 -15.004  0.00  0.00    -0.016 C 
ATOM     18  C   UNL     1      28.485 -24.210 -15.464  0.00  0.00    +0.023 C 
ATOM     19  C   UNL     1      27.369 -22.602 -16.995  0.00  0.00    +0.066 C 
ENDBRANCH   7  14
BRANCH   1  21
ATOM     20  N   UNL     1      36.341 -24.724 -12.695  0.00  0.00    -0.242 NA
ATOM     21  C   UNL     1      35.845 -23.937 -15.359  0.00  0.00    +0.053 C 
ATOM     22  C   UNL     1      36.116 -25.277 -15.038  0.00  0.00    +0.035 C 
ATOM     23  C   UNL     1      35.829 -23.002 -14.312  0.00  0.00    +0.035 C 
ATOM     24  C   UNL     1      36.353 -25.612 -13.715  0.00  0.00    +0.100 C 
ATOM     25  C   UNL     1      36.078 -23.439 -13.021  0.00  0.00    +0.100 C 
ENDBRANCH   1  21
TORSDOF 2
ENDMDL
MODEL 3
REMARK VINA RESULT:     -11.4      1.324      5.738
REMARK  Name = 10267580
REMARK  2 active torsions:
REMARK  status: ('A' for Active; 'I' for Inactive)
REMARK    1  A    between atoms: N_1  and  C_21
REMARK    2  A    between atoms: C_7  and  C_14
REMARK                            x       y       z     vdW  Elec       q    Type
REMARK                         _______ _______ _______ _____ _____    ______ ____
ROOT
ATOM      1  N   UNL     1      34.524 -24.936 -14.411  0.00  0.00    -0.290 N 
ATOM      2  N   UNL     1      34.187 -23.670 -16.365  0.00  0.00    -0.327 NA
ATOM      3  N   UNL     1      31.961 -23.158 -17.131  0.00  0.00    -0.342 NA
ATOM      4  C   UNL     1      32.260 -24.451 -15.133  0.00  0.00    +0.143 C 
ATOM      5  C   UNL     1      33.633 -24.333 -15.333  0.00  0.00    +0.184 C 
ATOM      6  C   UNL     1      31.439 -23.828 -16.088  0.00  0.00    +0.133 C 
ATOM      7  C   UNL     1      33.305 -23.116 -17.213  0.00  0.00    +0.165 C 
ATOM      8  C   UNL     1      31.705 -25.150 -14.047  0.00  0.00    -0.011 C 
ATOM      9  C   UNL     1      30.061 -23.925 -15.921  0.00  0.00    +0.029 C 
ATOM     10  C   UNL     1      30.322 -25.231 -13.906  0.00  0.00    -0.004 C 
ATOM     11  C   UNL     1      29.500 -24.618 -14.844  0.00  0.00    +0.002 C 
ATOM     12  H   UNL     1      34.163 -25.104 -13.510  0.00  0.00    +0.154 HD
ENDROOT
BRANCH   7  14
ATOM     13  N   UNL     1      32.948 -21.762 -19.110  0.00  0.00    -0.398 NA
ATOM     14  C   UNL     1      33.856 -22.396 -18.332  0.00  0.00    +0.197 C 
ATOM     15  C   UNL     1      35.224 -22.375 -18.569  0.00  0.00    +0.098 C 
ATOM     16  C   UNL     1      33.434 -21.078 -20.170  0.00  0.00    +0.110 C 
ATOM     17  C   UNL     1      35.686 -21.661 -19.669  0.00  0.00    -0.016 C 
ATOM     18  C   UNL     1      34.780 -20.998 -20.490  0.00  0.00    +0.023 C 
ATOM     19  C   UNL     1      32.435 -20.378 -21.029  0.00  0.00    +0.066 C 
ENDBRANCH   7  14
BRANCH   1  21
ATOM     20  N   UNL     1      38.513 -26.108 -15.037  0.00  0.00    -0.242 NA
ATOM     21  C   UNL     1      35.835 -25.321 -14.616  0.00  0.00    +0.053 C 
ATOM     22  C   UNL     1      36.143 -26.558 -15.206  0.00  0.00    +0.035 C 
ATOM     23  C   UNL     1      36.903 -24.489 -14.243  0.00  0.00    +0.035 C 
ATOM     24  C   UNL     1      37.473 -26.898 -15.391  0.00  0.00    +0.100 C 
ATOM     25  C   UNL     1      38.200 -24.922 -14.471  0.00  0.00    +0.100 C 
ENDBRANCH   1  21
TORSDOF 2
ENDMDL
MODEL 4
REMARK VINA RESULT:     -10.8      1.917      6.118
REMARK  Name = 10267580
REMARK  2 active torsions:
REMARK  status: ('A' for Active; 'I' for Inactive)
REMARK    1  A    between atoms: N_1  and  C_21
REMARK    2  A    between atoms: C_7  and  C_14
REMARK                            x       y       z     vdW  Elec       q    Type
REMARK                         _______ _______ _______ _____ _____    ______ ____
ROOT
ATOM      1  N   UNL     1      32.733 -24.691 -13.867  0.00  0.00    -0.290 N 
ATOM      2  N   UNL     1      34.053 -23.633 -15.503  0.00  0.00    -0.327 NA
ATOM      3  N   UNL     1      36.333 -23.015 -15.031  0.00  0.00    -0.342 NA
ATOM      4  C   UNL     1      35.021 -24.092 -13.337  0.00  0.00    +0.143 C 
ATOM      5  C   UNL     1      33.972 -24.121 -14.250  0.00  0.00    +0.184 C 
ATOM      6  C   UNL     1      36.219 -23.512 -13.786  0.00  0.00    +0.133 C 
ATOM      7  C   UNL     1      35.245 -23.103 -15.821  0.00  0.00    +0.165 C 
ATOM      8  C   UNL     1      34.913 -24.607 -12.033  0.00  0.00    -0.011 C 
ATOM      9  C   UNL     1      37.291 -23.465 -12.900  0.00  0.00    +0.029 C 
ATOM     10  C   UNL     1      36.001 -24.547 -11.168  0.00  0.00    -0.004 C 
ATOM     11  C   UNL     1      37.191 -23.975 -11.602  0.00  0.00    +0.002 C 
ATOM     12  H   UNL     1      32.767 -25.339 -13.126  0.00  0.00    +0.154 HD
ENDROOT
BRANCH   7  14
ATOM     13  N   UNL     1      34.250 -22.621 -17.904  0.00  0.00    -0.398 NA
ATOM     14  C   UNL     1      35.375 -22.570 -17.152  0.00  0.00    +0.197 C 
ATOM     15  C   UNL     1      36.581 -22.048 -17.602  0.00  0.00    +0.098 C 
ATOM     16  C   UNL     1      34.341 -22.128 -19.160  0.00  0.00    +0.110 C 
ATOM     17  C   UNL     1      36.634 -21.551 -18.899  0.00  0.00    -0.016 C 
ATOM     18  C   UNL     1      35.498 -21.588 -19.699  0.00  0.00    +0.023 C 
ATOM     19  C   UNL     1      33.102 -22.183 -19.990  0.00  0.00    +0.066 C 
ENDBRANCH   7  14
BRANCH   1  21
ATOM     20  N   UNL     1      28.924 -23.966 -15.494  0.00  0.00    -0.242 NA
ATOM     21  C   UNL     1      31.481 -24.452 -14.402  0.00  0.00    +0.053 C 
ATOM     22  C   UNL     1      30.583 -25.505 -14.644  0.00  0.00    +0.035 C 
ATOM     23  C   UNL     1      31.064 -23.150 -14.721  0.00  0.00    +0.035 C 
ATOM     24  C   UNL     1      29.340 -25.214 -15.181  0.00  0.00    +0.100 C 
ATOM     25  C   UNL     1      29.799 -22.964 -15.255  0.00  0.00    +0.100 C 
ENDBRANCH   1  21
TORSDOF 2
ENDMDL
MODEL 5
REMARK VINA RESULT:     -10.5      1.528      4.983
REMARK  Name = 10267580
REMARK  2 active torsions:
REMARK  status: ('A' for Active; 'I' for Inactive)
REMARK    1  A    between atoms: N_1  and  C_21
REMARK    2  A    between atoms: C_7  and  C_14
REMARK                            x       y       z     vdW  Elec       q    Type
REMARK                         _______ _______ _______ _____ _____    ______ ____
ROOT
ATOM      1  N   UNL     1      31.258 -22.757 -17.194  0.00  0.00    -0.290 N 
ATOM      2  N   UNL     1      33.235 -23.470 -16.138  0.00  0.00    -0.327 NA
ATOM      3  N   UNL     1      35.385 -23.058 -17.145  0.00  0.00    -0.342 NA
ATOM      4  C   UNL     1      33.393 -22.315 -18.255  0.00  0.00    +0.143 C 
ATOM      5  C   UNL     1      32.671 -22.852 -17.193  0.00  0.00    +0.184 C 
ATOM      6  C   UNL     1      34.790 -22.446 -18.184  0.00  0.00    +0.133 C 
ATOM      7  C   UNL     1      34.576 -23.537 -16.179  0.00  0.00    +0.165 C 
ATOM      8  C   UNL     1      32.781 -21.674 -19.347  0.00  0.00    -0.011 C 
ATOM      9  C   UNL     1      35.545 -21.921 -19.229  0.00  0.00    +0.029 C 
ATOM     10  C   UNL     1      33.561 -21.159 -20.377  0.00  0.00    -0.004 C 
ATOM     11  C   UNL     1      34.944 -21.283 -20.318  0.00  0.00    +0.002 C 
ATOM     12  H   UNL     1      30.875 -22.034 -17.743  0.00  0.00    +0.154 HD
ENDROOT
BRANCH   7  14
ATOM     13  N   UNL     1      36.367 -24.843 -15.375  0.00  0.00    -0.398 NA
ATOM     14  C   UNL     1      35.221 -24.190 -15.070  0.00  0.00    +0.197 C 
ATOM     15  C   UNL     1      34.680 -24.136 -13.792  0.00  0.00    +0.098 C 
ATOM     16  C   UNL     1      36.995 -25.468 -14.354  0.00  0.00    +0.110 C 
ATOM     17  C   UNL     1      35.356 -24.792 -12.768  0.00  0.00    -0.016 C 
ATOM     18  C   UNL     1      36.536 -25.472 -13.046  0.00  0.00    +0.023 C 
ATOM     19  C   UNL     1      38.259 -26.188 -14.688  0.00  0.00    +0.066 C 
ENDBRANCH   7  14
BRANCH   1  21
ATOM     20  N   UNL     1      28.486 -25.175 -15.157  0.00  0.00    -0.242 NA
ATOM     21  C   UNL     1      30.347 -23.553 -16.524  0.00  0.00    +0.053 C 
ATOM     22  C   UNL     1      28.967 -23.305 -16.612  0.00  0.00    +0.035 C 
ATOM     23  C   UNL     1      30.770 -24.633 -15.735  0.00  0.00    +0.035 C 
ATOM     24  C   UNL     1      28.095 -24.130 -15.921  0.00  0.00    +0.100 C 
ATOM     25  C   UNL     1      29.817 -25.400 -15.083  0.00  0.00    +0.100 C 
ENDBRANCH   1  21
TORSDOF 2
ENDMDL
MODEL 6
REMARK VINA RESULT:     -10.4      1.493      6.391
REMARK  Name = 10267580
REMARK  2 active torsions:
REMARK  status: ('A' for Active; 'I' for Inactive)
REMARK    1  A    between atoms: N_1  and  C_21
REMARK    2  A    between atoms: C_7  and  C_14
REMARK                            x       y       z     vdW  Elec       q    Type
REMARK                         _______ _______ _______ _____ _____    ______ ____
ROOT
ATOM      1  N   UNL     1      32.628 -24.679 -15.038  0.00  0.00    -0.290 N 
ATOM      2  N   UNL     1      33.508 -23.384 -16.795  0.00  0.00    -0.327 NA
ATOM      3  N   UNL     1      35.862 -22.879 -16.890  0.00  0.00    -0.342 NA
ATOM      4  C   UNL     1      35.005 -24.203 -15.083  0.00  0.00    +0.143 C 
ATOM      5  C   UNL     1      33.746 -24.069 -15.660  0.00  0.00    +0.184 C 
ATOM      6  C   UNL     1      36.065 -23.571 -15.755  0.00  0.00    +0.133 C 
ATOM      7  C   UNL     1      34.596 -22.823 -17.348  0.00  0.00    +0.165 C 
ATOM      8  C   UNL     1      35.228 -24.923 -13.896  0.00  0.00    -0.011 C 
ATOM      9  C   UNL     1      37.340 -23.682 -15.207  0.00  0.00    +0.029 C 
ATOM     10  C   UNL     1      36.514 -25.017 -13.371  0.00  0.00    -0.004 C 
ATOM     11  C   UNL     1      37.570 -24.396 -14.027  0.00  0.00    +0.002 C 
ATOM     12  H   UNL     1      32.828 -25.440 -14.445  0.00  0.00    +0.154 HD
ENDROOT
BRANCH   7  14
ATOM     13  N   UNL     1      35.496 -21.503 -19.082  0.00  0.00    -0.398 NA
ATOM     14  C   UNL     1      34.386 -22.081 -18.564  0.00  0.00    +0.197 C 
ATOM     15  C   UNL     1      33.126 -21.985 -19.138  0.00  0.00    +0.098 C 
ATOM     16  C   UNL     1      35.331 -20.797 -20.224  0.00  0.00    +0.110 C 
ATOM     17  C   UNL     1      32.998 -21.250 -20.312  0.00  0.00    -0.016 C 
ATOM     18  C   UNL     1      34.116 -20.643 -20.871  0.00  0.00    +0.023 C 
ATOM     19  C   UNL     1      36.553 -20.160 -20.796  0.00  0.00    +0.066 C 
ENDBRANCH   7  14
BRANCH   1  21
ATOM     20  N   UNL     1      28.567 -23.653 -15.404  0.00  0.00    -0.242 NA
ATOM     21  C   UNL     1      31.293 -24.341 -15.158  0.00  0.00    +0.053 C 
ATOM     22  C   UNL     1      30.302 -25.331 -15.269  0.00  0.00    +0.035 C 
ATOM     23  C   UNL     1      30.883 -22.999 -15.174  0.00  0.00    +0.035 C 
ATOM     24  C   UNL     1      28.978 -24.941 -15.387  0.00  0.00    +0.100 C 
ATOM     25  C   UNL     1      29.533 -22.713 -15.296  0.00  0.00    +0.100 C 
ENDBRANCH   1  21
TORSDOF 2
ENDMDL
MODEL 7
REMARK VINA RESULT:     -10.0      1.289      5.403
REMARK  Name = 10267580
REMARK  2 active torsions:
REMARK  status: ('A' for Active; 'I' for Inactive)
REMARK    1  A    between atoms: N_1  and  C_21
REMARK    2  A    between atoms: C_7  and  C_14
REMARK                            x       y       z     vdW  Elec       q    Type
REMARK                         _______ _______ _______ _____ _____    ______ ____
ROOT
ATOM      1  N   UNL     1      36.315 -22.579 -17.011  0.00  0.00    -0.290 N 
ATOM      2  N   UNL     1      34.419 -23.431 -15.910  0.00  0.00    -0.327 NA
ATOM      3  N   UNL     1      34.651 -25.021 -14.115  0.00  0.00    -0.342 NA
ATOM      4  C   UNL     1      36.609 -24.177 -15.212  0.00  0.00    +0.143 C 
ATOM      5  C   UNL     1      35.761 -23.420 -16.015  0.00  0.00    +0.184 C 
ATOM      6  C   UNL     1      35.989 -24.987 -14.246  0.00  0.00    +0.133 C 
ATOM      7  C   UNL     1      33.939 -24.242 -14.953  0.00  0.00    +0.165 C 
ATOM      8  C   UNL     1      38.010 -24.150 -15.342  0.00  0.00    -0.011 C 
ATOM      9  C   UNL     1      36.806 -25.759 -13.424  0.00  0.00    +0.029 C 
ATOM     10  C   UNL     1      38.801 -24.933 -14.506  0.00  0.00    -0.004 C 
ATOM     11  C   UNL     1      38.198 -25.738 -13.547  0.00  0.00    +0.002 C 
ATOM     12  H   UNL     1      37.249 -22.300 -16.869  0.00  0.00    +0.154 HD
ENDROOT
BRANCH   7  14
ATOM     13  N   UNL     1      31.814 -23.594 -15.741  0.00  0.00    -0.398 NA
ATOM     14  C   UNL     1      32.508 -24.284 -14.805  0.00  0.00    +0.197 C 
ATOM     15  C   UNL     1      31.913 -24.989 -13.768  0.00  0.00    +0.098 C 
ATOM     16  C   UNL     1      30.466 -23.614 -15.629  0.00  0.00    +0.110 C 
ATOM     17  C   UNL     1      30.525 -24.985 -13.686  0.00  0.00    -0.016 C 
ATOM     18  C   UNL     1      29.781 -24.287 -14.631  0.00  0.00    +0.023 C 
ATOM     19  C   UNL     1      29.700 -22.855 -16.660  0.00  0.00    +0.066 C 
ENDBRANCH   7  14
BRANCH   1  21
ATOM     20  N   UNL     1      34.479 -21.126 -20.504  0.00  0.00    -0.242 NA
ATOM     21  C   UNL     1      35.711 -22.102 -18.160  0.00  0.00    +0.053 C 
ATOM     22  C   UNL     1      36.428 -21.328 -19.087  0.00  0.00    +0.035 C 
ATOM     23  C   UNL     1      34.362 -22.373 -18.437  0.00  0.00    +0.035 C 
ATOM     24  C   UNL     1      35.777 -20.872 -20.222  0.00  0.00    +0.100 C 
ATOM     25  C   UNL     1      33.803 -21.871 -19.601  0.00  0.00    +0.100 C 
ENDBRANCH   1  21
TORSDOF 2
ENDMDL
MODEL 8
REMARK VINA RESULT:      -9.9      1.949      5.670
REMARK  Name = 10267580
REMARK  2 active torsions:
REMARK  status: ('A' for Active; 'I' for Inactive)
REMARK    1  A    between atoms: N_1  and  C_21
REMARK    2  A    between atoms: C_7  and  C_14
REMARK                            x       y       z     vdW  Elec       q    Type
REMARK                         _______ _______ _______ _____ _____    ______ ____
ROOT
ATOM      1  N   UNL     1      33.876 -24.453 -13.093  0.00  0.00    -0.290 N 
ATOM      2  N   UNL     1      34.112 -23.607 -15.276  0.00  0.00    -0.327 NA
ATOM      3  N   UNL     1      32.256 -23.635 -16.812  0.00  0.00    -0.342 NA
ATOM      4  C   UNL     1      31.974 -24.506 -14.596  0.00  0.00    +0.143 C 
ATOM      5  C   UNL     1      33.306 -24.180 -14.361  0.00  0.00    +0.184 C 
ATOM      6  C   UNL     1      31.478 -24.206 -15.876  0.00  0.00    +0.133 C 
ATOM      7  C   UNL     1      33.530 -23.366 -16.462  0.00  0.00    +0.165 C 
ATOM      8  C   UNL     1      31.152 -25.105 -13.624  0.00  0.00    -0.011 C 
ATOM      9  C   UNL     1      30.149 -24.519 -16.148  0.00  0.00    +0.029 C 
ATOM     10  C   UNL     1      29.827 -25.407 -13.925  0.00  0.00    -0.004 C 
ATOM     11  C   UNL     1      29.326 -25.114 -15.187  0.00  0.00    +0.002 C 
ATOM     12  H   UNL     1      33.242 -24.532 -12.344  0.00  0.00    +0.154 HD
ENDROOT
BRANCH   7  14
ATOM     13  N   UNL     1      35.529 -22.250 -17.022  0.00  0.00    -0.398 NA
ATOM     14  C   UNL     1      34.356 -22.755 -17.470  0.00  0.00    +0.197 C 
ATOM     15  C   UNL     1      33.949 -22.702 -18.796  0.00  0.00    +0.098 C 
ATOM     16  C   UNL     1      36.327 -21.667 -17.945  0.00  0.00    +0.110 C 
ATOM     17  C   UNL     1      34.798 -22.095 -19.716  0.00  0.00    -0.016 C 
ATOM     18  C   UNL     1      36.011 -21.566 -19.290  0.00  0.00    +0.023 C 
ATOM     19  C   UNL     1      37.621 -21.110 -17.453  0.00  0.00    +0.066 C 
ENDBRANCH   7  14
BRANCH   1  21
ATOM     20  N   UNL     1      37.934 -24.980 -12.126  0.00  0.00    -0.242 NA
ATOM     21  C   UNL     1      35.210 -24.626 -12.775  0.00  0.00    +0.053 C 
ATOM     22  C   UNL     1      35.919 -25.756 -13.215  0.00  0.00    +0.035 C 
ATOM     23  C   UNL     1      35.901 -23.679 -12.002  0.00  0.00    +0.035 C 
ATOM     24  C   UNL     1      37.255 -25.883 -12.869  0.00  0.00    +0.100 C 
ATOM     25  C   UNL     1      37.237 -23.899 -11.711  0.00  0.00    +0.100 C 
ENDBRANCH   1  21
TORSDOF 2
ENDMDL
MODEL 9
REMARK VINA RESULT:      -9.2      1.687      5.239
REMARK  Name = 10267580
REMARK  2 active torsions:
REMARK  status: ('A' for Active; 'I' for Inactive)
REMARK    1  A    between atoms: N_1  and  C_21
REMARK    2  A    between atoms: C_7  and  C_14
REMARK                            x       y       z     vdW  Elec       q    Type
REMARK                         _______ _______ _______ _____ _____    ______ ____
ROOT
ATOM      1  N   UNL     1      35.847 -22.388 -16.273  0.00  0.00    -0.290 N 
ATOM      2  N   UNL     1      33.658 -23.107 -15.795  0.00  0.00    -0.327 NA
ATOM      3  N   UNL     1      33.180 -24.330 -13.775  0.00  0.00    -0.342 NA
ATOM      4  C   UNL     1      35.424 -23.615 -14.225  0.00  0.00    +0.143 C 
ATOM      5  C   UNL     1      34.947 -23.057 -15.407  0.00  0.00    +0.184 C 
ATOM      6  C   UNL     1      34.474 -24.261 -13.417  0.00  0.00    +0.133 C 
ATOM      7  C   UNL     1      32.842 -23.750 -14.944  0.00  0.00    +0.165 C 
ATOM      8  C   UNL     1      36.776 -23.550 -13.841  0.00  0.00    -0.011 C 
ATOM      9  C   UNL     1      34.915 -24.833 -12.226  0.00  0.00    +0.029 C 
ATOM     10  C   UNL     1      37.188 -24.131 -12.646  0.00  0.00    -0.004 C 
ATOM     11  C   UNL     1      36.256 -24.773 -11.838  0.00  0.00    +0.002 C 
ATOM     12  H   UNL     1      36.672 -22.047 -15.857  0.00  0.00    +0.154 HD
ENDROOT
BRANCH   7  14
ATOM     13  N   UNL     1      30.757 -24.830 -14.737  0.00  0.00    -0.398 NA
ATOM     14  C   UNL     1      31.455 -23.827 -15.320  0.00  0.00    +0.197 C 
ATOM     15  C   UNL     1      30.903 -22.924 -16.218  0.00  0.00    +0.098 C 
ATOM     16  C   UNL     1      29.450 -24.930 -15.072  0.00  0.00    +0.110 C 
ATOM     17  C   UNL     1      29.556 -23.059 -16.537  0.00  0.00    -0.016 C 
ATOM     18  C   UNL     1      28.810 -24.078 -15.957  0.00  0.00    +0.023 C 
ATOM     19  C   UNL     1      28.679 -26.034 -14.430  0.00  0.00    +0.066 C 
ENDBRANCH   7  14
BRANCH   1  21
ATOM     20  N   UNL     1      35.443 -21.684 -20.399  0.00  0.00    -0.242 NA
ATOM     21  C   UNL     1      35.715 -22.156 -17.629  0.00  0.00    +0.053 C 
ATOM     22  C   UNL     1      34.580 -22.595 -18.332  0.00  0.00    +0.035 C 
ATOM     23  C   UNL     1      36.709 -21.476 -18.350  0.00  0.00    +0.035 C 
ATOM     24  C   UNL     1      34.495 -22.339 -19.691  0.00  0.00    +0.100 C 
ATOM     25  C   UNL     1      36.529 -21.269 -19.708  0.00  0.00    +0.100 C 
ENDBRANCH   1  21
TORSDOF 2
ENDMDL
