MODEL 1
REMARK VINA RESULT:     -11.8      0.000      0.000
REMARK  Name = 3168
REMARK  6 active torsions:
REMARK  status: ('A' for Active; 'I' for Inactive)
REMARK    1  A    between atoms: N_1  and  C_19
REMARK    2  A    between atoms: C_5  and  N_9
REMARK    3  A    between atoms: C_19  and  C_20
REMARK    4  A    between atoms: C_20  and  C_21
REMARK    5  A    between atoms: C_21  and  C_23
REMARK    6  A    between atoms: C_23  and  C_25
REMARK                            x       y       z     vdW  Elec       q    Type
REMARK                         _______ _______ _______ _____ _____    ______ ____
ROOT
ATOM      1  N   UNL     1      33.989 -16.232 -24.395  0.00  0.00    +0.390 N 
ATOM      2  C   UNL     1      34.992 -15.508 -23.605  0.00  0.00    -0.071 C 
ATOM      3  C   UNL     1      34.383 -14.225 -23.018  0.00  0.00    +0.021 C 
ATOM      4  C   UNL     1      33.545 -15.426 -25.545  0.00  0.00    -0.049 C 
ATOM      5  C   UNL     1      33.578 -13.453 -24.026  0.00  0.00    +0.037 C 
ATOM      6  C   UNL     1      33.208 -14.003 -25.192  0.00  0.00    -0.036 C 
ATOM      7  H   UNL     1      33.183 -16.404 -23.795  0.00  0.00    -0.079 HD
ENDROOT
BRANCH   5   9
ATOM      8  O   UNL     1      34.455 -10.925 -25.365  0.00  0.00    -0.246 OA
ATOM      9  N   UNL     1      33.254 -12.165 -23.709  0.00  0.00    -0.263 N 
ATOM     10  N   UNL     1      33.119  -9.890 -23.717  0.00  0.00    -0.305 N 
ATOM     11  C   UNL     1      32.414 -11.761 -22.655  0.00  0.00    +0.083 A 
ATOM     12  C   UNL     1      33.711 -10.992 -24.395  0.00  0.00    +0.332 A 
ATOM     13  C   UNL     1      32.338 -10.369 -22.668  0.00  0.00    +0.076 A 
ATOM     14  C   UNL     1      31.732 -12.503 -21.712  0.00  0.00    +0.019 C 
ATOM     15  C   UNL     1      31.590  -9.658 -21.756  0.00  0.00    +0.019 C 
ATOM     16  C   UNL     1      30.965 -11.803 -20.774  0.00  0.00    +0.002 C 
ATOM     17  C   UNL     1      30.894 -10.395 -20.796  0.00  0.00    +0.002 C 
ATOM     18  H   UNL     1      33.241  -8.941 -23.952  0.00  0.00    +0.170 HD
ENDBRANCH   5   9
BRANCH   1  19
ATOM     19  C   UNL     1      34.503 -17.527 -24.839  0.00  0.00    -0.076 C 
BRANCH  19  20
ATOM     20  C   UNL     1      33.909 -18.651 -23.989  0.00  0.00    -0.015 C 
BRANCH  20  21
ATOM     21  C   UNL     1      34.983 -19.430 -23.224  0.00  0.00    +0.067 C 
BRANCH  21  23
ATOM     22  O   UNL     1      35.245 -18.085 -21.237  0.00  0.00    -0.291 OA
ATOM     23  C   UNL     1      34.959 -19.177 -21.723  0.00  0.00    +0.173 C 
BRANCH  23  25
ATOM     24  F   UNL     1      33.450 -23.341 -18.324  0.00  0.00    -0.204 F 
ATOM     25  C   UNL     1      34.557 -20.290 -20.817  0.00  0.00    +0.035 C 
ATOM     26  C   UNL     1      33.216 -20.504 -20.589  0.00  0.00    +0.005 C 
ATOM     27  C   UNL     1      35.540 -21.062 -20.240  0.00  0.00    +0.005 C 
ATOM     28  C   UNL     1      32.839 -21.544 -19.739  0.00  0.00    +0.030 C 
ATOM     29  C   UNL     1      35.164 -22.102 -19.390  0.00  0.00    +0.030 C 
ATOM     30  C   UNL     1      33.812 -22.343 -19.140  0.00  0.00    +0.140 C 
ENDBRANCH  23  25
ENDBRANCH  21  23
ENDBRANCH  20  21
ENDBRANCH  19  20
ENDBRANCH   1  19
TORSDOF 6
ENDMDL
MODEL 2
REMARK VINA RESULT:     -11.8      0.321      1.336
REMARK  Name = 3168
REMARK  6 active torsions:
REMARK  status: ('A' for Active; 'I' for Inactive)
REMARK    1  A    between atoms: N_1  and  C_19
REMARK    2  A    between atoms: C_5  and  N_9
REMARK    3  A    between atoms: C_19  and  C_20
REMARK    4  A    between atoms: C_20  and  C_21
REMARK    5  A    between atoms: C_21  and  C_23
REMARK    6  A    between atoms: C_23  and  C_25
REMARK                            x       y       z     vdW  Elec       q    Type
REMARK                         _______ _______ _______ _____ _____    ______ ____
ROOT
ATOM      1  N   UNL     1      34.716 -16.067 -24.646  0.00  0.00    +0.390 N 
ATOM      2  C   UNL     1      33.444 -15.653 -25.251  0.00  0.00    -0.071 C 
ATOM      3  C   UNL     1      33.321 -14.121 -25.236  0.00  0.00    +0.021 C 
ATOM      4  C   UNL     1      34.779 -15.664 -23.231  0.00  0.00    -0.049 C 
ATOM      5  C   UNL     1      33.709 -13.521 -23.914  0.00  0.00    +0.037 C 
ATOM      6  C   UNL     1      34.365 -14.238 -22.989  0.00  0.00    -0.036 C 
ATOM      7  H   UNL     1      35.468 -15.595 -25.147  0.00  0.00    -0.079 HD
ENDROOT
BRANCH   5   9
ATOM      8  O   UNL     1      34.606 -11.060 -25.360  0.00  0.00    -0.246 OA
ATOM      9  N   UNL     1      33.351 -12.223 -23.689  0.00  0.00    -0.263 N 
ATOM     10  N   UNL     1      33.179  -9.955 -23.838  0.00  0.00    -0.305 N 
ATOM     11  C   UNL     1      32.457 -11.774 -22.698  0.00  0.00    +0.083 A 
ATOM     12  C   UNL     1      33.820 -11.084 -24.422  0.00  0.00    +0.332 A 
ATOM     13  C   UNL     1      32.360 -10.387 -22.798  0.00  0.00    +0.076 A 
ATOM     14  C   UNL     1      31.745 -12.473 -21.744  0.00  0.00    +0.019 C 
ATOM     15  C   UNL     1      31.559  -9.638 -21.964  0.00  0.00    +0.019 C 
ATOM     16  C   UNL     1      30.925 -11.734 -20.885  0.00  0.00    +0.002 C 
ATOM     17  C   UNL     1      30.833 -10.331 -20.994  0.00  0.00    +0.002 C 
ATOM     18  H   UNL     1      33.297  -9.020 -24.123  0.00  0.00    +0.170 HD
ENDBRANCH   5   9
BRANCH   1  19
ATOM     19  C   UNL     1      34.917 -17.508 -24.783  0.00  0.00    -0.076 C 
BRANCH  19  20
ATOM     20  C   UNL     1      34.158 -18.255 -23.685  0.00  0.00    -0.015 C 
BRANCH  20  21
ATOM     21  C   UNL     1      34.945 -19.452 -23.144  0.00  0.00    +0.067 C 
BRANCH  21  23
ATOM     22  O   UNL     1      35.919 -18.455 -21.173  0.00  0.00    -0.291 OA
ATOM     23  C   UNL     1      35.238 -19.358 -21.653  0.00  0.00    +0.173 C 
BRANCH  23  25
ATOM     24  F   UNL     1      33.075 -23.228 -18.259  0.00  0.00    -0.204 F 
ATOM     25  C   UNL     1      34.660 -20.390 -20.746  0.00  0.00    +0.035 C 
ATOM     26  C   UNL     1      35.517 -21.205 -20.041  0.00  0.00    +0.005 C 
ATOM     27  C   UNL     1      33.291 -20.492 -20.647  0.00  0.00    +0.005 C 
ATOM     28  C   UNL     1      34.977 -22.173 -19.194  0.00  0.00    +0.030 C 
ATOM     29  C   UNL     1      32.750 -21.459 -19.800  0.00  0.00    +0.030 C 
ATOM     30  C   UNL     1      33.594 -22.300 -19.072  0.00  0.00    +0.140 C 
ENDBRANCH  23  25
ENDBRANCH  21  23
ENDBRANCH  20  21
ENDBRANCH  19  20
ENDBRANCH   1  19
TORSDOF 6
ENDMDL
MODEL 3
REMARK VINA RESULT:     -11.7      1.464      2.854
REMARK  Name = 3168
REMARK  6 active torsions:
REMARK  status: ('A' for Active; 'I' for Inactive)
REMARK    1  A    between atoms: N_1  and  C_19
REMARK    2  A    between atoms: C_5  and  N_9
REMARK    3  A    between atoms: C_19  and  C_20
REMARK    4  A    between atoms: C_20  and  C_21
REMARK    5  A    between atoms: C_21  and  C_23
REMARK    6  A    between atoms: C_23  and  C_25
REMARK                            x       y       z     vdW  Elec       q    Type
REMARK                         _______ _______ _______ _____ _____    ______ ____
ROOT
ATOM      1  N   UNL     1      34.611 -15.744 -24.473  0.00  0.00    +0.390 N 
ATOM      2  C   UNL     1      33.403 -15.306 -25.182  0.00  0.00    -0.071 C 
ATOM      3  C   UNL     1      33.353 -13.771 -25.253  0.00  0.00    +0.021 C 
ATOM      4  C   UNL     1      34.602 -15.269 -23.080  0.00  0.00    -0.049 C 
ATOM      5  C   UNL     1      33.683 -13.121 -23.939  0.00  0.00    +0.037 C 
ATOM      6  C   UNL     1      34.242 -13.816 -22.937  0.00  0.00    -0.036 C 
ATOM      7  H   UNL     1      35.416 -15.333 -24.946  0.00  0.00    -0.079 HD
ENDROOT
BRANCH   5   9
ATOM      8  O   UNL     1      31.697 -11.846 -22.099  0.00  0.00    -0.246 OA
ATOM      9  N   UNL     1      33.373 -11.798 -23.804  0.00  0.00    -0.263 N 
ATOM     10  N   UNL     1      32.428  -9.843 -23.110  0.00  0.00    -0.305 N 
ATOM     11  C   UNL     1      33.949 -10.737 -24.530  0.00  0.00    +0.083 A 
ATOM     12  C   UNL     1      32.406 -11.250 -22.898  0.00  0.00    +0.332 A 
ATOM     13  C   UNL     1      33.365  -9.548 -24.099  0.00  0.00    +0.076 A 
ATOM     14  C   UNL     1      34.919 -10.741 -25.512  0.00  0.00    +0.019 C 
ATOM     15  C   UNL     1      33.712  -8.320 -24.616  0.00  0.00    +0.019 C 
ATOM     16  C   UNL     1      35.289  -9.505 -26.054  0.00  0.00    +0.002 C 
ATOM     17  C   UNL     1      34.692  -8.308 -25.611  0.00  0.00    +0.002 C 
ATOM     18  H   UNL     1      31.871  -9.184 -22.635  0.00  0.00    +0.170 HD
ENDBRANCH   5   9
BRANCH   1  19
ATOM     19  C   UNL     1      34.752 -17.198 -24.524  0.00  0.00    -0.076 C 
BRANCH  19  20
ATOM     20  C   UNL     1      35.486 -17.701 -23.280  0.00  0.00    -0.015 C 
BRANCH  20  21
ATOM     21  C   UNL     1      34.896 -19.010 -22.746  0.00  0.00    +0.067 C 
BRANCH  21  23
ATOM     22  O   UNL     1      36.584 -19.013 -21.021  0.00  0.00    -0.291 OA
ATOM     23  C   UNL     1      35.515 -19.459 -21.430  0.00  0.00    +0.173 C 
BRANCH  23  25
ATOM     24  F   UNL     1      32.785 -23.222 -18.338  0.00  0.00    -0.204 F 
ATOM     25  C   UNL     1      34.785 -20.463 -20.604  0.00  0.00    +0.035 C 
ATOM     26  C   UNL     1      35.515 -21.340 -19.834  0.00  0.00    +0.005 C 
ATOM     27  C   UNL     1      33.409 -20.477 -20.642  0.00  0.00    +0.005 C 
ATOM     28  C   UNL     1      34.833 -22.281 -19.061  0.00  0.00    +0.030 C 
ATOM     29  C   UNL     1      32.727 -21.417 -19.871  0.00  0.00    +0.030 C 
ATOM     30  C   UNL     1      33.439 -22.320 -19.080  0.00  0.00    +0.140 C 
ENDBRANCH  23  25
ENDBRANCH  21  23
ENDBRANCH  20  21
ENDBRANCH  19  20
ENDBRANCH   1  19
TORSDOF 6
ENDMDL
MODEL 4
REMARK VINA RESULT:     -11.5      3.955      9.816
REMARK  Name = 3168
REMARK  6 active torsions:
REMARK  status: ('A' for Active; 'I' for Inactive)
REMARK    1  A    between atoms: N_1  and  C_19
REMARK    2  A    between atoms: C_5  and  N_9
REMARK    3  A    between atoms: C_19  and  C_20
REMARK    4  A    between atoms: C_20  and  C_21
REMARK    5  A    between atoms: C_21  and  C_23
REMARK    6  A    between atoms: C_23  and  C_25
REMARK                            x       y       z     vdW  Elec       q    Type
REMARK                         _______ _______ _______ _____ _____    ______ ____
ROOT
ATOM      1  N   UNL     1      33.878 -16.096 -24.093  0.00  0.00    +0.390 N 
ATOM      2  C   UNL     1      34.638 -17.177 -24.733  0.00  0.00    -0.071 C 
ATOM      3  C   UNL     1      34.701 -18.403 -23.808  0.00  0.00    +0.021 C 
ATOM      4  C   UNL     1      34.544 -15.646 -22.860  0.00  0.00    -0.049 C 
ATOM      5  C   UNL     1      35.036 -18.041 -22.389  0.00  0.00    +0.037 C 
ATOM      6  C   UNL     1      34.978 -16.771 -21.961  0.00  0.00    -0.036 C 
ATOM      7  H   UNL     1      32.960 -16.465 -23.844  0.00  0.00    -0.079 HD
ENDROOT
BRANCH   5   9
ATOM      8  O   UNL     1      37.794 -18.795 -21.508  0.00  0.00    -0.246 OA
ATOM      9  N   UNL     1      35.418 -19.057 -21.560  0.00  0.00    -0.263 N 
ATOM     10  N   UNL     1      36.672 -20.493 -20.312  0.00  0.00    -0.305 N 
ATOM     11  C   UNL     1      34.557 -19.980 -20.936  0.00  0.00    +0.083 A 
ATOM     12  C   UNL     1      36.764 -19.366 -21.176  0.00  0.00    +0.332 A 
ATOM     13  C   UNL     1      35.334 -20.853 -20.176  0.00  0.00    +0.076 A 
ATOM     14  C   UNL     1      33.184 -20.106 -20.986  0.00  0.00    +0.019 C 
ATOM     15  C   UNL     1      34.789 -21.880 -19.438  0.00  0.00    +0.019 C 
ATOM     16  C   UNL     1      32.606 -21.143 -20.245  0.00  0.00    +0.002 C 
ATOM     17  C   UNL     1      33.400 -22.020 -19.479  0.00  0.00    +0.002 C 
ATOM     18  H   UNL     1      37.433 -20.945 -19.879  0.00  0.00    +0.170 HD
ENDBRANCH   5   9
BRANCH   1  19
ATOM     19  C   UNL     1      33.680 -14.977 -25.012  0.00  0.00    -0.076 C 
BRANCH  19  20
ATOM     20  C   UNL     1      33.101 -13.775 -24.265  0.00  0.00    -0.015 C 
BRANCH  20  21
ATOM     21  C   UNL     1      34.141 -12.673 -24.041  0.00  0.00    +0.067 C 
BRANCH  21  23
ATOM     22  O   UNL     1      33.883 -11.660 -26.217  0.00  0.00    -0.291 OA
ATOM     23  C   UNL     1      33.997 -11.502 -25.003  0.00  0.00    +0.173 C 
BRANCH  23  25
ATOM     24  F   UNL     1      33.922  -6.324 -22.917  0.00  0.00    -0.204 F 
ATOM     25  C   UNL     1      33.976 -10.119 -24.447  0.00  0.00    +0.035 C 
ATOM     26  C   UNL     1      35.055  -9.297 -24.680  0.00  0.00    +0.005 C 
ATOM     27  C   UNL     1      32.879  -9.716 -23.720  0.00  0.00    +0.005 C 
ATOM     28  C   UNL     1      35.037  -8.003 -24.159  0.00  0.00    +0.030 C 
ATOM     29  C   UNL     1      32.860  -8.422 -23.197  0.00  0.00    +0.030 C 
ATOM     30  C   UNL     1      33.940  -7.566 -23.417  0.00  0.00    +0.140 C 
ENDBRANCH  23  25
ENDBRANCH  21  23
ENDBRANCH  20  21
ENDBRANCH  19  20
ENDBRANCH   1  19
TORSDOF 6
ENDMDL
MODEL 5
REMARK VINA RESULT:     -11.2      3.628      9.117
REMARK  Name = 3168
REMARK  6 active torsions:
REMARK  status: ('A' for Active; 'I' for Inactive)
REMARK    1  A    between atoms: N_1  and  C_19
REMARK    2  A    between atoms: C_5  and  N_9
REMARK    3  A    between atoms: C_19  and  C_20
REMARK    4  A    between atoms: C_20  and  C_21
REMARK    5  A    between atoms: C_21  and  C_23
REMARK    6  A    between atoms: C_23  and  C_25
REMARK                            x       y       z     vdW  Elec       q    Type
REMARK                         _______ _______ _______ _____ _____    ______ ____
ROOT
ATOM      1  N   UNL     1      33.976 -16.022 -23.895  0.00  0.00    +0.390 N 
ATOM      2  C   UNL     1      34.703 -17.099 -24.577  0.00  0.00    -0.071 C 
ATOM      3  C   UNL     1      34.743 -18.357 -23.695  0.00  0.00    +0.021 C 
ATOM      4  C   UNL     1      34.664 -15.630 -22.653  0.00  0.00    -0.049 C 
ATOM      5  C   UNL     1      35.099 -18.051 -22.267  0.00  0.00    +0.037 C 
ATOM      6  C   UNL     1      35.076 -16.795 -21.796  0.00  0.00    -0.036 C 
ATOM      7  H   UNL     1      33.051 -16.375 -23.651  0.00  0.00    -0.079 HD
ENDROOT
BRANCH   5   9
ATOM      8  O   UNL     1      37.843 -18.892 -21.421  0.00  0.00    -0.246 OA
ATOM      9  N   UNL     1      35.461 -19.103 -21.476  0.00  0.00    -0.263 N 
ATOM     10  N   UNL     1      36.688 -20.608 -20.283  0.00  0.00    -0.305 N 
ATOM     11  C   UNL     1      34.583 -20.030 -20.883  0.00  0.00    +0.083 A 
ATOM     12  C   UNL     1      36.801 -19.454 -21.107  0.00  0.00    +0.332 A 
ATOM     13  C   UNL     1      35.343 -20.945 -20.157  0.00  0.00    +0.076 A 
ATOM     14  C   UNL     1      33.207 -20.126 -20.933  0.00  0.00    +0.019 C 
ATOM     15  C   UNL     1      34.778 -21.987 -19.454  0.00  0.00    +0.019 C 
ATOM     16  C   UNL     1      32.609 -21.177 -20.228  0.00  0.00    +0.002 C 
ATOM     17  C   UNL     1      33.387 -22.097 -19.496  0.00  0.00    +0.002 C 
ATOM     18  H   UNL     1      37.440 -21.091 -19.868  0.00  0.00    +0.170 HD
ENDBRANCH   5   9
BRANCH   1  19
ATOM     19  C   UNL     1      33.800 -14.868 -24.775  0.00  0.00    -0.076 C 
BRANCH  19  20
ATOM     20  C   UNL     1      33.813 -13.574 -23.959  0.00  0.00    -0.015 C 
BRANCH  20  21
ATOM     21  C   UNL     1      32.401 -13.084 -23.624  0.00  0.00    +0.067 C 
BRANCH  21  23
ATOM     22  O   UNL     1      32.155 -13.894 -21.363  0.00  0.00    -0.291 OA
ATOM     23  C   UNL     1      32.153 -12.933 -22.130  0.00  0.00    +0.173 C 
BRANCH  23  25
ATOM     24  F   UNL     1      31.279  -7.819 -20.067  0.00  0.00    -0.204 F 
ATOM     25  C   UNL     1      31.918 -11.568 -21.579  0.00  0.00    +0.035 C 
ATOM     26  C   UNL     1      32.014 -10.488 -22.427  0.00  0.00    +0.005 C 
ATOM     27  C   UNL     1      31.615 -11.437 -20.242  0.00  0.00    +0.005 C 
ATOM     28  C   UNL     1      31.796  -9.210 -21.912  0.00  0.00    +0.030 C 
ATOM     29  C   UNL     1      31.397 -10.159 -19.726  0.00  0.00    +0.030 C 
ATOM     30  C   UNL     1      31.488  -9.045 -20.562  0.00  0.00    +0.140 C 
ENDBRANCH  23  25
ENDBRANCH  21  23
ENDBRANCH  20  21
ENDBRANCH  19  20
ENDBRANCH   1  19
TORSDOF 6
ENDMDL
MODEL 6
REMARK VINA RESULT:     -10.8      3.201      5.824
REMARK  Name = 3168
REMARK  6 active torsions:
REMARK  status: ('A' for Active; 'I' for Inactive)
REMARK    1  A    between atoms: N_1  and  C_19
REMARK    2  A    between atoms: C_5  and  N_9
REMARK    3  A    between atoms: C_19  and  C_20
REMARK    4  A    between atoms: C_20  and  C_21
REMARK    5  A    between atoms: C_21  and  C_23
REMARK    6  A    between atoms: C_23  and  C_25
REMARK                            x       y       z     vdW  Elec       q    Type
REMARK                         _______ _______ _______ _____ _____    ______ ____
ROOT
ATOM      1  N   UNL     1      35.696 -20.196 -20.205  0.00  0.00    +0.390 N 
ATOM      2  C   UNL     1      36.784 -19.776 -21.097  0.00  0.00    -0.071 C 
ATOM      3  C   UNL     1      36.430 -18.444 -21.778  0.00  0.00    +0.021 C 
ATOM      4  C   UNL     1      34.460 -20.441 -20.967  0.00  0.00    -0.049 C 
ATOM      5  C   UNL     1      35.025 -18.422 -22.310  0.00  0.00    +0.037 C 
ATOM      6  C   UNL     1      34.127 -19.351 -21.948  0.00  0.00    -0.036 C 
ATOM      7  H   UNL     1      35.521 -19.438 -19.547  0.00  0.00    -0.079 HD
ENDROOT
BRANCH   5   9
ATOM      8  O   UNL     1      34.645 -18.603 -25.273  0.00  0.00    -0.246 OA
ATOM      9  N   UNL     1      34.708 -17.428 -23.191  0.00  0.00    -0.263 N 
ATOM     10  N   UNL     1      34.217 -16.288 -25.102  0.00  0.00    -0.305 N 
ATOM     11  C   UNL     1      34.490 -16.076 -22.864  0.00  0.00    +0.083 A 
ATOM     12  C   UNL     1      34.540 -17.582 -24.606  0.00  0.00    +0.332 A 
ATOM     13  C   UNL     1      34.191 -15.388 -24.039  0.00  0.00    +0.076 A 
ATOM     14  C   UNL     1      34.533 -15.425 -21.648  0.00  0.00    +0.019 C 
ATOM     15  C   UNL     1      33.924 -14.037 -24.061  0.00  0.00    +0.019 C 
ATOM     16  C   UNL     1      34.267 -14.051 -21.644  0.00  0.00    +0.002 C 
ATOM     17  C   UNL     1      33.965 -13.365 -22.838  0.00  0.00    +0.002 C 
ATOM     18  H   UNL     1      34.041 -16.064 -26.045  0.00  0.00    +0.170 HD
ENDBRANCH   5   9
BRANCH   1  19
ATOM     19  C   UNL     1      36.074 -21.381 -19.438  0.00  0.00    -0.076 C 
BRANCH  19  20
ATOM     20  C   UNL     1      34.955 -22.423 -19.487  0.00  0.00    -0.015 C 
BRANCH  20  21
ATOM     21  C   UNL     1      34.424 -22.773 -18.094  0.00  0.00    +0.067 C 
BRANCH  21  23
ATOM     22  O   UNL     1      32.198 -22.381 -18.940  0.00  0.00    -0.291 OA
ATOM     23  C   UNL     1      32.906 -22.719 -17.995  0.00  0.00    +0.173 C 
BRANCH  23  25
ATOM     24  F   UNL     1      30.490 -24.189 -13.180  0.00  0.00    -0.204 F 
ATOM     25  C   UNL     1      32.260 -23.110 -16.709  0.00  0.00    +0.035 C 
ATOM     26  C   UNL     1      33.063 -23.486 -15.655  0.00  0.00    +0.005 C 
ATOM     27  C   UNL     1      30.887 -23.083 -16.624  0.00  0.00    +0.005 C 
ATOM     28  C   UNL     1      32.459 -23.854 -14.452  0.00  0.00    +0.030 C 
ATOM     29  C   UNL     1      30.283 -23.451 -15.421  0.00  0.00    +0.030 C 
ATOM     30  C   UNL     1      31.069 -23.836 -14.335  0.00  0.00    +0.140 C 
ENDBRANCH  23  25
ENDBRANCH  21  23
ENDBRANCH  20  21
ENDBRANCH  19  20
ENDBRANCH   1  19
TORSDOF 6
ENDMDL
MODEL 7
REMARK VINA RESULT:     -10.7      3.107      8.897
REMARK  Name = 3168
REMARK  6 active torsions:
REMARK  status: ('A' for Active; 'I' for Inactive)
REMARK    1  A    between atoms: N_1  and  C_19
REMARK    2  A    between atoms: C_5  and  N_9
REMARK    3  A    between atoms: C_19  and  C_20
REMARK    4  A    between atoms: C_20  and  C_21
REMARK    5  A    between atoms: C_21  and  C_23
REMARK    6  A    between atoms: C_23  and  C_25
REMARK                            x       y       z     vdW  Elec       q    Type
REMARK                         _______ _______ _______ _____ _____    ______ ____
ROOT
ATOM      1  N   UNL     1      34.591 -16.329 -24.350  0.00  0.00    +0.390 N 
ATOM      2  C   UNL     1      34.404 -15.960 -22.941  0.00  0.00    -0.071 C 
ATOM      3  C   UNL     1      35.191 -16.916 -22.031  0.00  0.00    +0.021 C 
ATOM      4  C   UNL     1      34.059 -17.676 -24.613  0.00  0.00    -0.049 C 
ATOM      5  C   UNL     1      35.017 -18.358 -22.418  0.00  0.00    +0.037 C 
ATOM      6  C   UNL     1      34.482 -18.703 -23.599  0.00  0.00    -0.036 C 
ATOM      7  H   UNL     1      35.593 -16.338 -24.540  0.00  0.00    -0.079 HD
ENDROOT
BRANCH   5   9
ATOM      8  O   UNL     1      37.778 -18.963 -21.435  0.00  0.00    -0.246 OA
ATOM      9  N   UNL     1      35.411 -19.298 -21.510  0.00  0.00    -0.263 N 
ATOM     10  N   UNL     1      36.681 -20.600 -20.136  0.00  0.00    -0.305 N 
ATOM     11  C   UNL     1      34.565 -20.198 -20.834  0.00  0.00    +0.083 A 
ATOM     12  C   UNL     1      36.758 -19.538 -21.080  0.00  0.00    +0.332 A 
ATOM     13  C   UNL     1      35.350 -20.989 -19.998  0.00  0.00    +0.076 A 
ATOM     14  C   UNL     1      33.196 -20.368 -20.899  0.00  0.00    +0.019 C 
ATOM     15  C   UNL     1      34.820 -21.974 -19.195  0.00  0.00    +0.019 C 
ATOM     16  C   UNL     1      32.633 -21.364 -20.093  0.00  0.00    +0.002 C 
ATOM     17  C   UNL     1      33.437 -22.158 -19.250  0.00  0.00    +0.002 C 
ATOM     18  H   UNL     1      37.445 -20.997 -19.658  0.00  0.00    +0.170 HD
ENDBRANCH   5   9
BRANCH   1  19
ATOM     19  C   UNL     1      33.972 -15.346 -25.237  0.00  0.00    -0.076 C 
BRANCH  19  20
ATOM     20  C   UNL     1      33.178 -14.324 -24.422  0.00  0.00    -0.015 C 
BRANCH  20  21
ATOM     21  C   UNL     1      34.055 -13.175 -23.916  0.00  0.00    +0.067 C 
BRANCH  21  23
ATOM     22  O   UNL     1      33.480 -11.054 -24.914  0.00  0.00    -0.291 OA
ATOM     23  C   UNL     1      33.361 -11.821 -23.962  0.00  0.00    +0.173 C 
BRANCH  23  25
ATOM     24  F   UNL     1      30.119 -10.329 -19.668  0.00  0.00    -0.204 F 
ATOM     25  C   UNL     1      32.494 -11.424 -22.816  0.00  0.00    +0.035 C 
ATOM     26  C   UNL     1      32.121 -10.104 -22.697  0.00  0.00    +0.005 C 
ATOM     27  C   UNL     1      32.101 -12.390 -21.918  0.00  0.00    +0.005 C 
ATOM     28  C   UNL     1      31.311  -9.731 -21.624  0.00  0.00    +0.030 C 
ATOM     29  C   UNL     1      31.292 -12.018 -20.844  0.00  0.00    +0.030 C 
ATOM     30  C   UNL     1      30.896 -10.687 -20.698  0.00  0.00    +0.140 C 
ENDBRANCH  23  25
ENDBRANCH  21  23
ENDBRANCH  20  21
ENDBRANCH  19  20
ENDBRANCH   1  19
TORSDOF 6
ENDMDL
MODEL 8
REMARK VINA RESULT:     -10.6      5.452     11.218
REMARK  Name = 3168
REMARK  6 active torsions:
REMARK  status: ('A' for Active; 'I' for Inactive)
REMARK    1  A    between atoms: N_1  and  C_19
REMARK    2  A    between atoms: C_5  and  N_9
REMARK    3  A    between atoms: C_19  and  C_20
REMARK    4  A    between atoms: C_20  and  C_21
REMARK    5  A    between atoms: C_21  and  C_23
REMARK    6  A    between atoms: C_23  and  C_25
REMARK                            x       y       z     vdW  Elec       q    Type
REMARK                         _______ _______ _______ _____ _____    ______ ____
ROOT
ATOM      1  N   UNL     1      35.110 -21.538 -19.133  0.00  0.00    +0.390 N 
ATOM      2  C   UNL     1      34.224 -22.661 -19.461  0.00  0.00    -0.071 C 
ATOM      3  C   UNL     1      33.425 -23.090 -18.221  0.00  0.00    +0.021 C 
ATOM      4  C   UNL     1      36.104 -21.933 -18.121  0.00  0.00    -0.049 C 
ATOM      5  C   UNL     1      34.279 -23.194 -16.989  0.00  0.00    +0.037 C 
ATOM      6  C   UNL     1      35.516 -22.675 -16.952  0.00  0.00    -0.036 C 
ATOM      7  H   UNL     1      34.536 -20.791 -18.743  0.00  0.00    -0.079 HD
ENDROOT
BRANCH   5   9
ATOM      8  O   UNL     1      35.644 -25.043 -15.073  0.00  0.00    -0.246 OA
ATOM      9  N   UNL     1      33.749 -23.853 -15.917  0.00  0.00    -0.263 N 
ATOM     10  N   UNL     1      33.508 -25.177 -14.078  0.00  0.00    -0.305 N 
ATOM     11  C   UNL     1      32.410 -23.788 -15.489  0.00  0.00    +0.083 A 
ATOM     12  C   UNL     1      34.462 -24.730 -15.034  0.00  0.00    +0.332 A 
ATOM     13  C   UNL     1      32.273 -24.601 -14.365  0.00  0.00    +0.076 A 
ATOM     14  C   UNL     1      31.334 -23.090 -15.999  0.00  0.00    +0.019 C 
ATOM     15  C   UNL     1      31.075 -24.756 -13.702  0.00  0.00    +0.019 C 
ATOM     16  C   UNL     1      30.106 -23.231 -15.343  0.00  0.00    +0.002 C 
ATOM     17  C   UNL     1      29.979 -24.055 -14.206  0.00  0.00    +0.002 C 
ATOM     18  H   UNL     1      33.692 -25.795 -13.333  0.00  0.00    +0.170 HD
ENDBRANCH   5   9
BRANCH   1  19
ATOM     19  C   UNL     1      35.769 -21.021 -20.331  0.00  0.00    -0.076 C 
BRANCH  19  20
ATOM     20  C   UNL     1      34.843 -20.050 -21.065  0.00  0.00    -0.015 C 
BRANCH  20  21
ATOM     21  C   UNL     1      35.619 -18.991 -21.855  0.00  0.00    +0.067 C 
BRANCH  21  23
ATOM     22  O   UNL     1      34.834 -19.607 -24.053  0.00  0.00    -0.291 OA
ATOM     23  C   UNL     1      35.033 -18.714 -23.232  0.00  0.00    +0.173 C 
BRANCH  23  25
ATOM     24  F   UNL     1      33.672 -13.462 -24.549  0.00  0.00    -0.204 F 
ATOM     25  C   UNL     1      34.671 -17.312 -23.585  0.00  0.00    +0.035 C 
ATOM     26  C   UNL     1      34.855 -16.325 -22.642  0.00  0.00    +0.005 C 
ATOM     27  C   UNL     1      34.164 -17.055 -24.838  0.00  0.00    +0.005 C 
ATOM     28  C   UNL     1      34.515 -15.013 -22.971  0.00  0.00    +0.030 C 
ATOM     29  C   UNL     1      33.823 -15.743 -25.168  0.00  0.00    +0.030 C 
ATOM     30  C   UNL     1      33.999 -14.721 -24.233  0.00  0.00    +0.140 C 
ENDBRANCH  23  25
ENDBRANCH  21  23
ENDBRANCH  20  21
ENDBRANCH  19  20
ENDBRANCH   1  19
TORSDOF 6
ENDMDL
MODEL 9
REMARK VINA RESULT:     -10.6      3.430      6.338
REMARK  Name = 3168
REMARK  6 active torsions:
REMARK  status: ('A' for Active; 'I' for Inactive)
REMARK    1  A    between atoms: N_1  and  C_19
REMARK    2  A    between atoms: C_5  and  N_9
REMARK    3  A    between atoms: C_19  and  C_20
REMARK    4  A    between atoms: C_20  and  C_21
REMARK    5  A    between atoms: C_21  and  C_23
REMARK    6  A    between atoms: C_23  and  C_25
REMARK                            x       y       z     vdW  Elec       q    Type
REMARK                         _______ _______ _______ _____ _____    ______ ____
ROOT
ATOM      1  N   UNL     1      35.968 -20.492 -19.704  0.00  0.00    +0.390 N 
ATOM      2  C   UNL     1      37.010 -20.128 -20.673  0.00  0.00    -0.071 C 
ATOM      3  C   UNL     1      36.606 -18.858 -21.437  0.00  0.00    +0.021 C 
ATOM      4  C   UNL     1      34.704 -20.809 -20.388  0.00  0.00    -0.049 C 
ATOM      5  C   UNL     1      35.179 -18.893 -21.906  0.00  0.00    +0.037 C 
ATOM      6  C   UNL     1      34.312 -19.801 -21.433  0.00  0.00    -0.036 C 
ATOM      7  H   UNL     1      35.811 -19.687 -19.098  0.00  0.00    -0.079 HD
ENDROOT
BRANCH   5   9
ATOM      8  O   UNL     1      34.664 -19.307 -24.824  0.00  0.00    -0.246 OA
ATOM      9  N   UNL     1      34.808 -17.973 -22.844  0.00  0.00    -0.263 N 
ATOM     10  N   UNL     1      34.215 -16.989 -24.813  0.00  0.00    -0.305 N 
ATOM     11  C   UNL     1      34.588 -16.602 -22.614  0.00  0.00    +0.083 A 
ATOM     12  C   UNL     1      34.577 -18.238 -24.234  0.00  0.00    +0.332 A 
ATOM     13  C   UNL     1      34.226 -16.010 -23.822  0.00  0.00    +0.076 A 
ATOM     14  C   UNL     1      34.679 -15.858 -21.454  0.00  0.00    +0.019 C 
ATOM     15  C   UNL     1      33.941 -14.667 -23.936  0.00  0.00    +0.019 C 
ATOM     16  C   UNL     1      34.395 -14.491 -21.543  0.00  0.00    +0.002 C 
ATOM     17  C   UNL     1      34.029 -13.902 -22.771  0.00  0.00    +0.002 C 
ATOM     18  H   UNL     1      33.993 -16.841 -25.761  0.00  0.00    +0.170 HD
ENDBRANCH   5   9
BRANCH   1  19
ATOM     19  C   UNL     1      36.398 -21.610 -18.866  0.00  0.00    -0.076 C 
BRANCH  19  20
ATOM     20  C   UNL     1      35.181 -22.324 -18.273  0.00  0.00    -0.015 C 
BRANCH  20  21
ATOM     21  C   UNL     1      35.316 -22.546 -16.764  0.00  0.00    +0.067 C 
BRANCH  21  23
ATOM     22  O   UNL     1      34.944 -24.826 -16.066  0.00  0.00    -0.291 OA
ATOM     23  C   UNL     1      34.475 -23.705 -16.247  0.00  0.00    +0.173 C 
BRANCH  23  25
ATOM     24  F   UNL     1      29.094 -22.785 -15.075  0.00  0.00    -0.204 F 
ATOM     25  C   UNL     1      33.038 -23.461 -15.933  0.00  0.00    +0.035 C 
ATOM     26  C   UNL     1      32.155 -23.287 -16.976  0.00  0.00    +0.005 C 
ATOM     27  C   UNL     1      32.647 -23.416 -14.614  0.00  0.00    +0.005 C 
ATOM     28  C   UNL     1      30.811 -23.057 -16.683  0.00  0.00    +0.030 C 
ATOM     29  C   UNL     1      31.303 -23.186 -14.321  0.00  0.00    +0.030 C 
ATOM     30  C   UNL     1      30.385 -23.006 -15.356  0.00  0.00    +0.140 C 
ENDBRANCH  23  25
ENDBRANCH  21  23
ENDBRANCH  20  21
ENDBRANCH  19  20
ENDBRANCH   1  19
TORSDOF 6
ENDMDL
