MODEL 1
REMARK VINA RESULT:     -13.0      0.000      0.000
REMARK  Name = 11560856
REMARK  5 active torsions:
REMARK  status: ('A' for Active; 'I' for Inactive)
REMARK    1  A    between atoms: C_2  and  O_24
REMARK    2  A    between atoms: C_3  and  N_10
REMARK    3  A    between atoms: C_12  and  C_16
REMARK    4  A    between atoms: C_16  and  C_18
REMARK    5  A    between atoms: O_24  and  C_28
REMARK                            x       y       z     vdW  Elec       q    Type
REMARK                         _______ _______ _______ _____ _____    ______ ____
ROOT
ATOM      1  F   UNL     1      36.517 -22.382 -19.067  0.00  0.00    -0.201 F 
ATOM      2  C   UNL     1      34.163 -22.346 -19.362  0.00  0.00    +0.173 C 
ATOM      3  C   UNL     1      34.394 -19.988 -20.795  0.00  0.00    +0.054 C 
ATOM      4  C   UNL     1      35.418 -21.794 -19.559  0.00  0.00    +0.176 C 
ATOM      5  C   UNL     1      33.022 -21.746 -19.865  0.00  0.00    +0.041 C 
ATOM      6  C   UNL     1      35.534 -20.607 -20.282  0.00  0.00    +0.047 C 
ATOM      7  C   UNL     1      33.138 -20.558 -20.587  0.00  0.00    +0.018 C 
ENDROOT
BRANCH   3  10
ATOM      8  O   UNL     1      34.620 -17.403 -25.577  0.00  0.00    -0.274 OA
ATOM      9  O   UNL     1      34.417 -19.515 -23.760  0.00  0.00    -0.252 OA
ATOM     10  N   UNL     1      34.511 -18.802 -21.520  0.00  0.00    -0.268 N 
ATOM     11  N   UNL     1      34.655 -17.263 -23.249  0.00  0.00    -0.239 N 
ATOM     12  C   UNL     1      34.698 -16.742 -24.545  0.00  0.00    +0.234 C 
ATOM     13  C   UNL     1      34.517 -18.626 -22.920  0.00  0.00    +0.310 C 
ATOM     14  H   UNL     1      34.601 -17.981 -20.985  0.00  0.00    +0.156 HD
ATOM     15  H   UNL     1      34.728 -16.624 -22.503  0.00  0.00    +0.159 HD
BRANCH  12  16
ATOM     16  C   UNL     1      34.855 -15.233 -24.527  0.00  0.00    +0.112 C 
BRANCH  16  18
ATOM     17  F   UNL     1      31.778 -12.716 -20.553  0.00  0.00    -0.204 F 
ATOM     18  C   UNL     1      34.030 -14.560 -23.462  0.00  0.00    -0.013 C 
ATOM     19  C   UNL     1      34.354 -14.748 -22.126  0.00  0.00    -0.001 C 
ATOM     20  C   UNL     1      32.959 -13.759 -23.833  0.00  0.00    -0.001 C 
ATOM     21  C   UNL     1      33.590 -14.123 -21.139  0.00  0.00    +0.029 C 
ATOM     22  C   UNL     1      32.195 -13.135 -22.847  0.00  0.00    +0.029 C 
ATOM     23  C   UNL     1      32.511 -13.316 -21.501  0.00  0.00    +0.140 C 
ENDBRANCH  16  18
ENDBRANCH  12  16
ENDBRANCH   3  10
BRANCH   2  24
ATOM     24  O   UNL     1      34.048 -23.522 -18.647  0.00  0.00    -0.451 OA
BRANCH  24  28
ATOM     25  N   UNL     1      34.821 -23.238 -14.065  0.00  0.00    -0.297 N 
ATOM     26  N   UNL     1      32.504 -23.272 -14.725  0.00  0.00    -0.229 NA
ATOM     27  C   UNL     1      34.416 -23.375 -16.256  0.00  0.00    +0.067 C 
ATOM     28  C   UNL     1      33.565 -23.441 -17.372  0.00  0.00    +0.150 C 
ATOM     29  C   UNL     1      33.821 -23.293 -15.000  0.00  0.00    +0.135 C 
ATOM     30  C   UNL     1      35.820 -23.367 -16.048  0.00  0.00    +0.022 C 
ATOM     31  C   UNL     1      36.039 -23.281 -14.690  0.00  0.00    +0.063 C 
ATOM     32  C   UNL     1      32.190 -23.422 -17.143  0.00  0.00    +0.058 C 
ATOM     33  C   UNL     1      31.732 -23.340 -15.834  0.00  0.00    +0.103 C 
ATOM     34  H   UNL     1      34.683 -23.175 -13.091  0.00  0.00    +0.154 HD
ENDBRANCH  24  28
ENDBRANCH   2  24
TORSDOF 5
ENDMDL
MODEL 2
REMARK VINA RESULT:     -12.4      0.540      1.929
REMARK  Name = 11560856
REMARK  5 active torsions:
REMARK  status: ('A' for Active; 'I' for Inactive)
REMARK    1  A    between atoms: C_2  and  O_24
REMARK    2  A    between atoms: C_3  and  N_10
REMARK    3  A    between atoms: C_12  and  C_16
REMARK    4  A    between atoms: C_16  and  C_18
REMARK    5  A    between atoms: O_24  and  C_28
REMARK                            x       y       z     vdW  Elec       q    Type
REMARK                         _______ _______ _______ _____ _____    ______ ____
ROOT
ATOM      1  F   UNL     1      36.530 -22.413 -18.964  0.00  0.00    -0.201 F 
ATOM      2  C   UNL     1      34.176 -22.361 -19.251  0.00  0.00    +0.173 C 
ATOM      3  C   UNL     1      34.422 -20.033 -20.730  0.00  0.00    +0.054 C 
ATOM      4  C   UNL     1      35.435 -21.824 -19.464  0.00  0.00    +0.176 C 
ATOM      5  C   UNL     1      33.038 -21.760 -19.761  0.00  0.00    +0.041 C 
ATOM      6  C   UNL     1      35.559 -20.652 -20.209  0.00  0.00    +0.047 C 
ATOM      7  C   UNL     1      33.162 -20.588 -20.506  0.00  0.00    +0.018 C 
ENDROOT
BRANCH   3  10
ATOM      8  O   UNL     1      34.584 -17.533 -25.559  0.00  0.00    -0.274 OA
ATOM      9  O   UNL     1      34.380 -19.609 -23.702  0.00  0.00    -0.252 OA
ATOM     10  N   UNL     1      34.547 -18.861 -21.476  0.00  0.00    -0.268 N 
ATOM     11  N   UNL     1      34.681 -17.355 -23.234  0.00  0.00    -0.239 N 
ATOM     12  C   UNL     1      34.702 -16.856 -24.540  0.00  0.00    +0.234 C 
ATOM     13  C   UNL     1      34.521 -18.708 -22.879  0.00  0.00    +0.310 C 
ATOM     14  H   UNL     1      34.669 -18.034 -20.959  0.00  0.00    +0.156 HD
ATOM     15  H   UNL     1      34.787 -16.705 -22.502  0.00  0.00    +0.159 HD
BRANCH  12  16
ATOM     16  C   UNL     1      34.893 -15.352 -24.551  0.00  0.00    +0.112 C 
BRANCH  16  18
ATOM     17  F   UNL     1      31.850 -12.693 -20.644  0.00  0.00    -0.204 F 
ATOM     18  C   UNL     1      34.078 -14.638 -23.504  0.00  0.00    -0.013 C 
ATOM     19  C   UNL     1      33.037 -13.810 -23.897  0.00  0.00    -0.001 C 
ATOM     20  C   UNL     1      34.380 -14.822 -22.163  0.00  0.00    -0.001 C 
ATOM     21  C   UNL     1      32.282 -13.150 -22.927  0.00  0.00    +0.029 C 
ATOM     22  C   UNL     1      33.625 -14.162 -21.193  0.00  0.00    +0.029 C 
ATOM     23  C   UNL     1      32.576 -13.327 -21.575  0.00  0.00    +0.140 C 
ENDBRANCH  16  18
ENDBRANCH  12  16
ENDBRANCH   3  10
BRANCH   2  24
ATOM     24  O   UNL     1      34.053 -23.523 -18.514  0.00  0.00    -0.451 OA
BRANCH  24  28
ATOM     25  N   UNL     1      31.323 -23.039 -14.773  0.00  0.00    -0.297 N 
ATOM     26  N   UNL     1      33.688 -23.145 -14.324  0.00  0.00    -0.229 NA
ATOM     27  C   UNL     1      32.661 -23.270 -16.546  0.00  0.00    +0.067 C 
ATOM     28  C   UNL     1      33.918 -23.400 -17.159  0.00  0.00    +0.150 C 
ATOM     29  C   UNL     1      32.633 -23.152 -15.160  0.00  0.00    +0.135 C 
ATOM     30  C   UNL     1      31.313 -23.225 -16.990  0.00  0.00    +0.022 C 
ATOM     31  C   UNL     1      30.512 -23.083 -15.876  0.00  0.00    +0.063 C 
ATOM     32  C   UNL     1      35.045 -23.399 -16.339  0.00  0.00    +0.058 C 
ATOM     33  C   UNL     1      34.872 -23.271 -14.967  0.00  0.00    +0.103 C 
ATOM     34  H   UNL     1      31.013 -22.942 -13.843  0.00  0.00    +0.154 HD
ENDBRANCH  24  28
ENDBRANCH   2  24
TORSDOF 5
ENDMDL
MODEL 3
REMARK VINA RESULT:     -12.4      4.060     11.316
REMARK  Name = 11560856
REMARK  5 active torsions:
REMARK  status: ('A' for Active; 'I' for Inactive)
REMARK    1  A    between atoms: C_2  and  O_24
REMARK    2  A    between atoms: C_3  and  N_10
REMARK    3  A    between atoms: C_12  and  C_16
REMARK    4  A    between atoms: C_16  and  C_18
REMARK    5  A    between atoms: O_24  and  C_28
REMARK                            x       y       z     vdW  Elec       q    Type
REMARK                         _______ _______ _______ _____ _____    ______ ____
ROOT
ATOM      1  F   UNL     1      30.944 -12.002 -20.966  0.00  0.00    -0.201 F 
ATOM      2  C   UNL     1      32.392 -11.741 -22.826  0.00  0.00    +0.173 C 
ATOM      3  C   UNL     1      33.680 -14.092 -22.135  0.00  0.00    +0.054 C 
ATOM      4  C   UNL     1      31.966 -12.444 -21.712  0.00  0.00    +0.176 C 
ATOM      5  C   UNL     1      33.448 -12.187 -23.603  0.00  0.00    +0.041 C 
ATOM      6  C   UNL     1      32.614 -13.629 -21.365  0.00  0.00    +0.047 C 
ATOM      7  C   UNL     1      34.097 -13.372 -23.255  0.00  0.00    +0.018 C 
ENDROOT
BRANCH   3  10
ATOM      8  O   UNL     1      35.771 -18.902 -23.581  0.00  0.00    -0.274 OA
ATOM      9  O   UNL     1      34.507 -16.424 -23.836  0.00  0.00    -0.252 OA
ATOM     10  N   UNL     1      34.327 -15.279 -21.788  0.00  0.00    -0.268 N 
ATOM     11  N   UNL     1      35.335 -17.365 -21.881  0.00  0.00    -0.239 N 
ATOM     12  C   UNL     1      35.826 -18.566 -22.401  0.00  0.00    +0.234 C 
ATOM     13  C   UNL     1      34.698 -16.352 -22.625  0.00  0.00    +0.310 C 
ATOM     14  H   UNL     1      34.554 -15.380 -20.836  0.00  0.00    +0.156 HD
ATOM     15  H   UNL     1      35.441 -17.216 -20.914  0.00  0.00    +0.159 HD
BRANCH  12  16
ATOM     16  C   UNL     1      36.449 -19.422 -21.315  0.00  0.00    +0.112 C 
BRANCH  16  18
ATOM     17  F   UNL     1      32.764 -22.819 -18.769  0.00  0.00    -0.204 F 
ATOM     18  C   UNL     1      35.461 -20.333 -20.634  0.00  0.00    -0.013 C 
ATOM     19  C   UNL     1      35.924 -21.330 -19.786  0.00  0.00    -0.001 C 
ATOM     20  C   UNL     1      34.104 -20.161 -20.862  0.00  0.00    -0.001 C 
ATOM     21  C   UNL     1      35.009 -22.174 -19.155  0.00  0.00    +0.029 C 
ATOM     22  C   UNL     1      33.189 -21.005 -20.231  0.00  0.00    +0.029 C 
ATOM     23  C   UNL     1      33.642 -22.009 -19.377  0.00  0.00    +0.140 C 
ENDBRANCH  16  18
ENDBRANCH  12  16
ENDBRANCH   3  10
BRANCH   2  24
ATOM     24  O   UNL     1      31.750 -10.567 -23.171  0.00  0.00    -0.451 OA
BRANCH  24  28
ATOM     25  N   UNL     1      34.705  -6.980 -23.450  0.00  0.00    -0.297 N 
ATOM     26  N   UNL     1      33.240  -6.971 -21.537  0.00  0.00    -0.229 NA
ATOM     27  C   UNL     1      33.275  -8.688 -23.286  0.00  0.00    +0.067 C 
ATOM     28  C   UNL     1      32.243  -9.402 -22.656  0.00  0.00    +0.150 C 
ATOM     29  C   UNL     1      33.705  -7.511 -22.678  0.00  0.00    +0.135 C 
ATOM     30  C   UNL     1      34.055  -8.852 -24.462  0.00  0.00    +0.022 C 
ATOM     31  C   UNL     1      34.925  -7.786 -24.536  0.00  0.00    +0.063 C 
ATOM     32  C   UNL     1      31.725  -8.885 -21.469  0.00  0.00    +0.058 C 
ATOM     33  C   UNL     1      32.250  -7.699 -20.972  0.00  0.00    +0.103 C 
ATOM     34  H   UNL     1      35.190  -6.146 -23.254  0.00  0.00    +0.154 HD
ENDBRANCH  24  28
ENDBRANCH   2  24
TORSDOF 5
ENDMDL
MODEL 4
REMARK VINA RESULT:     -12.1      2.531      3.963
REMARK  Name = 11560856
REMARK  5 active torsions:
REMARK  status: ('A' for Active; 'I' for Inactive)
REMARK    1  A    between atoms: C_2  and  O_24
REMARK    2  A    between atoms: C_3  and  N_10
REMARK    3  A    between atoms: C_12  and  C_16
REMARK    4  A    between atoms: C_16  and  C_18
REMARK    5  A    between atoms: O_24  and  C_28
REMARK                            x       y       z     vdW  Elec       q    Type
REMARK                         _______ _______ _______ _____ _____    ______ ____
ROOT
ATOM      1  F   UNL     1      32.161 -24.171 -16.719  0.00  0.00    -0.201 F 
ATOM      2  C   UNL     1      34.409 -23.534 -16.313  0.00  0.00    +0.173 C 
ATOM      3  C   UNL     1      34.428 -22.133 -18.701  0.00  0.00    +0.054 C 
ATOM      4  C   UNL     1      33.268 -23.519 -17.098  0.00  0.00    +0.176 C 
ATOM      5  C   UNL     1      35.560 -22.865 -16.695  0.00  0.00    +0.041 C 
ATOM      6  C   UNL     1      33.278 -22.812 -18.300  0.00  0.00    +0.047 C 
ATOM      7  C   UNL     1      35.569 -22.159 -17.898  0.00  0.00    +0.018 C 
ENDROOT
BRANCH   3  10
ATOM      8  O   UNL     1      36.892 -18.672 -22.100  0.00  0.00    -0.274 OA
ATOM      9  O   UNL     1      36.474 -20.248 -19.832  0.00  0.00    -0.252 OA
ATOM     10  N   UNL     1      34.437 -21.426 -19.903  0.00  0.00    -0.268 N 
ATOM     11  N   UNL     1      35.051 -20.035 -21.655  0.00  0.00    -0.239 N 
ATOM     12  C   UNL     1      35.801 -19.138 -22.421  0.00  0.00    +0.234 C 
ATOM     13  C   UNL     1      35.425 -20.547 -20.396  0.00  0.00    +0.310 C 
ATOM     14  H   UNL     1      33.653 -21.556 -20.483  0.00  0.00    +0.156 HD
ATOM     15  H   UNL     1      34.190 -20.334 -22.026  0.00  0.00    +0.159 HD
BRANCH  12  16
ATOM     16  C   UNL     1      35.096 -18.800 -23.720  0.00  0.00    +0.112 C 
BRANCH  16  18
ATOM     17  F   UNL     1      33.651 -13.384 -24.128  0.00  0.00    -0.204 F 
ATOM     18  C   UNL     1      34.710 -17.348 -23.830  0.00  0.00    -0.013 C 
ATOM     19  C   UNL     1      34.172 -16.873 -25.018  0.00  0.00    -0.001 C 
ATOM     20  C   UNL     1      34.895 -16.509 -22.741  0.00  0.00    -0.001 C 
ATOM     21  C   UNL     1      33.814 -15.528 -25.119  0.00  0.00    +0.029 C 
ATOM     22  C   UNL     1      34.537 -15.164 -22.843  0.00  0.00    +0.029 C 
ATOM     23  C   UNL     1      33.996 -14.675 -24.031  0.00  0.00    +0.140 C 
ENDBRANCH  16  18
ENDBRANCH  12  16
ENDBRANCH   3  10
BRANCH   2  24
ATOM     24  O   UNL     1      34.400 -24.232 -15.121  0.00  0.00    -0.451 OA
BRANCH  24  28
ATOM     25  N   UNL     1      38.226 -24.670 -12.504  0.00  0.00    -0.297 N 
ATOM     26  N   UNL     1      37.876 -26.415 -14.127  0.00  0.00    -0.229 NA
ATOM     27  C   UNL     1      36.400 -24.489 -13.776  0.00  0.00    +0.067 C 
ATOM     28  C   UNL     1      35.529 -24.927 -14.787  0.00  0.00    +0.150 C 
ATOM     29  C   UNL     1      37.521 -25.271 -13.514  0.00  0.00    +0.135 C 
ATOM     30  C   UNL     1      36.449 -23.386 -12.884  0.00  0.00    +0.022 C 
ATOM     31  C   UNL     1      37.584 -23.524 -12.113  0.00  0.00    +0.063 C 
ATOM     32  C   UNL     1      35.849 -26.108 -15.455  0.00  0.00    +0.058 C 
ATOM     33  C   UNL     1      37.003 -26.789 -15.092  0.00  0.00    +0.103 C 
ATOM     34  H   UNL     1      39.066 -25.010 -12.118  0.00  0.00    +0.154 HD
ENDBRANCH  24  28
ENDBRANCH   2  24
TORSDOF 5
ENDMDL
MODEL 5
REMARK VINA RESULT:     -12.0      4.492     12.005
REMARK  Name = 11560856
REMARK  5 active torsions:
REMARK  status: ('A' for Active; 'I' for Inactive)
REMARK    1  A    between atoms: C_2  and  O_24
REMARK    2  A    between atoms: C_3  and  N_10
REMARK    3  A    between atoms: C_12  and  C_16
REMARK    4  A    between atoms: C_16  and  C_18
REMARK    5  A    between atoms: O_24  and  C_28
REMARK                            x       y       z     vdW  Elec       q    Type
REMARK                         _______ _______ _______ _____ _____    ______ ____
ROOT
ATOM      1  F   UNL     1      33.263 -11.944 -27.767  0.00  0.00    -0.201 F 
ATOM      2  C   UNL     1      33.442 -11.248 -25.507  0.00  0.00    +0.173 C 
ATOM      3  C   UNL     1      33.842 -13.879 -24.743  0.00  0.00    +0.054 C 
ATOM      4  C   UNL     1      33.449 -12.240 -26.474  0.00  0.00    +0.176 C 
ATOM      5  C   UNL     1      33.631 -11.542 -24.167  0.00  0.00    +0.041 C 
ATOM      6  C   UNL     1      33.651 -13.565 -26.088  0.00  0.00    +0.047 C 
ATOM      7  C   UNL     1      33.833 -12.868 -23.783  0.00  0.00    +0.018 C 
ENDROOT
BRANCH   3  10
ATOM      8  O   UNL     1      35.348 -17.501 -20.973  0.00  0.00    -0.274 OA
ATOM      9  O   UNL     1      34.810 -15.021 -22.140  0.00  0.00    -0.252 OA
ATOM     10  N   UNL     1      34.046 -15.205 -24.359  0.00  0.00    -0.268 N 
ATOM     11  N   UNL     1      34.572 -17.105 -23.137  0.00  0.00    -0.239 N 
ATOM     12  C   UNL     1      34.986 -17.911 -22.073  0.00  0.00    +0.234 C 
ATOM     13  C   UNL     1      34.505 -15.698 -23.119  0.00  0.00    +0.310 C 
ATOM     14  H   UNL     1      33.845 -15.884 -25.041  0.00  0.00    +0.156 HD
ATOM     15  H   UNL     1      34.306 -17.558 -23.970  0.00  0.00    +0.159 HD
BRANCH  12  16
ATOM     16  C   UNL     1      34.935 -19.380 -22.444  0.00  0.00    +0.112 C 
BRANCH  16  18
ATOM     17  F   UNL     1      33.795 -22.743 -18.087  0.00  0.00    -0.204 F 
ATOM     18  C   UNL     1      34.630 -20.281 -21.276  0.00  0.00    -0.013 C 
ATOM     19  C   UNL     1      33.310 -20.493 -20.904  0.00  0.00    -0.001 C 
ATOM     20  C   UNL     1      35.672 -20.886 -20.590  0.00  0.00    -0.001 C 
ATOM     21  C   UNL     1      33.027 -21.327 -19.822  0.00  0.00    +0.029 C 
ATOM     22  C   UNL     1      35.390 -21.720 -19.508  0.00  0.00    +0.029 C 
ATOM     23  C   UNL     1      34.067 -21.942 -19.125  0.00  0.00    +0.140 C 
ENDBRANCH  16  18
ENDBRANCH  12  16
ENDBRANCH   3  10
BRANCH   2  24
ATOM     24  O   UNL     1      33.243  -9.935 -25.888  0.00  0.00    -0.451 OA
BRANCH  24  28
ATOM     25  N   UNL     1      32.398  -7.024 -22.354  0.00  0.00    -0.297 N 
ATOM     26  N   UNL     1      34.621  -6.917 -23.276  0.00  0.00    -0.229 NA
ATOM     27  C   UNL     1      32.835  -8.407 -24.051  0.00  0.00    +0.067 C 
ATOM     28  C   UNL     1      33.673  -8.958 -25.035  0.00  0.00    +0.150 C 
ATOM     29  C   UNL     1      33.373  -7.418 -23.233  0.00  0.00    +0.135 C 
ATOM     30  C   UNL     1      31.492  -8.601 -23.635  0.00  0.00    +0.022 C 
ATOM     31  C   UNL     1      31.251  -7.737 -22.588  0.00  0.00    +0.063 C 
ATOM     32  C   UNL     1      34.978  -8.476 -25.122  0.00  0.00    +0.058 C 
ATOM     33  C   UNL     1      35.383  -7.482 -24.241  0.00  0.00    +0.103 C 
ATOM     34  H   UNL     1      32.506  -6.334 -21.659  0.00  0.00    +0.154 HD
ENDBRANCH  24  28
ENDBRANCH   2  24
TORSDOF 5
ENDMDL
MODEL 6
REMARK VINA RESULT:     -11.6      3.108     10.691
REMARK  Name = 11560856
REMARK  5 active torsions:
REMARK  status: ('A' for Active; 'I' for Inactive)
REMARK    1  A    between atoms: C_2  and  O_24
REMARK    2  A    between atoms: C_3  and  N_10
REMARK    3  A    between atoms: C_12  and  C_16
REMARK    4  A    between atoms: C_16  and  C_18
REMARK    5  A    between atoms: O_24  and  C_28
REMARK                            x       y       z     vdW  Elec       q    Type
REMARK                         _______ _______ _______ _____ _____    ______ ____
ROOT
ATOM      1  F   UNL     1      33.437 -19.405 -22.701  0.00  0.00    -0.201 F 
ATOM      2  C   UNL     1      35.647 -18.689 -22.222  0.00  0.00    +0.173 C 
ATOM      3  C   UNL     1      35.832 -20.628 -20.254  0.00  0.00    +0.054 C 
ATOM      4  C   UNL     1      34.566 -19.524 -21.990  0.00  0.00    +0.176 C 
ATOM      5  C   UNL     1      36.818 -18.801 -21.491  0.00  0.00    +0.041 C 
ATOM      6  C   UNL     1      34.661 -20.501 -21.000  0.00  0.00    +0.047 C 
ATOM      7  C   UNL     1      36.911 -19.778 -20.500  0.00  0.00    +0.018 C 
ENDROOT
BRANCH   3  10
ATOM      8  O   UNL     1      37.603 -22.205 -15.357  0.00  0.00    -0.274 OA
ATOM      9  O   UNL     1      37.177 -20.554 -17.571  0.00  0.00    -0.252 OA
ATOM     10  N   UNL     1      35.926 -21.606 -19.264  0.00  0.00    -0.268 N 
ATOM     11  N   UNL     1      36.434 -22.739 -17.305  0.00  0.00    -0.239 N 
ATOM     12  C   UNL     1      36.954 -22.999 -16.034  0.00  0.00    +0.234 C 
ATOM     13  C   UNL     1      36.572 -21.528 -18.012  0.00  0.00    +0.310 C 
ATOM     14  H   UNL     1      35.486 -22.463 -19.465  0.00  0.00    +0.156 HD
ATOM     15  H   UNL     1      35.930 -23.462 -17.743  0.00  0.00    +0.159 HD
BRANCH  12  16
ATOM     16  C   UNL     1      36.615 -24.406 -15.579  0.00  0.00    +0.112 C 
BRANCH  16  18
ATOM     17  F   UNL     1      35.273 -24.726 -10.130  0.00  0.00    -0.204 F 
ATOM     18  C   UNL     1      36.256 -24.490 -14.118  0.00  0.00    -0.013 C 
ATOM     19  C   UNL     1      34.969 -24.167 -13.712  0.00  0.00    -0.001 C 
ATOM     20  C   UNL     1      37.217 -24.892 -13.201  0.00  0.00    -0.001 C 
ATOM     21  C   UNL     1      34.636 -24.246 -12.359  0.00  0.00    +0.029 C 
ATOM     22  C   UNL     1      36.884 -24.971 -11.849  0.00  0.00    +0.029 C 
ATOM     23  C   UNL     1      35.594 -24.650 -11.428  0.00  0.00    +0.140 C 
ENDBRANCH  16  18
ENDBRANCH  12  16
ENDBRANCH   3  10
BRANCH   2  24
ATOM     24  O   UNL     1      35.554 -17.721 -23.204  0.00  0.00    -0.451 OA
BRANCH  24  28
ATOM     25  N   UNL     1      33.185 -13.933 -24.511  0.00  0.00    -0.297 N 
ATOM     26  N   UNL     1      33.631 -14.113 -22.150  0.00  0.00    -0.229 NA
ATOM     27  C   UNL     1      34.321 -15.739 -23.851  0.00  0.00    +0.067 C 
ATOM     28  C   UNL     1      34.928 -16.551 -22.879  0.00  0.00    +0.150 C 
ATOM     29  C   UNL     1      33.708 -14.567 -23.415  0.00  0.00    +0.135 C 
ATOM     30  C   UNL     1      34.148 -15.794 -25.259  0.00  0.00    +0.022 C 
ATOM     31  C   UNL     1      33.445 -14.669 -25.637  0.00  0.00    +0.063 C 
ATOM     32  C   UNL     1      34.877 -16.127 -21.553  0.00  0.00    +0.058 C 
ATOM     33  C   UNL     1      34.233 -14.932 -21.258  0.00  0.00    +0.103 C 
ATOM     34  H   UNL     1      32.695 -13.079 -24.492  0.00  0.00    +0.154 HD
ENDBRANCH  24  28
ENDBRANCH   2  24
TORSDOF 5
ENDMDL
MODEL 7
REMARK VINA RESULT:     -11.6      4.176      5.919
REMARK  Name = 11560856
REMARK  5 active torsions:
REMARK  status: ('A' for Active; 'I' for Inactive)
REMARK    1  A    between atoms: C_2  and  O_24
REMARK    2  A    between atoms: C_3  and  N_10
REMARK    3  A    between atoms: C_12  and  C_16
REMARK    4  A    between atoms: C_16  and  C_18
REMARK    5  A    between atoms: O_24  and  C_28
REMARK                            x       y       z     vdW  Elec       q    Type
REMARK                         _______ _______ _______ _____ _____    ______ ____
ROOT
ATOM      1  F   UNL     1      34.533 -19.151 -24.972  0.00  0.00    -0.201 F 
ATOM      2  C   UNL     1      35.104 -18.332 -22.821  0.00  0.00    +0.173 C 
ATOM      3  C   UNL     1      34.623 -15.748 -23.693  0.00  0.00    +0.054 C 
ATOM      4  C   UNL     1      34.696 -18.123 -24.128  0.00  0.00    +0.176 C 
ATOM      5  C   UNL     1      35.278 -17.277 -21.940  0.00  0.00    +0.041 C 
ATOM      6  C   UNL     1      34.452 -16.822 -24.566  0.00  0.00    +0.047 C 
ATOM      7  C   UNL     1      35.035 -15.976 -22.380  0.00  0.00    +0.018 C 
ENDROOT
BRANCH   3  10
ATOM      8  O   UNL     1      32.407 -10.848 -22.866  0.00  0.00    -0.274 OA
ATOM      9  O   UNL     1      33.121 -13.505 -22.379  0.00  0.00    -0.252 OA
ATOM     10  N   UNL     1      34.378 -14.447 -24.132  0.00  0.00    -0.268 N 
ATOM     11  N   UNL     1      33.646 -12.250 -24.261  0.00  0.00    -0.239 N 
ATOM     12  C   UNL     1      33.024 -11.049 -23.910  0.00  0.00    +0.234 C 
ATOM     13  C   UNL     1      33.663 -13.421 -23.478  0.00  0.00    +0.310 C 
ATOM     14  H   UNL     1      34.751 -14.214 -25.011  0.00  0.00    +0.156 HD
ATOM     15  H   UNL     1      34.109 -12.281 -25.129  0.00  0.00    +0.159 HD
BRANCH  12  16
ATOM     16  C   UNL     1      33.205  -9.999 -24.990  0.00  0.00    +0.112 C 
BRANCH  16  18
ATOM     17  F   UNL     1      32.772  -4.731 -23.079  0.00  0.00    -0.204 F 
ATOM     18  C   UNL     1      33.088  -8.588 -24.477  0.00  0.00    -0.013 C 
ATOM     19  C   UNL     1      34.109  -8.057 -23.701  0.00  0.00    -0.001 C 
ATOM     20  C   UNL     1      31.963  -7.839 -24.788  0.00  0.00    -0.001 C 
ATOM     21  C   UNL     1      34.001  -6.749 -23.227  0.00  0.00    +0.029 C 
ATOM     22  C   UNL     1      31.855  -6.532 -24.314  0.00  0.00    +0.029 C 
ATOM     23  C   UNL     1      32.874  -5.987 -23.534  0.00  0.00    +0.140 C 
ENDBRANCH  16  18
ENDBRANCH  12  16
ENDBRANCH   3  10
BRANCH   2  24
ATOM     24  O   UNL     1      35.345 -19.620 -22.385  0.00  0.00    -0.451 OA
BRANCH  24  28
ATOM     25  N   UNL     1      34.573 -22.131 -18.541  0.00  0.00    -0.297 N 
ATOM     26  N   UNL     1      32.605 -21.247 -19.614  0.00  0.00    -0.229 NA
ATOM     27  C   UNL     1      34.909 -20.923 -20.389  0.00  0.00    +0.067 C 
ATOM     28  C   UNL     1      34.471 -20.154 -21.480  0.00  0.00    +0.150 C 
ATOM     29  C   UNL     1      33.937 -21.419 -19.524  0.00  0.00    +0.135 C 
ATOM     30  C   UNL     1      36.164 -21.361 -19.892  0.00  0.00    +0.022 C 
ATOM     31  C   UNL     1      35.926 -22.103 -18.754  0.00  0.00    +0.063 C 
ATOM     32  C   UNL     1      33.100 -19.944 -21.620  0.00  0.00    +0.058 C 
ATOM     33  C   UNL     1      32.241 -20.501 -20.682  0.00  0.00    +0.103 C 
ATOM     34  H   UNL     1      34.125 -22.592 -17.795  0.00  0.00    +0.154 HD
ENDBRANCH  24  28
ENDBRANCH   2  24
TORSDOF 5
ENDMDL
MODEL 8
REMARK VINA RESULT:     -11.5      1.599      2.760
REMARK  Name = 11560856
REMARK  5 active torsions:
REMARK  status: ('A' for Active; 'I' for Inactive)
REMARK    1  A    between atoms: C_2  and  O_24
REMARK    2  A    between atoms: C_3  and  N_10
REMARK    3  A    between atoms: C_12  and  C_16
REMARK    4  A    between atoms: C_16  and  C_18
REMARK    5  A    between atoms: O_24  and  C_28
REMARK                            x       y       z     vdW  Elec       q    Type
REMARK                         _______ _______ _______ _____ _____    ______ ____
ROOT
ATOM      1  F   UNL     1      33.165 -21.385 -20.444  0.00  0.00    -0.201 F 
ATOM      2  C   UNL     1      35.508 -21.034 -20.340  0.00  0.00    +0.173 C 
ATOM      3  C   UNL     1      35.172 -18.544 -21.503  0.00  0.00    +0.054 C 
ATOM      4  C   UNL     1      34.233 -20.609 -20.674  0.00  0.00    +0.176 C 
ATOM      5  C   UNL     1      36.619 -20.241 -20.575  0.00  0.00    +0.041 C 
ATOM      6  C   UNL     1      34.064 -19.354 -21.259  0.00  0.00    +0.047 C 
ATOM      7  C   UNL     1      36.449 -18.987 -21.161  0.00  0.00    +0.018 C 
ENDROOT
BRANCH   3  10
ATOM      8  O   UNL     1      33.702 -15.504 -25.769  0.00  0.00    -0.274 OA
ATOM      9  O   UNL     1      34.185 -17.789 -24.237  0.00  0.00    -0.252 OA
ATOM     10  N   UNL     1      35.002 -17.288 -22.087  0.00  0.00    -0.268 N 
ATOM     11  N   UNL     1      34.510 -15.584 -23.582  0.00  0.00    -0.239 N 
ATOM     12  C   UNL     1      34.100 -14.940 -24.752  0.00  0.00    +0.234 C 
ATOM     13  C   UNL     1      34.533 -16.979 -23.381  0.00  0.00    +0.310 C 
ATOM     14  H   UNL     1      35.240 -16.517 -21.523  0.00  0.00    +0.156 HD
ATOM     15  H   UNL     1      34.808 -15.016 -22.835  0.00  0.00    +0.159 HD
BRANCH  12  16
ATOM     16  C   UNL     1      34.207 -13.433 -24.618  0.00  0.00    +0.112 C 
BRANCH  16  18
ATOM     17  F   UNL     1      30.828 -11.307 -20.661  0.00  0.00    -0.204 F 
ATOM     18  C   UNL     1      33.302 -12.863 -23.557  0.00  0.00    -0.013 C 
ATOM     19  C   UNL     1      32.959 -11.519 -23.602  0.00  0.00    -0.001 C 
ATOM     20  C   UNL     1      32.824 -13.691 -22.551  0.00  0.00    -0.001 C 
ATOM     21  C   UNL     1      32.120 -10.992 -22.619  0.00  0.00    +0.029 C 
ATOM     22  C   UNL     1      31.986 -13.163 -21.569  0.00  0.00    +0.029 C 
ATOM     23  C   UNL     1      31.633 -11.814 -21.604  0.00  0.00    +0.140 C 
ENDBRANCH  16  18
ENDBRANCH  12  16
ENDBRANCH   3  10
BRANCH   2  24
ATOM     24  O   UNL     1      35.676 -22.276 -19.760  0.00  0.00    -0.451 OA
BRANCH  24  28
ATOM     25  N   UNL     1      33.486 -23.323 -15.787  0.00  0.00    -0.297 N 
ATOM     26  N   UNL     1      35.720 -22.456 -15.541  0.00  0.00    -0.229 NA
ATOM     27  C   UNL     1      34.564 -22.810 -17.674  0.00  0.00    +0.067 C 
ATOM     28  C   UNL     1      35.674 -22.340 -18.395  0.00  0.00    +0.150 C 
ATOM     29  C   UNL     1      34.666 -22.836 -16.286  0.00  0.00    +0.135 C 
ATOM     30  C   UNL     1      33.273 -23.302 -18.002  0.00  0.00    +0.022 C 
ATOM     31  C   UNL     1      32.633 -23.610 -16.820  0.00  0.00    +0.063 C 
ATOM     32  C   UNL     1      36.795 -21.934 -17.672  0.00  0.00    +0.058 C 
ATOM     33  C   UNL     1      36.759 -22.012 -16.286  0.00  0.00    +0.103 C 
ATOM     34  H   UNL     1      33.283 -23.448 -14.831  0.00  0.00    +0.154 HD
ENDBRANCH  24  28
ENDBRANCH   2  24
TORSDOF 5
ENDMDL
MODEL 9
REMARK VINA RESULT:     -11.4      3.967      6.003
REMARK  Name = 11560856
REMARK  5 active torsions:
REMARK  status: ('A' for Active; 'I' for Inactive)
REMARK    1  A    between atoms: C_2  and  O_24
REMARK    2  A    between atoms: C_3  and  N_10
REMARK    3  A    between atoms: C_12  and  C_16
REMARK    4  A    between atoms: C_16  and  C_18
REMARK    5  A    between atoms: O_24  and  C_28
REMARK                            x       y       z     vdW  Elec       q    Type
REMARK                         _______ _______ _______ _____ _____    ______ ____
ROOT
ATOM      1  F   UNL     1      34.864 -18.032 -24.773  0.00  0.00    -0.201 F 
ATOM      2  C   UNL     1      35.011 -17.658 -22.436  0.00  0.00    +0.173 C 
ATOM      3  C   UNL     1      34.204 -15.038 -22.819  0.00  0.00    +0.054 C 
ATOM      4  C   UNL     1      34.740 -17.214 -23.720  0.00  0.00    +0.176 C 
ATOM      5  C   UNL     1      34.889 -16.821 -21.340  0.00  0.00    +0.041 C 
ATOM      6  C   UNL     1      34.332 -15.895 -23.912  0.00  0.00    +0.047 C 
ATOM      7  C   UNL     1      34.482 -15.501 -21.533  0.00  0.00    +0.018 C 
ENDROOT
BRANCH   3  10
ATOM      8  O   UNL     1      30.886 -10.914 -21.561  0.00  0.00    -0.274 OA
ATOM      9  O   UNL     1      32.014 -13.469 -21.494  0.00  0.00    -0.252 OA
ATOM     10  N   UNL     1      33.795 -13.718 -23.012  0.00  0.00    -0.268 N 
ATOM     11  N   UNL     1      32.667 -11.698 -22.848  0.00  0.00    -0.239 N 
ATOM     12  C   UNL     1      31.746 -10.738 -22.420  0.00  0.00    +0.234 C 
ATOM     13  C   UNL     1      32.756 -13.018 -22.363  0.00  0.00    +0.310 C 
ATOM     14  H   UNL     1      34.296 -13.208 -23.688  0.00  0.00    +0.156 HD
ATOM     15  H   UNL     1      33.306 -11.430 -23.546  0.00  0.00    +0.159 HD
BRANCH  12  16
ATOM     16  C   UNL     1      31.937  -9.426 -23.157  0.00  0.00    +0.112 C 
BRANCH  16  18
ATOM     17  F   UNL     1      36.230  -9.508 -26.784  0.00  0.00    -0.204 F 
ATOM     18  C   UNL     1      33.088  -9.449 -24.129  0.00  0.00    -0.013 C 
ATOM     19  C   UNL     1      32.944 -10.107 -25.342  0.00  0.00    -0.001 C 
ATOM     20  C   UNL     1      34.273  -8.811 -23.797  0.00  0.00    -0.001 C 
ATOM     21  C   UNL     1      34.010 -10.127 -26.242  0.00  0.00    +0.029 C 
ATOM     22  C   UNL     1      35.340  -8.831 -24.697  0.00  0.00    +0.029 C 
ATOM     23  C   UNL     1      35.207  -9.488 -25.919  0.00  0.00    +0.140 C 
ENDBRANCH  16  18
ENDBRANCH  12  16
ENDBRANCH   3  10
BRANCH   2  24
ATOM     24  O   UNL     1      35.414 -18.966 -22.245  0.00  0.00    -0.451 OA
BRANCH  24  28
ATOM     25  N   UNL     1      34.969 -22.133 -18.860  0.00  0.00    -0.297 N 
ATOM     26  N   UNL     1      32.910 -21.416 -19.887  0.00  0.00    -0.229 NA
ATOM     27  C   UNL     1      35.148 -20.615 -20.488  0.00  0.00    +0.067 C 
ATOM     28  C   UNL     1      34.618 -19.765 -21.473  0.00  0.00    +0.150 C 
ATOM     29  C   UNL     1      34.249 -21.386 -19.757  0.00  0.00    +0.135 C 
ATOM     30  C   UNL     1      36.446 -20.920 -20.001  0.00  0.00    +0.022 C 
ATOM     31  C   UNL     1      36.304 -21.857 -18.999  0.00  0.00    +0.063 C 
ATOM     32  C   UNL     1      33.235 -19.756 -21.649  0.00  0.00    +0.058 C 
ATOM     33  C   UNL     1      32.455 -20.581 -20.849  0.00  0.00    +0.103 C 
ATOM     34  H   UNL     1      34.584 -22.769 -18.215  0.00  0.00    +0.154 HD
ENDBRANCH  24  28
ENDBRANCH   2  24
TORSDOF 5
ENDMDL
