MODEL 1
REMARK VINA RESULT:     -12.6      0.000      0.000
REMARK  Name = 25023705
REMARK  6 active torsions:
REMARK  status: ('A' for Active; 'I' for Inactive)
REMARK    1  A    between atoms: C_1  and  C_8
REMARK    2  A    between atoms: C_1  and  C_20
REMARK    3  A    between atoms: C_20  and  N_22
REMARK    4  A    between atoms: C_23  and  C_25
REMARK    5  A    between atoms: C_30  and  O_31
REMARK    6  A    between atoms: O_31  and  C_32
REMARK                            x       y       z     vdW  Elec       q    Type
REMARK                         _______ _______ _______ _____ _____    ______ ____
ROOT
ATOM      1  C   UNL     1      32.258 -23.949 -15.186  0.00  0.00    +0.066 C 
ATOM      2  C   UNL     1      31.726 -22.502 -15.047  0.00  0.00    +0.009 C 
ATOM      3  C   UNL     1      31.179 -24.874 -14.572  0.00  0.00    +0.009 C 
ENDROOT
BRANCH   1   8
ATOM      4  N   UNL     1      34.694 -24.302 -15.285  0.00  0.00    -0.347 NA
ATOM      5  N   UNL     1      36.973 -24.648 -15.509  0.00  0.00    -0.266 NA
ATOM      6  N   UNL     1      38.448 -24.586 -13.607  0.00  0.00    -0.316 NA
ATOM      7  N   UNL     1      39.280 -25.003 -15.756  0.00  0.00    -0.283 N 
ATOM      8  C   UNL     1      33.629 -24.041 -14.489  0.00  0.00    +0.122 C 
ATOM      9  C   UNL     1      33.707 -23.859 -13.125  0.00  0.00    +0.026 C 
ATOM     10  C   UNL     1      34.962 -23.952 -12.547  0.00  0.00    +0.001 C 
ATOM     11  C   UNL     1      35.912 -24.392 -14.734  0.00  0.00    +0.137 C 
ATOM     12  C   UNL     1      36.076 -24.221 -13.355  0.00  0.00    +0.199 C 
ATOM     13  C   UNL     1      37.369 -24.329 -12.848  0.00  0.00    +0.187 C 
ATOM     14  C   UNL     1      38.180 -24.732 -14.912  0.00  0.00    +0.207 C 
ATOM     15  H   UNL     1      39.140 -25.120 -16.723  0.00  0.00    +0.156 HD
ATOM     16  H   UNL     1      40.185 -25.075 -15.375  0.00  0.00    +0.156 HD
ATOM     17  N   UNL     1      37.589 -24.163 -11.458  0.00  0.00    -0.334 N 
ATOM     18  H   UNL     1      38.499 -24.238 -11.091  0.00  0.00    +0.144 HD
ATOM     19  H   UNL     1      36.831 -23.974 -10.859  0.00  0.00    +0.144 HD
ENDBRANCH   1   8
BRANCH   1  20
ATOM     20  C   UNL     1      32.384 -24.275 -16.701  0.00  0.00    +0.096 C 
BRANCH  20  22
ATOM     21  O   UNL     1      33.482 -24.498 -19.344  0.00  0.00    -0.270 OA
ATOM     22  N   UNL     1      32.977 -23.217 -17.478  0.00  0.00    -0.300 N 
ATOM     23  C   UNL     1      33.484 -23.421 -18.755  0.00  0.00    +0.246 C 
ATOM     24  H   UNL     1      33.025 -22.314 -17.088  0.00  0.00    +0.150 HD
BRANCH  23  25
ATOM     25  C   UNL     1      34.089 -22.234 -19.413  0.00  0.00    +0.054 C 
ATOM     26  C   UNL     1      35.471 -22.057 -19.399  0.00  0.00    +0.008 C 
ATOM     27  C   UNL     1      33.270 -21.295 -20.043  0.00  0.00    +0.008 C 
ATOM     28  C   UNL     1      36.037 -20.941 -20.016  0.00  0.00    +0.038 C 
ATOM     29  C   UNL     1      33.837 -20.180 -20.660  0.00  0.00    +0.038 C 
ATOM     30  C   UNL     1      35.220 -20.003 -20.646  0.00  0.00    +0.145 C 
BRANCH  30  31
ATOM     31  O   UNL     1      35.772 -18.913 -21.246  0.00  0.00    -0.453 OA
BRANCH  31  32
ATOM     32  C   UNL     1      35.232 -18.499 -22.452  0.00  0.00    +0.145 C 
ATOM     33  C   UNL     1      34.772 -19.444 -23.369  0.00  0.00    +0.037 C 
ATOM     34  C   UNL     1      35.150 -17.139 -22.750  0.00  0.00    +0.037 C 
ATOM     35  C   UNL     1      34.229 -19.028 -24.585  0.00  0.00    +0.003 C 
ATOM     36  C   UNL     1      34.607 -16.723 -23.966  0.00  0.00    +0.003 C 
ATOM     37  C   UNL     1      34.147 -17.667 -24.883  0.00  0.00    +0.000 C 
ENDBRANCH  31  32
ENDBRANCH  30  31
ENDBRANCH  23  25
ENDBRANCH  20  22
ENDBRANCH   1  20
TORSDOF 6
ENDMDL
MODEL 2
REMARK VINA RESULT:     -11.7      0.965      2.165
REMARK  Name = 25023705
REMARK  6 active torsions:
REMARK  status: ('A' for Active; 'I' for Inactive)
REMARK    1  A    between atoms: C_1  and  C_8
REMARK    2  A    between atoms: C_1  and  C_20
REMARK    3  A    between atoms: C_20  and  N_22
REMARK    4  A    between atoms: C_23  and  C_25
REMARK    5  A    between atoms: C_30  and  O_31
REMARK    6  A    between atoms: O_31  and  C_32
REMARK                            x       y       z     vdW  Elec       q    Type
REMARK                         _______ _______ _______ _____ _____    ______ ____
ROOT
ATOM      1  C   UNL     1      31.813 -23.857 -15.374  0.00  0.00    +0.066 C 
ATOM      2  C   UNL     1      31.528 -22.362 -15.091  0.00  0.00    +0.009 C 
ATOM      3  C   UNL     1      30.656 -24.655 -14.724  0.00  0.00    +0.009 C 
ENDROOT
BRANCH   1   8
ATOM      4  N   UNL     1      33.409 -23.953 -13.500  0.00  0.00    -0.347 NA
ATOM      5  N   UNL     1      34.815 -23.993 -11.660  0.00  0.00    -0.266 NA
ATOM      6  N   UNL     1      37.069 -24.824 -11.817  0.00  0.00    -0.316 NA
ATOM      7  N   UNL     1      36.225 -24.024  -9.784  0.00  0.00    -0.283 N 
ATOM      8  C   UNL     1      33.205 -24.209 -14.815  0.00  0.00    +0.122 C 
ATOM      9  C   UNL     1      34.154 -24.751 -15.655  0.00  0.00    +0.026 C 
ATOM     10  C   UNL     1      35.389 -25.049 -15.104  0.00  0.00    +0.001 C 
ATOM     11  C   UNL     1      34.601 -24.240 -12.958  0.00  0.00    +0.137 C 
ATOM     12  C   UNL     1      35.618 -24.792 -13.744  0.00  0.00    +0.199 C 
ATOM     13  C   UNL     1      36.832 -25.064 -13.118  0.00  0.00    +0.187 C 
ATOM     14  C   UNL     1      36.029 -24.295 -11.156  0.00  0.00    +0.207 C 
ATOM     15  H   UNL     1      35.495 -23.634  -9.251  0.00  0.00    +0.156 HD
ATOM     16  H   UNL     1      37.092 -24.224  -9.362  0.00  0.00    +0.156 HD
ATOM     17  N   UNL     1      37.894 -25.624 -13.870  0.00  0.00    -0.334 N 
ATOM     18  H   UNL     1      38.756 -25.819 -13.435  0.00  0.00    +0.144 HD
ATOM     19  H   UNL     1      37.771 -25.818 -14.827  0.00  0.00    +0.144 HD
ENDBRANCH   1   8
BRANCH   1  20
ATOM     20  C   UNL     1      31.762 -24.078 -16.913  0.00  0.00    +0.096 C 
BRANCH  20  22
ATOM     21  O   UNL     1      33.450 -24.498 -19.196  0.00  0.00    -0.270 OA
ATOM     22  N   UNL     1      32.451 -23.065 -17.669  0.00  0.00    -0.300 N 
ATOM     23  C   UNL     1      33.251 -23.365 -18.765  0.00  0.00    +0.246 C 
ATOM     24  H   UNL     1      32.353 -22.123 -17.399  0.00  0.00    +0.150 HD
BRANCH  23  25
ATOM     25  C   UNL     1      33.916 -22.210 -19.422  0.00  0.00    +0.054 C 
ATOM     26  C   UNL     1      35.304 -22.088 -19.380  0.00  0.00    +0.008 C 
ATOM     27  C   UNL     1      33.149 -21.247 -20.080  0.00  0.00    +0.008 C 
ATOM     28  C   UNL     1      35.927 -21.003 -19.996  0.00  0.00    +0.038 C 
ATOM     29  C   UNL     1      33.773 -20.162 -20.696  0.00  0.00    +0.038 C 
ATOM     30  C   UNL     1      35.161 -20.040 -20.654  0.00  0.00    +0.145 C 
BRANCH  30  31
ATOM     31  O   UNL     1      35.769 -18.980 -21.253  0.00  0.00    -0.453 OA
BRANCH  31  32
ATOM     32  C   UNL     1      35.236 -18.522 -22.446  0.00  0.00    +0.145 C 
ATOM     33  C   UNL     1      35.145 -17.151 -22.688  0.00  0.00    +0.037 C 
ATOM     34  C   UNL     1      34.788 -19.431 -23.405  0.00  0.00    +0.037 C 
ATOM     35  C   UNL     1      34.606 -16.689 -23.889  0.00  0.00    +0.003 C 
ATOM     36  C   UNL     1      34.249 -18.968 -24.606  0.00  0.00    +0.003 C 
ATOM     37  C   UNL     1      34.158 -17.598 -24.847  0.00  0.00    +0.000 C 
ENDBRANCH  31  32
ENDBRANCH  30  31
ENDBRANCH  23  25
ENDBRANCH  20  22
ENDBRANCH   1  20
TORSDOF 6
ENDMDL
MODEL 3
REMARK VINA RESULT:     -11.3      4.664      8.262
REMARK  Name = 25023705
REMARK  6 active torsions:
REMARK  status: ('A' for Active; 'I' for Inactive)
REMARK    1  A    between atoms: C_1  and  C_8
REMARK    2  A    between atoms: C_1  and  C_20
REMARK    3  A    between atoms: C_20  and  N_22
REMARK    4  A    between atoms: C_23  and  C_25
REMARK    5  A    between atoms: C_30  and  O_31
REMARK    6  A    between atoms: O_31  and  C_32
REMARK                            x       y       z     vdW  Elec       q    Type
REMARK                         _______ _______ _______ _____ _____    ______ ____
ROOT
ATOM      1  C   UNL     1      35.266 -19.032 -22.123  0.00  0.00    +0.066 C 
ATOM      2  C   UNL     1      34.195 -19.057 -23.240  0.00  0.00    +0.009 C 
ATOM      3  C   UNL     1      36.622 -19.330 -22.808  0.00  0.00    +0.009 C 
ENDROOT
BRANCH   1   8
ATOM      4  N   UNL     1      35.856 -20.435 -20.186  0.00  0.00    -0.347 NA
ATOM      5  N   UNL     1      36.534 -21.705 -18.372  0.00  0.00    -0.266 NA
ATOM      6  N   UNL     1      35.009 -23.169 -17.221  0.00  0.00    -0.316 NA
ATOM      7  N   UNL     1      37.241 -22.985 -16.536  0.00  0.00    -0.283 N 
ATOM      8  C   UNL     1      34.875 -20.057 -21.041  0.00  0.00    +0.122 C 
ATOM      9  C   UNL     1      33.581 -20.530 -20.993  0.00  0.00    +0.026 C 
ATOM     10  C   UNL     1      33.282 -21.449 -20.003  0.00  0.00    +0.001 C 
ATOM     11  C   UNL     1      35.574 -21.323 -19.224  0.00  0.00    +0.137 C 
ATOM     12  C   UNL     1      34.284 -21.853 -19.108  0.00  0.00    +0.199 C 
ATOM     13  C   UNL     1      34.061 -22.772 -18.086  0.00  0.00    +0.187 C 
ATOM     14  C   UNL     1      36.207 -22.602 -17.419  0.00  0.00    +0.207 C 
ATOM     15  H   UNL     1      38.141 -22.600 -16.637  0.00  0.00    +0.156 HD
ATOM     16  H   UNL     1      37.060 -23.637 -15.821  0.00  0.00    +0.156 HD
ATOM     17  N   UNL     1      32.771 -23.337 -17.927  0.00  0.00    -0.334 N 
ATOM     18  H   UNL     1      32.604 -23.988 -17.207  0.00  0.00    +0.144 HD
ATOM     19  H   UNL     1      32.042 -23.079 -18.536  0.00  0.00    +0.144 HD
ENDBRANCH   1   8
BRANCH   1  20
ATOM     20  C   UNL     1      35.316 -17.594 -21.533  0.00  0.00    +0.096 C 
BRANCH  20  22
ATOM     21  O   UNL     1      34.052 -15.076 -20.982  0.00  0.00    -0.270 OA
ATOM     22  N   UNL     1      35.005 -16.562 -22.487  0.00  0.00    -0.300 N 
ATOM     23  C   UNL     1      34.389 -15.370 -22.126  0.00  0.00    +0.246 C 
ATOM     24  H   UNL     1      35.238 -16.706 -23.433  0.00  0.00    +0.150 HD
BRANCH  23  25
ATOM     25  C   UNL     1      34.111 -14.419 -23.233  0.00  0.00    +0.054 C 
ATOM     26  C   UNL     1      33.839 -14.899 -24.513  0.00  0.00    +0.008 C 
ATOM     27  C   UNL     1      34.123 -13.044 -22.989  0.00  0.00    +0.008 C 
ATOM     28  C   UNL     1      33.580 -14.005 -25.552  0.00  0.00    +0.038 C 
ATOM     29  C   UNL     1      33.863 -12.151 -24.029  0.00  0.00    +0.038 C 
ATOM     30  C   UNL     1      33.592 -12.631 -25.310  0.00  0.00    +0.145 C 
BRANCH  30  31
ATOM     31  O   UNL     1      33.341 -11.759 -26.324  0.00  0.00    -0.453 OA
BRANCH  31  32
ATOM     32  C   UNL     1      33.839 -10.472 -26.204  0.00  0.00    +0.145 C 
ATOM     33  C   UNL     1      35.136 -10.185 -26.628  0.00  0.00    +0.037 C 
ATOM     34  C   UNL     1      33.044  -9.464 -25.658  0.00  0.00    +0.037 C 
ATOM     35  C   UNL     1      35.639  -8.889 -26.507  0.00  0.00    +0.003 C 
ATOM     36  C   UNL     1      33.547  -8.168 -25.537  0.00  0.00    +0.003 C 
ATOM     37  C   UNL     1      34.844  -7.881 -25.961  0.00  0.00    +0.000 C 
ENDBRANCH  31  32
ENDBRANCH  30  31
ENDBRANCH  23  25
ENDBRANCH  20  22
ENDBRANCH   1  20
TORSDOF 6
ENDMDL
MODEL 4
REMARK VINA RESULT:     -11.3      5.098      8.584
REMARK  Name = 25023705
REMARK  6 active torsions:
REMARK  status: ('A' for Active; 'I' for Inactive)
REMARK    1  A    between atoms: C_1  and  C_8
REMARK    2  A    between atoms: C_1  and  C_20
REMARK    3  A    between atoms: C_20  and  N_22
REMARK    4  A    between atoms: C_23  and  C_25
REMARK    5  A    between atoms: C_30  and  O_31
REMARK    6  A    between atoms: O_31  and  C_32
REMARK                            x       y       z     vdW  Elec       q    Type
REMARK                         _______ _______ _______ _____ _____    ______ ____
ROOT
ATOM      1  C   UNL     1      35.119 -18.788 -22.572  0.00  0.00    +0.066 C 
ATOM      2  C   UNL     1      33.860 -18.406 -23.388  0.00  0.00    +0.009 C 
ATOM      3  C   UNL     1      36.141 -19.360 -23.585  0.00  0.00    +0.009 C 
ENDROOT
BRANCH   1   8
ATOM      4  N   UNL     1      35.690 -20.177 -20.620  0.00  0.00    -0.347 NA
ATOM      5  N   UNL     1      36.351 -21.438 -18.794  0.00  0.00    -0.266 NA
ATOM      6  N   UNL     1      34.795 -22.836 -17.600  0.00  0.00    -0.316 NA
ATOM      7  N   UNL     1      37.039 -22.710 -16.945  0.00  0.00    -0.283 N 
ATOM      8  C   UNL     1      34.710 -19.782 -21.469  0.00  0.00    +0.122 C 
ATOM      9  C   UNL     1      33.403 -20.214 -21.398  0.00  0.00    +0.026 C 
ATOM     10  C   UNL     1      33.088 -21.107 -20.389  0.00  0.00    +0.001 C 
ATOM     11  C   UNL     1      35.392 -21.041 -19.640  0.00  0.00    +0.137 C 
ATOM     12  C   UNL     1      34.087 -21.527 -19.500  0.00  0.00    +0.199 C 
ATOM     13  C   UNL     1      33.848 -22.423 -18.460  0.00  0.00    +0.187 C 
ATOM     14  C   UNL     1      36.007 -22.310 -17.822  0.00  0.00    +0.207 C 
ATOM     15  H   UNL     1      37.950 -22.356 -17.063  0.00  0.00    +0.156 HD
ATOM     16  H   UNL     1      36.847 -23.345 -16.217  0.00  0.00    +0.156 HD
ATOM     17  N   UNL     1      32.543 -22.944 -18.276  0.00  0.00    -0.334 N 
ATOM     18  H   UNL     1      32.366 -23.578 -17.544  0.00  0.00    +0.144 HD
ATOM     19  H   UNL     1      31.815 -22.673 -18.881  0.00  0.00    +0.144 HD
ENDBRANCH   1   8
BRANCH   1  20
ATOM     20  C   UNL     1      35.710 -17.488 -21.957  0.00  0.00    +0.096 C 
BRANCH  20  22
ATOM     21  O   UNL     1      35.346 -15.314 -23.795  0.00  0.00    -0.270 OA
ATOM     22  N   UNL     1      34.757 -16.414 -21.840  0.00  0.00    -0.300 N 
ATOM     23  C   UNL     1      34.654 -15.401 -22.785  0.00  0.00    +0.246 C 
ATOM     24  H   UNL     1      34.156 -16.397 -21.060  0.00  0.00    +0.150 HD
BRANCH  23  25
ATOM     25  C   UNL     1      33.640 -14.351 -22.505  0.00  0.00    +0.054 C 
ATOM     26  C   UNL     1      33.260 -13.463 -23.511  0.00  0.00    +0.008 C 
ATOM     27  C   UNL     1      33.069 -14.254 -21.235  0.00  0.00    +0.008 C 
ATOM     28  C   UNL     1      32.309 -12.477 -23.247  0.00  0.00    +0.038 C 
ATOM     29  C   UNL     1      32.118 -13.269 -20.973  0.00  0.00    +0.038 C 
ATOM     30  C   UNL     1      31.739 -12.380 -21.979  0.00  0.00    +0.145 C 
BRANCH  30  31
ATOM     31  O   UNL     1      30.812 -11.417 -21.721  0.00  0.00    -0.453 OA
BRANCH  31  32
ATOM     32  C   UNL     1      31.258 -10.112 -21.594  0.00  0.00    +0.145 C 
ATOM     33  C   UNL     1      31.165  -9.236 -22.676  0.00  0.00    +0.037 C 
ATOM     34  C   UNL     1      31.802  -9.674 -20.387  0.00  0.00    +0.037 C 
ATOM     35  C   UNL     1      31.615  -7.921 -22.549  0.00  0.00    +0.003 C 
ATOM     36  C   UNL     1      32.253  -8.360 -20.260  0.00  0.00    +0.003 C 
ATOM     37  C   UNL     1      32.159  -7.484 -21.342  0.00  0.00    +0.000 C 
ENDBRANCH  31  32
ENDBRANCH  30  31
ENDBRANCH  23  25
ENDBRANCH  20  22
ENDBRANCH   1  20
TORSDOF 6
ENDMDL
MODEL 5
REMARK VINA RESULT:     -11.3      2.389      4.870
REMARK  Name = 25023705
REMARK  6 active torsions:
REMARK  status: ('A' for Active; 'I' for Inactive)
REMARK    1  A    between atoms: C_1  and  C_8
REMARK    2  A    between atoms: C_1  and  C_20
REMARK    3  A    between atoms: C_20  and  N_22
REMARK    4  A    between atoms: C_23  and  C_25
REMARK    5  A    between atoms: C_30  and  O_31
REMARK    6  A    between atoms: O_31  and  C_32
REMARK                            x       y       z     vdW  Elec       q    Type
REMARK                         _______ _______ _______ _____ _____    ______ ____
ROOT
ATOM      1  C   UNL     1      33.892 -22.564 -19.145  0.00  0.00    +0.066 C 
ATOM      2  C   UNL     1      32.591 -21.772 -19.420  0.00  0.00    +0.009 C 
ATOM      3  C   UNL     1      33.871 -23.785 -20.097  0.00  0.00    +0.009 C 
ENDROOT
BRANCH   1   8
ATOM      4  N   UNL     1      32.802 -23.461 -17.126  0.00  0.00    -0.347 NA
ATOM      5  N   UNL     1      31.667 -24.324 -15.302  0.00  0.00    -0.266 NA
ATOM      6  N   UNL     1      32.720 -24.524 -13.145  0.00  0.00    -0.316 NA
ATOM      7  N   UNL     1      30.501 -25.201 -13.463  0.00  0.00    -0.283 N 
ATOM      8  C   UNL     1      33.936 -22.938 -17.651  0.00  0.00    +0.122 C 
ATOM      9  C   UNL     1      35.095 -22.728 -16.935  0.00  0.00    +0.026 C 
ATOM     10  C   UNL     1      35.083 -23.080 -15.597  0.00  0.00    +0.001 C 
ATOM     11  C   UNL     1      32.781 -23.805 -15.832  0.00  0.00    +0.137 C 
ATOM     12  C   UNL     1      33.918 -23.624 -15.036  0.00  0.00    +0.199 C 
ATOM     13  C   UNL     1      33.828 -24.002 -13.698  0.00  0.00    +0.187 C 
ATOM     14  C   UNL     1      31.690 -24.656 -13.994  0.00  0.00    +0.207 C 
ATOM     15  H   UNL     1      29.713 -25.319 -14.042  0.00  0.00    +0.156 HD
ATOM     16  H   UNL     1      30.459 -25.461 -12.514  0.00  0.00    +0.156 HD
ATOM     17  N   UNL     1      34.951 -23.839 -12.851  0.00  0.00    -0.334 N 
ATOM     18  H   UNL     1      34.896 -24.104 -11.904  0.00  0.00    +0.144 HD
ATOM     19  H   UNL     1      35.787 -23.460 -13.208  0.00  0.00    +0.144 HD
ENDBRANCH   1   8
BRANCH   1  20
ATOM     20  C   UNL     1      35.099 -21.661 -19.526  0.00  0.00    +0.096 C 
BRANCH  20  22
ATOM     21  O   UNL     1      36.848 -19.620 -20.534  0.00  0.00    -0.270 OA
ATOM     22  N   UNL     1      34.830 -20.761 -20.618  0.00  0.00    -0.300 N 
ATOM     23  C   UNL     1      35.743 -19.800 -21.037  0.00  0.00    +0.246 C 
ATOM     24  H   UNL     1      33.967 -20.829 -21.086  0.00  0.00    +0.150 HD
BRANCH  23  25
ATOM     25  C   UNL     1      35.304 -18.932 -22.160  0.00  0.00    +0.054 C 
ATOM     26  C   UNL     1      34.486 -19.449 -23.163  0.00  0.00    +0.008 C 
ATOM     27  C   UNL     1      35.713 -17.598 -22.210  0.00  0.00    +0.008 C 
ATOM     28  C   UNL     1      34.076 -18.633 -24.217  0.00  0.00    +0.038 C 
ATOM     29  C   UNL     1      35.302 -16.782 -23.264  0.00  0.00    +0.038 C 
ATOM     30  C   UNL     1      34.484 -17.300 -24.268  0.00  0.00    +0.145 C 
BRANCH  30  31
ATOM     31  O   UNL     1      34.086 -16.504 -25.298  0.00  0.00    -0.453 OA
BRANCH  31  32
ATOM     32  C   UNL     1      33.898 -15.158 -25.035  0.00  0.00    +0.145 C 
ATOM     33  C   UNL     1      33.674 -14.268 -26.086  0.00  0.00    +0.037 C 
ATOM     34  C   UNL     1      33.933 -14.691 -23.721  0.00  0.00    +0.037 C 
ATOM     35  C   UNL     1      33.486 -12.911 -25.822  0.00  0.00    +0.003 C 
ATOM     36  C   UNL     1      33.745 -13.334 -23.458  0.00  0.00    +0.003 C 
ATOM     37  C   UNL     1      33.522 -12.444 -24.508  0.00  0.00    +0.000 C 
ENDBRANCH  31  32
ENDBRANCH  30  31
ENDBRANCH  23  25
ENDBRANCH  20  22
ENDBRANCH   1  20
TORSDOF 6
ENDMDL
MODEL 6
REMARK VINA RESULT:     -11.0      9.512     14.176
REMARK  Name = 25023705
REMARK  6 active torsions:
REMARK  status: ('A' for Active; 'I' for Inactive)
REMARK    1  A    between atoms: C_1  and  C_8
REMARK    2  A    between atoms: C_1  and  C_20
REMARK    3  A    between atoms: C_20  and  N_22
REMARK    4  A    between atoms: C_23  and  C_25
REMARK    5  A    between atoms: C_30  and  O_31
REMARK    6  A    between atoms: O_31  and  C_32
REMARK                            x       y       z     vdW  Elec       q    Type
REMARK                         _______ _______ _______ _____ _____    ______ ____
ROOT
ATOM      1  C   UNL     1      32.294  -6.977 -24.280  0.00  0.00    +0.066 C 
ATOM      2  C   UNL     1      32.695  -5.524 -23.927  0.00  0.00    +0.009 C 
ATOM      3  C   UNL     1      30.983  -6.883 -25.099  0.00  0.00    +0.009 C 
ENDROOT
BRANCH   1   8
ATOM      4  N   UNL     1      31.960  -9.117 -23.107  0.00  0.00    -0.347 NA
ATOM      5  N   UNL     1      31.641 -11.188 -22.122  0.00  0.00    -0.266 NA
ATOM      6  N   UNL     1      31.570 -11.446 -19.729  0.00  0.00    -0.316 NA
ATOM      7  N   UNL     1      31.315 -13.296 -21.142  0.00  0.00    -0.283 N 
ATOM      8  C   UNL     1      32.158  -7.783 -22.974  0.00  0.00    +0.122 C 
ATOM      9  C   UNL     1      32.239  -7.128 -21.764  0.00  0.00    +0.026 C 
ATOM     10  C   UNL     1      32.110  -7.898 -20.621  0.00  0.00    +0.001 C 
ATOM     11  C   UNL     1      31.835  -9.869 -22.005  0.00  0.00    +0.137 C 
ATOM     12  C   UNL     1      31.906  -9.280 -20.738  0.00  0.00    +0.199 C 
ATOM     13  C   UNL     1      31.766 -10.120 -19.635  0.00  0.00    +0.187 C 
ATOM     14  C   UNL     1      31.519 -11.907 -20.987  0.00  0.00    +0.207 C 
ATOM     15  H   UNL     1      31.268 -13.688 -22.044  0.00  0.00    +0.156 HD
ATOM     16  H   UNL     1      31.219 -13.871 -20.349  0.00  0.00    +0.156 HD
ATOM     17  N   UNL     1      31.831  -9.573 -18.330  0.00  0.00    -0.334 N 
ATOM     18  H   UNL     1      31.733 -10.160 -17.545  0.00  0.00    +0.144 HD
ATOM     19  H   UNL     1      31.973  -8.607 -18.208  0.00  0.00    +0.144 HD
ENDBRANCH   1   8
BRANCH   1  20
ATOM     20  C   UNL     1      33.402  -7.578 -25.190  0.00  0.00    +0.096 C 
BRANCH  20  22
ATOM     21  O   UNL     1      35.329  -9.532 -24.346  0.00  0.00    -0.270 OA
ATOM     22  N   UNL     1      33.308  -9.006 -25.356  0.00  0.00    -0.300 N 
ATOM     23  C   UNL     1      34.295  -9.877 -24.913  0.00  0.00    +0.246 C 
ATOM     24  H   UNL     1      32.513  -9.379 -25.802  0.00  0.00    +0.150 HD
BRANCH  23  25
ATOM     25  C   UNL     1      34.061 -11.319 -25.185  0.00  0.00    +0.054 C 
ATOM     26  C   UNL     1      33.913 -12.212 -24.125  0.00  0.00    +0.008 C 
ATOM     27  C   UNL     1      33.991 -11.777 -26.501  0.00  0.00    +0.008 C 
ATOM     28  C   UNL     1      33.695 -13.566 -24.381  0.00  0.00    +0.038 C 
ATOM     29  C   UNL     1      33.772 -13.131 -26.756  0.00  0.00    +0.038 C 
ATOM     30  C   UNL     1      33.625 -14.025 -25.696  0.00  0.00    +0.145 C 
BRANCH  30  31
ATOM     31  O   UNL     1      33.414 -15.346 -25.945  0.00  0.00    -0.453 OA
BRANCH  31  32
ATOM     32  C   UNL     1      33.944 -16.263 -25.052  0.00  0.00    +0.145 C 
ATOM     33  C   UNL     1      33.622 -17.615 -25.168  0.00  0.00    +0.037 C 
ATOM     34  C   UNL     1      34.799 -15.834 -24.037  0.00  0.00    +0.037 C 
ATOM     35  C   UNL     1      34.154 -18.539 -24.268  0.00  0.00    +0.003 C 
ATOM     36  C   UNL     1      35.331 -16.757 -23.137  0.00  0.00    +0.003 C 
ATOM     37  C   UNL     1      35.009 -18.109 -23.253  0.00  0.00    +0.000 C 
ENDBRANCH  31  32
ENDBRANCH  30  31
ENDBRANCH  23  25
ENDBRANCH  20  22
ENDBRANCH   1  20
TORSDOF 6
ENDMDL
MODEL 7
REMARK VINA RESULT:     -11.0     10.528     16.082
REMARK  Name = 25023705
REMARK  6 active torsions:
REMARK  status: ('A' for Active; 'I' for Inactive)
REMARK    1  A    between atoms: C_1  and  C_8
REMARK    2  A    between atoms: C_1  and  C_20
REMARK    3  A    between atoms: C_20  and  N_22
REMARK    4  A    between atoms: C_23  and  C_25
REMARK    5  A    between atoms: C_30  and  O_31
REMARK    6  A    between atoms: O_31  and  C_32
REMARK                            x       y       z     vdW  Elec       q    Type
REMARK                         _______ _______ _______ _____ _____    ______ ____
ROOT
ATOM      1  C   UNL     1      33.703  -9.357 -24.964  0.00  0.00    +0.066 C 
ATOM      2  C   UNL     1      35.208  -9.187 -24.643  0.00  0.00    +0.009 C 
ATOM      3  C   UNL     1      33.625 -10.052 -26.346  0.00  0.00    +0.009 C 
ENDROOT
BRANCH   1   8
ATOM      4  N   UNL     1      33.717  -6.950 -25.489  0.00  0.00    -0.347 NA
ATOM      5  N   UNL     1      33.849  -4.705 -26.039  0.00  0.00    -0.266 NA
ATOM      6  N   UNL     1      32.083  -3.166 -25.478  0.00  0.00    -0.316 NA
ATOM      7  N   UNL     1      34.000  -2.432 -26.605  0.00  0.00    -0.283 N 
ATOM      8  C   UNL     1      33.029  -7.972 -24.923  0.00  0.00    +0.122 C 
ATOM      9  C   UNL     1      31.793  -7.838 -24.328  0.00  0.00    +0.026 C 
ATOM     10  C   UNL     1      31.232  -6.573 -24.317  0.00  0.00    +0.001 C 
ATOM     11  C   UNL     1      33.180  -5.723 -25.483  0.00  0.00    +0.137 C 
ATOM     12  C   UNL     1      31.928  -5.503 -24.898  0.00  0.00    +0.199 C 
ATOM     13  C   UNL     1      31.430  -4.203 -24.926  0.00  0.00    +0.187 C 
ATOM     14  C   UNL     1      33.272  -3.486 -26.010  0.00  0.00    +0.207 C 
ATOM     15  H   UNL     1      34.880  -2.610 -27.010  0.00  0.00    +0.156 HD
ATOM     16  H   UNL     1      33.628  -1.520 -26.613  0.00  0.00    +0.156 HD
ATOM     17  N   UNL     1      30.166  -3.928 -24.347  0.00  0.00    -0.334 N 
ATOM     18  H   UNL     1      29.806  -3.012 -24.363  0.00  0.00    +0.144 HD
ATOM     19  H   UNL     1      29.648  -4.654 -23.930  0.00  0.00    +0.144 HD
ENDBRANCH   1   8
BRANCH   1  20
ATOM     20  C   UNL     1      33.084 -10.307 -23.899  0.00  0.00    +0.096 C 
BRANCH  20  22
ATOM     21  O   UNL     1      32.029 -12.575 -22.492  0.00  0.00    -0.270 OA
ATOM     22  N   UNL     1      33.545 -11.668 -23.995  0.00  0.00    -0.300 N 
ATOM     23  C   UNL     1      32.969 -12.704 -23.271  0.00  0.00    +0.246 C 
ATOM     24  H   UNL     1      34.298 -11.872 -24.596  0.00  0.00    +0.150 HD
BRANCH  23  25
ATOM     25  C   UNL     1      33.578 -14.047 -23.460  0.00  0.00    +0.054 C 
ATOM     26  C   UNL     1      34.281 -14.647 -22.417  0.00  0.00    +0.008 C 
ATOM     27  C   UNL     1      33.444 -14.706 -24.683  0.00  0.00    +0.008 C 
ATOM     28  C   UNL     1      34.853 -15.907 -22.596  0.00  0.00    +0.038 C 
ATOM     29  C   UNL     1      34.016 -15.966 -24.861  0.00  0.00    +0.038 C 
ATOM     30  C   UNL     1      34.721 -16.565 -23.818  0.00  0.00    +0.145 C 
BRANCH  30  31
ATOM     31  O   UNL     1      35.280 -17.794 -23.993  0.00  0.00    -0.453 OA
BRANCH  31  32
ATOM     32  C   UNL     1      35.421 -18.602 -22.878  0.00  0.00    +0.145 C 
ATOM     33  C   UNL     1      36.642 -18.655 -22.206  0.00  0.00    +0.037 C 
ATOM     34  C   UNL     1      34.343 -19.364 -22.427  0.00  0.00    +0.037 C 
ATOM     35  C   UNL     1      36.786 -19.470 -21.083  0.00  0.00    +0.003 C 
ATOM     36  C   UNL     1      34.487 -20.179 -21.304  0.00  0.00    +0.003 C 
ATOM     37  C   UNL     1      35.708 -20.232 -20.632  0.00  0.00    +0.000 C 
ENDBRANCH  31  32
ENDBRANCH  30  31
ENDBRANCH  23  25
ENDBRANCH  20  22
ENDBRANCH   1  20
TORSDOF 6
ENDMDL
MODEL 8
REMARK VINA RESULT:     -11.0      2.703      5.332
REMARK  Name = 25023705
REMARK  6 active torsions:
REMARK  status: ('A' for Active; 'I' for Inactive)
REMARK    1  A    between atoms: C_1  and  C_8
REMARK    2  A    between atoms: C_1  and  C_20
REMARK    3  A    between atoms: C_20  and  N_22
REMARK    4  A    between atoms: C_23  and  C_25
REMARK    5  A    between atoms: C_30  and  O_31
REMARK    6  A    between atoms: O_31  and  C_32
REMARK                            x       y       z     vdW  Elec       q    Type
REMARK                         _______ _______ _______ _____ _____    ______ ____
ROOT
ATOM      1  C   UNL     1      35.000 -21.793 -19.717  0.00  0.00    +0.066 C 
ATOM      2  C   UNL     1      33.540 -21.285 -19.799  0.00  0.00    +0.009 C 
ATOM      3  C   UNL     1      35.124 -22.937 -20.754  0.00  0.00    +0.009 C 
ENDROOT
BRANCH   1   8
ATOM      4  N   UNL     1      34.306 -22.913 -17.636  0.00  0.00    -0.347 NA
ATOM      5  N   UNL     1      33.538 -23.995 -15.738  0.00  0.00    -0.266 NA
ATOM      6  N   UNL     1      34.891 -24.166 -13.753  0.00  0.00    -0.316 NA
ATOM      7  N   UNL     1      32.743 -25.095 -13.823  0.00  0.00    -0.283 N 
ATOM      8  C   UNL     1      35.290 -22.230 -18.268  0.00  0.00    +0.122 C 
ATOM      9  C   UNL     1      36.504 -21.913 -17.697  0.00  0.00    +0.026 C 
ATOM     10  C   UNL     1      36.715 -22.327 -16.394  0.00  0.00    +0.001 C 
ATOM     11  C   UNL     1      34.503 -23.319 -16.374  0.00  0.00    +0.137 C 
ATOM     12  C   UNL     1      35.708 -23.036 -15.722  0.00  0.00    +0.199 C 
ATOM     13  C   UNL     1      35.846 -23.486 -14.411  0.00  0.00    +0.187 C 
ATOM     14  C   UNL     1      33.778 -24.383 -14.468  0.00  0.00    +0.207 C 
ATOM     15  H   UNL     1      31.903 -25.282 -14.301  0.00  0.00    +0.156 HD
ATOM     16  H   UNL     1      32.862 -25.404 -12.895  0.00  0.00    +0.156 HD
ATOM     17  N   UNL     1      37.048 -23.226 -13.708  0.00  0.00    -0.334 N 
ATOM     18  H   UNL     1      37.153 -23.540 -12.780  0.00  0.00    +0.144 HD
ATOM     19  H   UNL     1      37.777 -22.731 -14.146  0.00  0.00    +0.144 HD
ENDBRANCH   1   8
BRANCH   1  20
ATOM     20  C   UNL     1      35.942 -20.634 -20.147  0.00  0.00    +0.096 C 
BRANCH  20  22
ATOM     21  O   UNL     1      37.352 -18.814 -21.862  0.00  0.00    -0.270 OA
ATOM     22  N   UNL     1      35.361 -19.739 -21.115  0.00  0.00    -0.300 N 
ATOM     23  C   UNL     1      36.127 -18.891 -21.903  0.00  0.00    +0.246 C 
ATOM     24  H   UNL     1      34.382 -19.728 -21.221  0.00  0.00    +0.150 HD
BRANCH  23  25
ATOM     25  C   UNL     1      35.375 -18.010 -22.834  0.00  0.00    +0.054 C 
ATOM     26  C   UNL     1      35.339 -16.634 -22.616  0.00  0.00    +0.008 C 
ATOM     27  C   UNL     1      34.703 -18.563 -23.926  0.00  0.00    +0.008 C 
ATOM     28  C   UNL     1      34.632 -15.808 -23.490  0.00  0.00    +0.038 C 
ATOM     29  C   UNL     1      33.996 -17.736 -24.799  0.00  0.00    +0.038 C 
ATOM     30  C   UNL     1      33.960 -16.359 -24.581  0.00  0.00    +0.145 C 
BRANCH  30  31
ATOM     31  O   UNL     1      33.268 -15.554 -25.432  0.00  0.00    -0.453 OA
BRANCH  31  32
ATOM     32  C   UNL     1      33.418 -14.185 -25.288  0.00  0.00    +0.145 C 
ATOM     33  C   UNL     1      33.306 -13.600 -24.027  0.00  0.00    +0.037 C 
ATOM     34  C   UNL     1      33.680 -13.390 -26.405  0.00  0.00    +0.037 C 
ATOM     35  C   UNL     1      33.456 -12.221 -23.881  0.00  0.00    +0.003 C 
ATOM     36  C   UNL     1      33.830 -12.011 -26.259  0.00  0.00    +0.003 C 
ATOM     37  C   UNL     1      33.717 -11.426 -24.998  0.00  0.00    +0.000 C 
ENDBRANCH  31  32
ENDBRANCH  30  31
ENDBRANCH  23  25
ENDBRANCH  20  22
ENDBRANCH   1  20
TORSDOF 6
ENDMDL
MODEL 9
REMARK VINA RESULT:     -10.9      2.264      5.006
REMARK  Name = 25023705
REMARK  6 active torsions:
REMARK  status: ('A' for Active; 'I' for Inactive)
REMARK    1  A    between atoms: C_1  and  C_8
REMARK    2  A    between atoms: C_1  and  C_20
REMARK    3  A    between atoms: C_20  and  N_22
REMARK    4  A    between atoms: C_23  and  C_25
REMARK    5  A    between atoms: C_30  and  O_31
REMARK    6  A    between atoms: O_31  and  C_32
REMARK                            x       y       z     vdW  Elec       q    Type
REMARK                         _______ _______ _______ _____ _____    ______ ____
ROOT
ATOM      1  C   UNL     1      34.267 -23.724 -15.300  0.00  0.00    +0.066 C 
ATOM      2  C   UNL     1      35.042 -24.463 -14.182  0.00  0.00    +0.009 C 
ATOM      3  C   UNL     1      34.544 -22.213 -15.100  0.00  0.00    +0.009 C 
ENDROOT
BRANCH   1   8
ATOM      4  N   UNL     1      31.935 -23.469 -16.053  0.00  0.00    -0.347 NA
ATOM      5  N   UNL     1      29.786 -23.140 -16.850  0.00  0.00    -0.266 NA
ATOM      6  N   UNL     1      27.910 -24.347 -15.944  0.00  0.00    -0.316 NA
ATOM      7  N   UNL     1      27.614 -22.793 -17.671  0.00  0.00    -0.283 N 
ATOM      8  C   UNL     1      32.776 -24.103 -15.201  0.00  0.00    +0.122 C 
ATOM      9  C   UNL     1      32.378 -25.044 -14.276  0.00  0.00    +0.026 C 
ATOM     10  C   UNL     1      31.029 -25.349 -14.227  0.00  0.00    +0.001 C 
ATOM     11  C   UNL     1      30.628 -23.759 -16.013  0.00  0.00    +0.137 C 
ATOM     12  C   UNL     1      30.142 -24.703 -15.102  0.00  0.00    +0.199 C 
ATOM     13  C   UNL     1      28.772 -24.956 -15.113  0.00  0.00    +0.187 C 
ATOM     14  C   UNL     1      28.478 -23.462 -16.775  0.00  0.00    +0.207 C 
ATOM     15  H   UNL     1      27.978 -22.133 -18.303  0.00  0.00    +0.156 HD
ATOM     16  H   UNL     1      26.649 -22.988 -17.661  0.00  0.00    +0.156 HD
ATOM     17  N   UNL     1      28.232 -25.904 -14.210  0.00  0.00    -0.334 N 
ATOM     18  H   UNL     1      27.264 -26.089 -14.211  0.00  0.00    +0.144 HD
ATOM     19  H   UNL     1      28.822 -26.377 -13.580  0.00  0.00    +0.144 HD
ENDBRANCH   1   8
BRANCH   1  20
ATOM     20  C   UNL     1      34.860 -24.157 -16.670  0.00  0.00    +0.096 C 
BRANCH  20  22
ATOM     21  O   UNL     1      33.503 -23.563 -19.129  0.00  0.00    -0.270 OA
ATOM     22  N   UNL     1      35.135 -23.059 -17.560  0.00  0.00    -0.300 N 
ATOM     23  C   UNL     1      34.422 -22.851 -18.733  0.00  0.00    +0.246 C 
ATOM     24  H   UNL     1      35.857 -22.430 -17.327  0.00  0.00    +0.150 HD
BRANCH  23  25
ATOM     25  C   UNL     1      34.846 -21.688 -19.556  0.00  0.00    +0.054 C 
ATOM     26  C   UNL     1      33.895 -20.945 -20.255  0.00  0.00    +0.008 C 
ATOM     27  C   UNL     1      36.196 -21.341 -19.628  0.00  0.00    +0.008 C 
ATOM     28  C   UNL     1      34.294 -19.854 -21.027  0.00  0.00    +0.038 C 
ATOM     29  C   UNL     1      36.594 -20.250 -20.401  0.00  0.00    +0.038 C 
ATOM     30  C   UNL     1      35.643 -19.507 -21.101  0.00  0.00    +0.145 C 
BRANCH  30  31
ATOM     31  O   UNL     1      36.033 -18.445 -21.856  0.00  0.00    -0.453 OA
BRANCH  31  32
ATOM     32  C   UNL     1      35.264 -18.125 -22.963  0.00  0.00    +0.145 C 
ATOM     33  C   UNL     1      35.055 -16.790 -23.304  0.00  0.00    +0.037 C 
ATOM     34  C   UNL     1      34.698 -19.140 -23.736  0.00  0.00    +0.037 C 
ATOM     35  C   UNL     1      34.280 -16.467 -24.419  0.00  0.00    +0.003 C 
ATOM     36  C   UNL     1      33.923 -18.818 -24.850  0.00  0.00    +0.003 C 
ATOM     37  C   UNL     1      33.714 -17.482 -25.191  0.00  0.00    +0.000 C 
ENDBRANCH  31  32
ENDBRANCH  30  31
ENDBRANCH  23  25
ENDBRANCH  20  22
ENDBRANCH   1  20
TORSDOF 6
ENDMDL
