MODEL 1
REMARK VINA RESULT:     -11.4      0.000      0.000
REMARK  Name = 23658582
REMARK  4 active torsions:
REMARK  status: ('A' for Active; 'I' for Inactive)
REMARK    1  A    between atoms: N_3  and  C_13
REMARK    2  A    between atoms: C_8  and  C_25
REMARK    3  A    between atoms: C_15  and  C_22
REMARK    4  A    between atoms: N_24  and  C_29
REMARK                            x       y       z     vdW  Elec       q    Type
REMARK                         _______ _______ _______ _____ _____    ______ ____
ROOT
ATOM      1 CL   UNL     1      31.973 -24.679 -15.157  0.00  0.00    -0.082 Cl
ATOM      2  O   UNL     1      35.769 -22.507 -17.925  0.00  0.00    -0.352 OA
ATOM      3  N   UNL     1      34.089 -20.768 -20.443  0.00  0.00    -0.295 N 
ATOM      4  N   UNL     1      35.805 -21.693 -19.051  0.00  0.00    -0.062 NA
ATOM      5  C   UNL     1      33.637 -22.172 -18.525  0.00  0.00    +0.072 A 
ATOM      6  C   UNL     1      34.475 -22.790 -17.613  0.00  0.00    +0.183 A 
ATOM      7  C   UNL     1      34.527 -21.506 -19.392  0.00  0.00    +0.174 A 
ATOM      8  C   UNL     1      34.034 -23.576 -16.552  0.00  0.00    +0.101 C 
ATOM      9  C   UNL     1      32.250 -22.331 -18.394  0.00  0.00    +0.007 C 
ATOM     10  C   UNL     1      32.649 -23.726 -16.433  0.00  0.00    +0.065 C 
ATOM     11  C   UNL     1      31.772 -23.117 -17.336  0.00  0.00    +0.012 C 
ATOM     12  H   UNL     1      33.116 -20.820 -20.589  0.00  0.00    +0.154 HD
ENDROOT
BRANCH   3  13
ATOM     13  C   UNL     1      34.765 -19.933 -21.377  0.00  0.00    +0.049 C 
ATOM     14  C   UNL     1      34.094 -19.465 -22.506  0.00  0.00    +0.018 C 
ATOM     15  C   UNL     1      34.757 -18.646 -23.421  0.00  0.00    +0.073 C 
ATOM     16  C   UNL     1      36.097 -19.582 -21.162  0.00  0.00    +0.015 C 
ATOM     17  C   UNL     1      36.089 -18.295 -23.207  0.00  0.00    +0.004 C 
ATOM     18  C   UNL     1      36.760 -18.764 -22.076  0.00  0.00    +0.001 C 
BRANCH  15  22
ATOM     19  F   UNL     1      33.002 -18.942 -25.021  0.00  0.00    -0.166 F 
ATOM     20  F   UNL     1      33.495 -16.904 -24.469  0.00  0.00    -0.166 F 
ATOM     21  F   UNL     1      34.857 -18.048 -25.721  0.00  0.00    -0.166 F 
ATOM     22  C   UNL     1      34.041 -18.146 -24.631  0.00  0.00    +0.419 C 
ENDBRANCH  15  22
ENDBRANCH   3  13
BRANCH   8  25
ATOM     23  O   UNL     1      35.161 -25.414 -15.636  0.00  0.00    -0.270 OA
ATOM     24  N   UNL     1      35.637 -23.297 -14.778  0.00  0.00    -0.278 N 
ATOM     25  C   UNL     1      34.988 -24.189 -15.642  0.00  0.00    +0.253 C 
ATOM     26  H   UNL     1      35.407 -22.347 -14.890  0.00  0.00    +0.155 HD
BRANCH  24  29
ATOM     27  N   UNL     1      38.649 -24.616 -13.075  0.00  0.00    -0.221 NA
ATOM     28  N   UNL     1      37.302 -23.423 -11.473  0.00  0.00    -0.221 NA
ATOM     29  C   UNL     1      36.584 -23.590 -13.764  0.00  0.00    +0.089 C 
ATOM     30  C   UNL     1      37.727 -24.320 -14.015  0.00  0.00    +0.117 C 
ATOM     31  C   UNL     1      36.421 -23.163 -12.462  0.00  0.00    +0.117 C 
ATOM     32  C   UNL     1      38.377 -24.144 -11.844  0.00  0.00    +0.199 C 
ENDBRANCH  24  29
ENDBRANCH   8  25
TORSDOF 4
ENDMDL
MODEL 2
REMARK VINA RESULT:     -11.2      6.162      9.072
REMARK  Name = 23658582
REMARK  4 active torsions:
REMARK  status: ('A' for Active; 'I' for Inactive)
REMARK    1  A    between atoms: N_3  and  C_13
REMARK    2  A    between atoms: C_8  and  C_25
REMARK    3  A    between atoms: C_15  and  C_22
REMARK    4  A    between atoms: N_24  and  C_29
REMARK                            x       y       z     vdW  Elec       q    Type
REMARK                         _______ _______ _______ _____ _____    ______ ____
ROOT
ATOM      1 CL   UNL     1      34.917 -19.831 -24.508  0.00  0.00    -0.082 Cl
ATOM      2  O   UNL     1      34.505 -15.470 -21.752  0.00  0.00    -0.352 OA
ATOM      3  N   UNL     1      33.760 -13.031 -24.138  0.00  0.00    -0.295 N 
ATOM      4  N   UNL     1      34.228 -14.145 -22.069  0.00  0.00    -0.062 NA
ATOM      5  C   UNL     1      34.202 -15.404 -23.971  0.00  0.00    +0.072 A 
ATOM      6  C   UNL     1      34.488 -16.218 -22.889  0.00  0.00    +0.183 A 
ATOM      7  C   UNL     1      34.053 -14.128 -23.393  0.00  0.00    +0.174 A 
ATOM      8  C   UNL     1      34.719 -17.588 -22.978  0.00  0.00    +0.101 C 
ATOM      9  C   UNL     1      34.135 -15.971 -25.252  0.00  0.00    +0.007 C 
ATOM     10  C   UNL     1      34.649 -18.139 -24.261  0.00  0.00    +0.065 C 
ATOM     11  C   UNL     1      34.363 -17.348 -25.379  0.00  0.00    +0.012 C 
ATOM     12  H   UNL     1      33.756 -13.198 -25.108  0.00  0.00    +0.154 HD
ENDROOT
BRANCH   3  13
ATOM     13  C   UNL     1      33.460 -11.685 -23.786  0.00  0.00    +0.049 C 
ATOM     14  C   UNL     1      34.195 -10.638 -24.341  0.00  0.00    +0.018 C 
ATOM     15  C   UNL     1      33.901  -9.319 -23.997  0.00  0.00    +0.073 C 
ATOM     16  C   UNL     1      32.428 -11.412 -22.887  0.00  0.00    +0.015 C 
ATOM     17  C   UNL     1      32.870  -9.046 -23.098  0.00  0.00    +0.004 C 
ATOM     18  C   UNL     1      32.134 -10.094 -22.543  0.00  0.00    +0.001 C 
BRANCH  15  22
ATOM     19  F   UNL     1      33.924  -7.134 -24.972  0.00  0.00    -0.166 F 
ATOM     20  F   UNL     1      35.622  -7.678 -23.739  0.00  0.00    -0.166 F 
ATOM     21  F   UNL     1      35.378  -8.575 -25.704  0.00  0.00    -0.166 F 
ATOM     22  C   UNL     1      34.688  -8.199 -24.588  0.00  0.00    +0.419 C 
ENDBRANCH  15  22
ENDBRANCH   3  13
BRANCH   8  25
ATOM     23  O   UNL     1      35.882 -17.996 -20.986  0.00  0.00    -0.270 OA
ATOM     24  N   UNL     1      34.276 -19.550 -21.656  0.00  0.00    -0.278 N 
ATOM     25  C   UNL     1      35.013 -18.366 -21.786  0.00  0.00    +0.253 C 
ATOM     26  H   UNL     1      33.615 -19.724 -22.364  0.00  0.00    +0.155 HD
BRANCH  24  29
ATOM     27  N   UNL     1      33.279 -22.007 -19.072  0.00  0.00    -0.221 NA
ATOM     28  N   UNL     1      35.684 -21.926 -19.190  0.00  0.00    -0.221 NA
ATOM     29  C   UNL     1      34.360 -20.529 -20.633  0.00  0.00    +0.089 C 
ATOM     30  C   UNL     1      33.237 -21.075 -20.046  0.00  0.00    +0.117 C 
ATOM     31  C   UNL     1      35.568 -20.996 -20.161  0.00  0.00    +0.117 C 
ATOM     32  C   UNL     1      34.517 -22.382 -18.697  0.00  0.00    +0.199 C 
ENDBRANCH  24  29
ENDBRANCH   8  25
TORSDOF 4
ENDMDL
MODEL 3
REMARK VINA RESULT:     -11.1      5.809      8.710
REMARK  Name = 23658582
REMARK  4 active torsions:
REMARK  status: ('A' for Active; 'I' for Inactive)
REMARK    1  A    between atoms: N_3  and  C_13
REMARK    2  A    between atoms: C_8  and  C_25
REMARK    3  A    between atoms: C_15  and  C_22
REMARK    4  A    between atoms: N_24  and  C_29
REMARK                            x       y       z     vdW  Elec       q    Type
REMARK                         _______ _______ _______ _____ _____    ______ ____
ROOT
ATOM      1 CL   UNL     1      35.029 -20.107 -24.436  0.00  0.00    -0.082 Cl
ATOM      2  O   UNL     1      34.504 -15.803 -21.611  0.00  0.00    -0.352 OA
ATOM      3  N   UNL     1      33.580 -13.371 -23.940  0.00  0.00    -0.295 N 
ATOM      4  N   UNL     1      34.159 -14.488 -21.901  0.00  0.00    -0.062 NA
ATOM      5  C   UNL     1      34.133 -15.723 -23.819  0.00  0.00    +0.072 A 
ATOM      6  C   UNL     1      34.487 -16.537 -22.757  0.00  0.00    +0.183 A 
ATOM      7  C   UNL     1      33.944 -14.463 -23.219  0.00  0.00    +0.174 A 
ATOM      8  C   UNL     1      34.776 -17.894 -22.871  0.00  0.00    +0.101 C 
ATOM      9  C   UNL     1      34.053 -16.277 -25.105  0.00  0.00    +0.007 C 
ATOM     10  C   UNL     1      34.693 -18.432 -24.159  0.00  0.00    +0.065 C 
ATOM     11  C   UNL     1      34.339 -17.641 -25.257  0.00  0.00    +0.012 C 
ATOM     12  H   UNL     1      33.555 -13.526 -24.912  0.00  0.00    +0.154 HD
ENDROOT
BRANCH   3  13
ATOM     13  C   UNL     1      33.231 -12.044 -23.562  0.00  0.00    +0.049 C 
ATOM     14  C   UNL     1      32.417 -11.828 -22.450  0.00  0.00    +0.018 C 
ATOM     15  C   UNL     1      32.075 -10.527 -22.079  0.00  0.00    +0.073 C 
ATOM     16  C   UNL     1      33.703 -10.960 -24.302  0.00  0.00    +0.015 C 
ATOM     17  C   UNL     1      32.547  -9.444 -22.819  0.00  0.00    +0.004 C 
ATOM     18  C   UNL     1      33.361  -9.661 -23.931  0.00  0.00    +0.001 C 
BRANCH  15  22
ATOM     19  F   UNL     1      31.005  -8.974 -20.607  0.00  0.00    -0.166 F 
ATOM     20  F   UNL     1      29.950 -10.823 -21.020  0.00  0.00    -0.166 F 
ATOM     21  F   UNL     1      31.715 -10.841 -19.749  0.00  0.00    -0.166 F 
ATOM     22  C   UNL     1      31.204 -10.295 -20.891  0.00  0.00    +0.419 C 
ENDBRANCH  15  22
ENDBRANCH   3  13
BRANCH   8  25
ATOM     23  O   UNL     1      36.124 -18.365 -21.014  0.00  0.00    -0.270 OA
ATOM     24  N   UNL     1      34.326 -19.785 -21.452  0.00  0.00    -0.278 N 
ATOM     25  C   UNL     1      35.140 -18.673 -21.699  0.00  0.00    +0.253 C 
ATOM     26  H   UNL     1      33.575 -19.915 -22.075  0.00  0.00    +0.155 HD
BRANCH  24  29
ATOM     27  N   UNL     1      33.419 -22.261 -18.852  0.00  0.00    -0.221 NA
ATOM     28  N   UNL     1      35.819 -22.067 -18.947  0.00  0.00    -0.221 NA
ATOM     29  C   UNL     1      34.445 -20.749 -20.418  0.00  0.00    +0.089 C 
ATOM     30  C   UNL     1      33.343 -21.342 -19.836  0.00  0.00    +0.117 C 
ATOM     31  C   UNL     1      35.669 -21.153 -19.928  0.00  0.00    +0.117 C 
ATOM     32  C   UNL     1      34.669 -22.573 -18.461  0.00  0.00    +0.199 C 
ENDBRANCH  24  29
ENDBRANCH   8  25
TORSDOF 4
ENDMDL
MODEL 4
REMARK VINA RESULT:     -11.0      3.380      4.677
REMARK  Name = 23658582
REMARK  4 active torsions:
REMARK  status: ('A' for Active; 'I' for Inactive)
REMARK    1  A    between atoms: N_3  and  C_13
REMARK    2  A    between atoms: C_8  and  C_25
REMARK    3  A    between atoms: C_15  and  C_22
REMARK    4  A    between atoms: N_24  and  C_29
REMARK                            x       y       z     vdW  Elec       q    Type
REMARK                         _______ _______ _______ _____ _____    ______ ____
ROOT
ATOM      1 CL   UNL     1      35.867 -23.853 -16.122  0.00  0.00    -0.082 Cl
ATOM      2  O   UNL     1      33.096 -21.653 -19.899  0.00  0.00    -0.352 OA
ATOM      3  N   UNL     1      35.310 -19.382 -21.359  0.00  0.00    -0.295 N 
ATOM      4  N   UNL     1      33.360 -20.679 -20.855  0.00  0.00    -0.062 NA
ATOM      5  C   UNL     1      35.221 -21.020 -19.581  0.00  0.00    +0.072 A 
ATOM      6  C   UNL     1      34.208 -21.855 -19.141  0.00  0.00    +0.183 A 
ATOM      7  C   UNL     1      34.629 -20.316 -20.647  0.00  0.00    +0.174 A 
ATOM      8  C   UNL     1      34.334 -22.752 -18.084  0.00  0.00    +0.101 C 
ATOM      9  C   UNL     1      36.466 -21.062 -18.936  0.00  0.00    +0.007 C 
ATOM     10  C   UNL     1      35.580 -22.782 -17.450  0.00  0.00    +0.065 C 
ATOM     11  C   UNL     1      36.628 -21.953 -17.867  0.00  0.00    +0.012 C 
ATOM     12  H   UNL     1      36.207 -19.186 -21.002  0.00  0.00    +0.154 HD
ENDROOT
BRANCH   3  13
ATOM     13  C   UNL     1      34.978 -18.629 -22.520  0.00  0.00    +0.049 C 
ATOM     14  C   UNL     1      34.826 -17.246 -22.434  0.00  0.00    +0.018 C 
ATOM     15  C   UNL     1      34.501 -16.508 -23.573  0.00  0.00    +0.073 C 
ATOM     16  C   UNL     1      34.805 -19.275 -23.744  0.00  0.00    +0.015 C 
ATOM     17  C   UNL     1      34.327 -17.154 -24.797  0.00  0.00    +0.004 C 
ATOM     18  C   UNL     1      34.480 -18.539 -24.882  0.00  0.00    +0.001 C 
BRANCH  15  22
ATOM     19  F   UNL     1      33.033 -14.622 -23.467  0.00  0.00    -0.166 F 
ATOM     20  F   UNL     1      34.891 -14.484 -22.359  0.00  0.00    -0.166 F 
ATOM     21  F   UNL     1      34.912 -14.371 -24.530  0.00  0.00    -0.166 F 
ATOM     22  C   UNL     1      34.336 -15.028 -23.482  0.00  0.00    +0.419 C 
ENDBRANCH  15  22
ENDBRANCH   3  13
BRANCH   8  25
ATOM     23  O   UNL     1      33.021 -24.686 -18.233  0.00  0.00    -0.270 OA
ATOM     24  N   UNL     1      32.383 -23.043 -16.704  0.00  0.00    -0.278 N 
ATOM     25  C   UNL     1      33.214 -23.590 -17.690  0.00  0.00    +0.253 C 
ATOM     26  H   UNL     1      32.653 -22.162 -16.356  0.00  0.00    +0.155 HD
BRANCH  24  29
ATOM     27  N   UNL     1      28.802 -23.712 -16.042  0.00  0.00    -0.221 NA
ATOM     28  N   UNL     1      30.139 -25.101 -14.597  0.00  0.00    -0.221 NA
ATOM     29  C   UNL     1      31.204 -23.595 -16.143  0.00  0.00    +0.089 C 
ATOM     30  C   UNL     1      29.944 -23.208 -16.553  0.00  0.00    +0.117 C 
ATOM     31  C   UNL     1      31.241 -24.554 -15.152  0.00  0.00    +0.117 C 
ATOM     32  C   UNL     1      28.970 -24.641 -15.082  0.00  0.00    +0.199 C 
ENDBRANCH  24  29
ENDBRANCH   8  25
TORSDOF 4
ENDMDL
MODEL 5
REMARK VINA RESULT:     -10.9      6.975     11.235
REMARK  Name = 23658582
REMARK  4 active torsions:
REMARK  status: ('A' for Active; 'I' for Inactive)
REMARK    1  A    between atoms: N_3  and  C_13
REMARK    2  A    between atoms: C_8  and  C_25
REMARK    3  A    between atoms: C_15  and  C_22
REMARK    4  A    between atoms: N_24  and  C_29
REMARK                            x       y       z     vdW  Elec       q    Type
REMARK                         _______ _______ _______ _____ _____    ______ ____
ROOT
ATOM      1 CL   UNL     1      33.073 -12.599 -26.414  0.00  0.00    -0.082 Cl
ATOM      2  O   UNL     1      34.205 -14.791 -21.864  0.00  0.00    -0.352 OA
ATOM      3  N   UNL     1      34.906 -18.113 -22.678  0.00  0.00    -0.295 N 
ATOM      4  N   UNL     1      34.569 -16.072 -21.468  0.00  0.00    -0.062 NA
ATOM      5  C   UNL     1      34.262 -16.031 -23.728  0.00  0.00    +0.072 A 
ATOM      6  C   UNL     1      34.023 -14.769 -23.213  0.00  0.00    +0.183 A 
ATOM      7  C   UNL     1      34.596 -16.794 -22.592  0.00  0.00    +0.174 A 
ATOM      8  C   UNL     1      33.654 -13.666 -23.978  0.00  0.00    +0.101 C 
ATOM      9  C   UNL     1      34.130 -16.239 -25.109  0.00  0.00    +0.007 C 
ATOM     10  C   UNL     1      33.526 -13.888 -25.353  0.00  0.00    +0.065 C 
ATOM     11  C   UNL     1      33.759 -15.150 -25.910  0.00  0.00    +0.012 C 
ATOM     12  H   UNL     1      34.786 -18.493 -23.578  0.00  0.00    +0.154 HD
ENDROOT
BRANCH   3  13
ATOM     13  C   UNL     1      35.371 -19.054 -21.716  0.00  0.00    +0.049 C 
ATOM     14  C   UNL     1      34.481 -19.960 -21.140  0.00  0.00    +0.018 C 
ATOM     15  C   UNL     1      34.937 -20.882 -20.198  0.00  0.00    +0.073 C 
ATOM     16  C   UNL     1      36.717 -19.070 -21.350  0.00  0.00    +0.015 C 
ATOM     17  C   UNL     1      36.282 -20.898 -19.832  0.00  0.00    +0.004 C 
ATOM     18  C   UNL     1      37.173 -19.991 -20.408  0.00  0.00    +0.001 C 
BRANCH  15  22
ATOM     19  F   UNL     1      33.967 -23.069 -20.197  0.00  0.00    -0.166 F 
ATOM     20  F   UNL     1      34.254 -22.120 -18.269  0.00  0.00    -0.166 F 
ATOM     21  F   UNL     1      32.695 -21.408 -19.606  0.00  0.00    -0.166 F 
ATOM     22  C   UNL     1      33.985 -21.850 -19.581  0.00  0.00    +0.419 C 
ENDBRANCH  15  22
ENDBRANCH   3  13
BRANCH   8  25
ATOM     23  O   UNL     1      34.107 -11.391 -23.655  0.00  0.00    -0.270 OA
ATOM     24  N   UNL     1      32.418 -12.365 -22.374  0.00  0.00    -0.278 N 
ATOM     25  C   UNL     1      33.423 -12.376 -23.350  0.00  0.00    +0.253 C 
ATOM     26  H   UNL     1      31.950 -13.219 -22.230  0.00  0.00    +0.155 HD
BRANCH  24  29
ATOM     27  N   UNL     1      31.269 -10.428 -19.435  0.00  0.00    -0.221 NA
ATOM     28  N   UNL     1      31.444  -8.949 -21.329  0.00  0.00    -0.221 NA
ATOM     29  C   UNL     1      31.988 -11.281 -21.567  0.00  0.00    +0.089 C 
ATOM     30  C   UNL     1      31.680 -11.436 -20.231  0.00  0.00    +0.117 C 
ATOM     31  C   UNL     1      31.850 -10.003 -22.068  0.00  0.00    +0.117 C 
ATOM     32  C   UNL     1      31.174  -9.228 -20.039  0.00  0.00    +0.199 C 
ENDBRANCH  24  29
ENDBRANCH   8  25
TORSDOF 4
ENDMDL
MODEL 6
REMARK VINA RESULT:     -10.9      5.089      9.723
REMARK  Name = 23658582
REMARK  4 active torsions:
REMARK  status: ('A' for Active; 'I' for Inactive)
REMARK    1  A    between atoms: N_3  and  C_13
REMARK    2  A    between atoms: C_8  and  C_25
REMARK    3  A    between atoms: C_15  and  C_22
REMARK    4  A    between atoms: N_24  and  C_29
REMARK                            x       y       z     vdW  Elec       q    Type
REMARK                         _______ _______ _______ _____ _____    ______ ____
ROOT
ATOM      1 CL   UNL     1      37.320 -19.414 -21.904  0.00  0.00    -0.082 Cl
ATOM      2  O   UNL     1      32.653 -20.878 -20.212  0.00  0.00    -0.352 OA
ATOM      3  N   UNL     1      33.353 -22.964 -17.501  0.00  0.00    -0.295 N 
ATOM      4  N   UNL     1      32.207 -21.695 -19.179  0.00  0.00    -0.062 NA
ATOM      5  C   UNL     1      34.488 -21.630 -19.170  0.00  0.00    +0.072 A 
ATOM      6  C   UNL     1      34.013 -20.841 -20.203  0.00  0.00    +0.183 A 
ATOM      7  C   UNL     1      33.315 -22.132 -18.573  0.00  0.00    +0.174 A 
ATOM      8  C   UNL     1      34.825 -20.130 -21.084  0.00  0.00    +0.101 C 
ATOM      9  C   UNL     1      35.873 -21.738 -18.976  0.00  0.00    +0.007 C 
ATOM     10  C   UNL     1      36.203 -20.247 -20.878  0.00  0.00    +0.065 C 
ATOM     11  C   UNL     1      36.719 -21.036 -19.845  0.00  0.00    +0.012 C 
ATOM     12  H   UNL     1      34.262 -23.247 -17.249  0.00  0.00    +0.154 HD
ENDROOT
BRANCH   3  13
ATOM     13  C   UNL     1      32.332 -23.508 -16.672  0.00  0.00    +0.049 C 
ATOM     14  C   UNL     1      30.992 -23.343 -17.018  0.00  0.00    +0.018 C 
ATOM     15  C   UNL     1      29.991 -23.877 -16.205  0.00  0.00    +0.073 C 
ATOM     16  C   UNL     1      32.673 -24.207 -15.514  0.00  0.00    +0.015 C 
ATOM     17  C   UNL     1      30.331 -24.575 -15.047  0.00  0.00    +0.004 C 
ATOM     18  C   UNL     1      31.674 -24.741 -14.702  0.00  0.00    +0.001 C 
BRANCH  15  22
ATOM     19  F   UNL     1      28.037 -24.749 -17.275  0.00  0.00    -0.166 F 
ATOM     20  F   UNL     1      27.730 -23.548 -15.496  0.00  0.00    -0.166 F 
ATOM     21  F   UNL     1      28.347 -22.598 -17.352  0.00  0.00    -0.166 F 
ATOM     22  C   UNL     1      28.557 -23.699 -16.573  0.00  0.00    +0.419 C 
ENDBRANCH  15  22
ENDBRANCH   3  13
BRANCH   8  25
ATOM     23  O   UNL     1      33.276 -19.745 -22.798  0.00  0.00    -0.270 OA
ATOM     24  N   UNL     1      34.867 -18.094 -22.368  0.00  0.00    -0.278 N 
ATOM     25  C   UNL     1      34.238 -19.326 -22.142  0.00  0.00    +0.253 C 
ATOM     26  H   UNL     1      35.622 -17.883 -21.773  0.00  0.00    +0.155 HD
BRANCH  24  29
ATOM     27  N   UNL     1      34.312 -14.802 -23.969  0.00  0.00    -0.221 NA
ATOM     28  N   UNL     1      33.880 -16.541 -25.580  0.00  0.00    -0.221 NA
ATOM     29  C   UNL     1      34.555 -17.113 -23.343  0.00  0.00    +0.089 C 
ATOM     30  C   UNL     1      34.602 -15.762 -23.067  0.00  0.00    +0.117 C 
ATOM     31  C   UNL     1      34.183 -17.448 -24.628  0.00  0.00    +0.117 C 
ATOM     32  C   UNL     1      33.963 -15.255 -25.188  0.00  0.00    +0.199 C 
ENDBRANCH  24  29
ENDBRANCH   8  25
TORSDOF 4
ENDMDL
MODEL 7
REMARK VINA RESULT:     -10.5      7.426     12.098
REMARK  Name = 23658582
REMARK  4 active torsions:
REMARK  status: ('A' for Active; 'I' for Inactive)
REMARK    1  A    between atoms: N_3  and  C_13
REMARK    2  A    between atoms: C_8  and  C_25
REMARK    3  A    between atoms: C_15  and  C_22
REMARK    4  A    between atoms: N_24  and  C_29
REMARK                            x       y       z     vdW  Elec       q    Type
REMARK                         _______ _______ _______ _____ _____    ______ ____
ROOT
ATOM      1 CL   UNL     1      33.005 -12.431 -26.755  0.00  0.00    -0.082 Cl
ATOM      2  O   UNL     1      34.327 -14.473 -22.187  0.00  0.00    -0.352 OA
ATOM      3  N   UNL     1      34.897 -17.843 -22.901  0.00  0.00    -0.295 N 
ATOM      4  N   UNL     1      34.679 -15.748 -21.759  0.00  0.00    -0.062 NA
ATOM      5  C   UNL     1      34.250 -15.787 -24.000  0.00  0.00    +0.072 A 
ATOM      6  C   UNL     1      34.073 -14.500 -23.524  0.00  0.00    +0.183 A 
ATOM      7  C   UNL     1      34.626 -16.514 -22.853  0.00  0.00    +0.174 A 
ATOM      8  C   UNL     1      33.691 -13.417 -24.312  0.00  0.00    +0.101 C 
ATOM      9  C   UNL     1      34.038 -16.045 -25.362  0.00  0.00    +0.007 C 
ATOM     10  C   UNL     1      33.483 -13.690 -25.668  0.00  0.00    +0.065 C 
ATOM     11  C   UNL     1      33.652 -14.978 -26.185  0.00  0.00    +0.012 C 
ATOM     12  H   UNL     1      34.717 -18.254 -23.778  0.00  0.00    +0.154 HD
ENDROOT
BRANCH   3  13
ATOM     13  C   UNL     1      35.389 -18.758 -21.928  0.00  0.00    +0.049 C 
ATOM     14  C   UNL     1      34.548 -19.741 -21.407  0.00  0.00    +0.018 C 
ATOM     15  C   UNL     1      35.030 -20.638 -20.454  0.00  0.00    +0.073 C 
ATOM     16  C   UNL     1      36.713 -18.673 -21.497  0.00  0.00    +0.015 C 
ATOM     17  C   UNL     1      36.354 -20.552 -20.022  0.00  0.00    +0.004 C 
ATOM     18  C   UNL     1      37.195 -19.569 -20.545  0.00  0.00    +0.001 C 
BRANCH  15  22
ATOM     19  F   UNL     1      32.823 -21.538 -20.255  0.00  0.00    -0.166 F 
ATOM     20  F   UNL     1      34.463 -22.955 -20.281  0.00  0.00    -0.166 F 
ATOM     21  F   UNL     1      34.134 -21.709 -18.530  0.00  0.00    -0.166 F 
ATOM     22  C   UNL     1      34.131 -21.688 -19.894  0.00  0.00    +0.419 C 
ENDBRANCH  15  22
ENDBRANCH   3  13
BRANCH   8  25
ATOM     23  O   UNL     1      32.764 -11.920 -22.768  0.00  0.00    -0.270 OA
ATOM     24  N   UNL     1      34.259 -11.079 -24.349  0.00  0.00    -0.278 N 
ATOM     25  C   UNL     1      33.528 -12.098 -23.725  0.00  0.00    +0.253 C 
ATOM     26  H   UNL     1      34.830 -11.358 -25.100  0.00  0.00    +0.155 HD
BRANCH  24  29
ATOM     27  N   UNL     1      35.400  -7.566 -24.093  0.00  0.00    -0.221 NA
ATOM     28  N   UNL     1      33.234  -7.763 -23.057  0.00  0.00    -0.221 NA
ATOM     29  C   UNL     1      34.282  -9.696 -24.035  0.00  0.00    +0.089 C 
ATOM     30  C   UNL     1      35.345  -8.884 -24.375  0.00  0.00    +0.117 C 
ATOM     31  C   UNL     1      33.245  -9.076 -23.370  0.00  0.00    +0.117 C 
ATOM     32  C   UNL     1      34.328  -7.078 -23.442  0.00  0.00    +0.199 C 
ENDBRANCH  24  29
ENDBRANCH   8  25
TORSDOF 4
ENDMDL
MODEL 8
REMARK VINA RESULT:     -10.5     11.402     14.991
REMARK  Name = 23658582
REMARK  4 active torsions:
REMARK  status: ('A' for Active; 'I' for Inactive)
REMARK    1  A    between atoms: N_3  and  C_13
REMARK    2  A    between atoms: C_8  and  C_25
REMARK    3  A    between atoms: C_15  and  C_22
REMARK    4  A    between atoms: N_24  and  C_29
REMARK                            x       y       z     vdW  Elec       q    Type
REMARK                         _______ _______ _______ _____ _____    ______ ____
ROOT
ATOM      1 CL   UNL     1      31.467 -11.281 -19.837  0.00  0.00    -0.082 Cl
ATOM      2  O   UNL     1      32.899  -9.797 -24.584  0.00  0.00    -0.352 OA
ATOM      3  N   UNL     1      33.034  -6.314 -24.375  0.00  0.00    -0.295 N 
ATOM      4  N   UNL     1      33.138  -8.567 -25.185  0.00  0.00    -0.062 NA
ATOM      5  C   UNL     1      32.538  -8.247 -23.008  0.00  0.00    +0.072 A 
ATOM      6  C   UNL     1      32.541  -9.602 -23.285  0.00  0.00    +0.183 A 
ATOM      7  C   UNL     1      32.917  -7.659 -24.230  0.00  0.00    +0.174 A 
ATOM      8  C   UNL     1      32.223 -10.594 -22.360  0.00  0.00    +0.101 C 
ATOM      9  C   UNL     1      32.195  -7.816 -21.717  0.00  0.00    +0.007 C 
ATOM     10  C   UNL     1      31.883 -10.149 -21.078  0.00  0.00    +0.065 C 
ATOM     11  C   UNL     1      31.868  -8.787 -20.761  0.00  0.00    +0.012 C 
ATOM     12  H   UNL     1      32.743  -5.802 -23.586  0.00  0.00    +0.154 HD
ENDROOT
BRANCH   3  13
ATOM     13  C   UNL     1      33.494  -5.501 -25.450  0.00  0.00    +0.049 C 
ATOM     14  C   UNL     1      32.588  -4.731 -26.178  0.00  0.00    +0.018 C 
ATOM     15  C   UNL     1      33.039  -3.934 -27.231  0.00  0.00    +0.073 C 
ATOM     16  C   UNL     1      34.850  -5.475 -25.773  0.00  0.00    +0.015 C 
ATOM     17  C   UNL     1      34.396  -3.908 -27.555  0.00  0.00    +0.004 C 
ATOM     18  C   UNL     1      35.302  -4.679 -26.824  0.00  0.00    +0.001 C 
BRANCH  15  22
ATOM     19  F   UNL     1      32.508  -1.841 -28.262  0.00  0.00    -0.166 F 
ATOM     20  F   UNL     1      31.776  -3.632 -29.240  0.00  0.00    -0.166 F 
ATOM     21  F   UNL     1      30.872  -2.968 -27.378  0.00  0.00    -0.166 F 
ATOM     22  C   UNL     1      32.072  -3.111 -28.012  0.00  0.00    +0.419 C 
ENDBRANCH  15  22
ENDBRANCH   3  13
BRANCH   8  25
ATOM     23  O   UNL     1      31.382 -12.779 -22.343  0.00  0.00    -0.270 OA
ATOM     24  N   UNL     1      33.343 -12.369 -23.537  0.00  0.00    -0.278 N 
ATOM     25  C   UNL     1      32.253 -11.996 -22.741  0.00  0.00    +0.253 C 
ATOM     26  H   UNL     1      33.963 -11.645 -23.784  0.00  0.00    +0.155 HD
BRANCH  24  29
ATOM     27  N   UNL     1      33.603 -15.281 -25.810  0.00  0.00    -0.221 NA
ATOM     28  N   UNL     1      34.685 -15.815 -23.724  0.00  0.00    -0.221 NA
ATOM     29  C   UNL     1      33.668 -13.656 -24.035  0.00  0.00    +0.089 C 
ATOM     30  C   UNL     1      33.311 -14.065 -25.304  0.00  0.00    +0.117 C 
ATOM     31  C   UNL     1      34.359 -14.582 -23.282  0.00  0.00    +0.117 C 
ATOM     32  C   UNL     1      34.281 -16.094 -24.978  0.00  0.00    +0.199 C 
ENDBRANCH  24  29
ENDBRANCH   8  25
TORSDOF 4
ENDMDL
MODEL 9
REMARK VINA RESULT:     -10.3     11.374     14.967
REMARK  Name = 23658582
REMARK  4 active torsions:
REMARK  status: ('A' for Active; 'I' for Inactive)
REMARK    1  A    between atoms: N_3  and  C_13
REMARK    2  A    between atoms: C_8  and  C_25
REMARK    3  A    between atoms: C_15  and  C_22
REMARK    4  A    between atoms: N_24  and  C_29
REMARK                            x       y       z     vdW  Elec       q    Type
REMARK                         _______ _______ _______ _____ _____    ______ ____
ROOT
ATOM      1 CL   UNL     1      31.593 -11.164 -19.565  0.00  0.00    -0.082 Cl
ATOM      2  O   UNL     1      32.472  -9.551 -24.403  0.00  0.00    -0.352 OA
ATOM      3  N   UNL     1      32.396  -6.069 -24.160  0.00  0.00    -0.295 N 
ATOM      4  N   UNL     1      32.573  -8.303 -25.007  0.00  0.00    -0.062 NA
ATOM      5  C   UNL     1      32.159  -8.041 -22.779  0.00  0.00    +0.072 A 
ATOM      6  C   UNL     1      32.226  -9.392 -23.074  0.00  0.00    +0.183 A 
ATOM      7  C   UNL     1      32.382  -7.420 -24.023  0.00  0.00    +0.174 A 
ATOM      8  C   UNL     1      32.062 -10.409 -22.137  0.00  0.00    +0.101 C 
ATOM      9  C   UNL     1      31.911  -7.645 -21.456  0.00  0.00    +0.007 C 
ATOM     10  C   UNL     1      31.815  -9.998 -20.824  0.00  0.00    +0.065 C 
ATOM     11  C   UNL     1      31.740  -8.643 -20.487  0.00  0.00    +0.012 C 
ATOM     12  H   UNL     1      32.148  -5.584 -23.340  0.00  0.00    +0.154 HD
ENDROOT
BRANCH   3  13
ATOM     13  C   UNL     1      32.699  -5.219 -25.261  0.00  0.00    +0.049 C 
ATOM     14  C   UNL     1      34.000  -5.160 -25.758  0.00  0.00    +0.018 C 
ATOM     15  C   UNL     1      34.297  -4.328 -26.838  0.00  0.00    +0.073 C 
ATOM     16  C   UNL     1      31.694  -4.447 -25.843  0.00  0.00    +0.015 C 
ATOM     17  C   UNL     1      33.292  -3.555 -27.420  0.00  0.00    +0.004 C 
ATOM     18  C   UNL     1      31.990  -3.615 -26.922  0.00  0.00    +0.001 C 
BRANCH  15  22
ATOM     19  F   UNL     1      35.812  -4.742 -28.642  0.00  0.00    -0.166 F 
ATOM     20  F   UNL     1      36.197  -2.995 -27.417  0.00  0.00    -0.166 F 
ATOM     21  F   UNL     1      36.572  -4.983 -26.619  0.00  0.00    -0.166 F 
ATOM     22  C   UNL     1      35.689  -4.262 -27.369  0.00  0.00    +0.419 C 
ENDBRANCH  15  22
ENDBRANCH   3  13
BRANCH   8  25
ATOM     23  O   UNL     1      31.323 -12.631 -22.135  0.00  0.00    -0.270 OA
ATOM     24  N   UNL     1      33.238 -12.114 -23.363  0.00  0.00    -0.278 N 
ATOM     25  C   UNL     1      32.148 -11.803 -22.539  0.00  0.00    +0.253 C 
ATOM     26  H   UNL     1      33.818 -11.359 -23.611  0.00  0.00    +0.155 HD
BRANCH  24  29
ATOM     27  N   UNL     1      33.598 -14.974 -25.688  0.00  0.00    -0.221 NA
ATOM     28  N   UNL     1      34.718 -15.498 -23.621  0.00  0.00    -0.221 NA
ATOM     29  C   UNL     1      33.610 -13.379 -23.886  0.00  0.00    +0.089 C 
ATOM     30  C   UNL     1      33.260 -13.780 -25.159  0.00  0.00    +0.117 C 
ATOM     31  C   UNL     1      34.346 -14.288 -23.154  0.00  0.00    +0.117 C 
ATOM     32  C   UNL     1      34.316 -15.773 -24.876  0.00  0.00    +0.199 C 
ENDBRANCH  24  29
ENDBRANCH   8  25
TORSDOF 4
ENDMDL
