MODEL 1
REMARK VINA RESULT:     -13.2      0.000      0.000
REMARK  Name = 5073
REMARK  4 active torsions:
REMARK  status: ('A' for Active; 'I' for Inactive)
REMARK    1  A    between atoms: N_1  and  C_18
REMARK    2  A    between atoms: C_2  and  C_11
REMARK    3  A    between atoms: C_18  and  C_19
REMARK    4  A    between atoms: C_19  and  C_23
REMARK                            x       y       z     vdW  Elec       q    Type
REMARK                         _______ _______ _______ _____ _____    ______ ____
ROOT
ATOM      1  N   UNL     1      35.723 -19.761 -20.563  0.00  0.00    +0.387 N 
ATOM      2  C   UNL     1      35.163 -18.490 -23.148  0.00  0.00    +0.039 C 
ATOM      3  C   UNL     1      34.092 -19.259 -22.356  0.00  0.00    -0.017 C 
ATOM      4  C   UNL     1      36.246 -17.970 -22.189  0.00  0.00    -0.017 C 
ATOM      5  C   UNL     1      34.722 -20.338 -21.472  0.00  0.00    -0.077 C 
ATOM      6  C   UNL     1      36.798 -19.096 -21.311  0.00  0.00    -0.077 C 
ATOM      7  H   UNL     1      35.257 -19.059 -19.989  0.00  0.00    -0.080 HD
ENDROOT
BRANCH   2  11
ATOM      8  F   UNL     1      33.316 -12.071 -23.918  0.00  0.00    -0.204 F 
ATOM      9  O   UNL     1      33.708 -16.492 -25.769  0.00  0.00    -0.354 OA
ATOM     10  N   UNL     1      34.190 -17.689 -25.256  0.00  0.00    -0.081 NA
ATOM     11  C   UNL     1      34.576 -17.399 -24.015  0.00  0.00    +0.100 A 
ATOM     12  C   UNL     1      34.373 -16.054 -23.676  0.00  0.00    +0.054 A 
ATOM     13  C   UNL     1      33.818 -15.517 -24.826  0.00  0.00    +0.179 A 
ATOM     14  C   UNL     1      34.580 -15.220 -22.567  0.00  0.00    +0.007 C 
ATOM     15  C   UNL     1      33.443 -14.185 -24.968  0.00  0.00    +0.070 C 
ATOM     16  C   UNL     1      34.211 -13.871 -22.674  0.00  0.00    +0.030 C 
ATOM     17  C   UNL     1      33.654 -13.366 -23.853  0.00  0.00    +0.143 C 
ENDBRANCH   2  11
BRANCH   1  18
ATOM     18  C   UNL     1      36.273 -20.795 -19.687  0.00  0.00    -0.076 C 
BRANCH  18  19
ATOM     19  C   UNL     1      35.436 -22.062 -19.793  0.00  0.00    -0.007 C 
BRANCH  19  23
ATOM     20  O   UNL     1      32.732 -22.612 -19.434  0.00  0.00    -0.274 OA
ATOM     21  N   UNL     1      32.904 -23.072 -17.157  0.00  0.00    -0.237 N 
ATOM     22  N   UNL     1      35.005 -22.868 -16.088  0.00  0.00    -0.399 NA
ATOM     23  C   UNL     1      34.880 -22.449 -18.454  0.00  0.00    +0.123 C 
ATOM     24  C   UNL     1      31.453 -23.260 -17.055  0.00  0.00    +0.100 C 
ATOM     25  C   UNL     1      30.993 -23.985 -15.804  0.00  0.00    +0.022 C 
ATOM     26  C   UNL     1      33.733 -23.111 -16.050  0.00  0.00    +0.165 C 
ATOM     27  C   UNL     1      31.654 -23.357 -14.596  0.00  0.00    +0.011 C 
ATOM     28  C   UNL     1      33.155 -23.527 -14.711  0.00  0.00    +0.075 C 
ATOM     29  C   UNL     1      33.408 -22.719 -18.411  0.00  0.00    +0.237 C 
ATOM     30  C   UNL     1      35.568 -22.542 -17.299  0.00  0.00    +0.096 C 
ATOM     31  C   UNL     1      37.056 -22.324 -17.214  0.00  0.00    +0.062 C 
ENDBRANCH  19  23
ENDBRANCH  18  19
ENDBRANCH   1  18
TORSDOF 4
ENDMDL
MODEL 2
REMARK VINA RESULT:     -12.5      3.488     10.239
REMARK  Name = 5073
REMARK  4 active torsions:
REMARK  status: ('A' for Active; 'I' for Inactive)
REMARK    1  A    between atoms: N_1  and  C_18
REMARK    2  A    between atoms: C_2  and  C_11
REMARK    3  A    between atoms: C_18  and  C_19
REMARK    4  A    between atoms: C_19  and  C_23
REMARK                            x       y       z     vdW  Elec       q    Type
REMARK                         _______ _______ _______ _____ _____    ______ ____
ROOT
ATOM      1  N   UNL     1      34.116 -20.575 -20.434  0.00  0.00    +0.387 N 
ATOM      2  C   UNL     1      33.942 -22.760 -18.483  0.00  0.00    +0.039 C 
ATOM      3  C   UNL     1      35.254 -22.011 -18.769  0.00  0.00    -0.017 C 
ATOM      4  C   UNL     1      32.743 -21.861 -18.824  0.00  0.00    -0.017 C 
ATOM      5  C   UNL     1      35.274 -21.449 -20.192  0.00  0.00    -0.077 C 
ATOM      6  C   UNL     1      32.854 -21.304 -20.245  0.00  0.00    -0.077 C 
ATOM      7  H   UNL     1      34.147 -19.818 -19.752  0.00  0.00    -0.080 HD
ENDROOT
BRANCH   2  11
ATOM      8  F   UNL     1      30.307 -24.465 -13.089  0.00  0.00    -0.204 F 
ATOM      9  O   UNL     1      34.606 -24.130 -15.218  0.00  0.00    -0.354 OA
ATOM     10  N   UNL     1      35.005 -23.683 -16.470  0.00  0.00    -0.081 NA
ATOM     11  C   UNL     1      33.879 -23.309 -17.075  0.00  0.00    +0.100 A 
ATOM     12  C   UNL     1      32.741 -23.489 -16.277  0.00  0.00    +0.054 A 
ATOM     13  C   UNL     1      33.255 -24.015 -15.104  0.00  0.00    +0.179 A 
ATOM     14  C   UNL     1      31.357 -23.284 -16.382  0.00  0.00    +0.007 C 
ATOM     15  C   UNL     1      32.487 -24.363 -13.997  0.00  0.00    +0.070 C 
ATOM     16  C   UNL     1      30.552 -23.623 -15.285  0.00  0.00    +0.030 C 
ATOM     17  C   UNL     1      31.109 -24.152 -14.116  0.00  0.00    +0.143 C 
ENDBRANCH   2  11
BRANCH   1  18
ATOM     18  C   UNL     1      34.180 -20.002 -21.778  0.00  0.00    -0.076 C 
BRANCH  18  19
ATOM     19  C   UNL     1      35.191 -18.864 -21.807  0.00  0.00    -0.007 C 
BRANCH  19  23
ATOM     20  O   UNL     1      34.877 -16.177 -21.154  0.00  0.00    -0.274 OA
ATOM     21  N   UNL     1      34.328 -15.493 -23.312  0.00  0.00    -0.237 N 
ATOM     22  N   UNL     1      34.180 -17.105 -25.038  0.00  0.00    -0.399 NA
ATOM     23  C   UNL     1      34.814 -17.840 -22.837  0.00  0.00    +0.123 C 
ATOM     24  C   UNL     1      34.106 -14.118 -22.851  0.00  0.00    +0.100 C 
ATOM     25  C   UNL     1      34.084 -13.075 -23.952  0.00  0.00    +0.022 C 
ATOM     26  C   UNL     1      34.075 -15.885 -24.614  0.00  0.00    +0.165 C 
ATOM     27  C   UNL     1      33.167 -13.545 -25.063  0.00  0.00    +0.011 C 
ATOM     28  C   UNL     1      33.718 -14.830 -25.645  0.00  0.00    +0.075 C 
ATOM     29  C   UNL     1      34.685 -16.433 -22.343  0.00  0.00    +0.237 C 
ATOM     30  C   UNL     1      34.555 -18.074 -24.139  0.00  0.00    +0.096 C 
ATOM     31  C   UNL     1      34.678 -19.438 -24.765  0.00  0.00    +0.062 C 
ENDBRANCH  19  23
ENDBRANCH  18  19
ENDBRANCH   1  18
TORSDOF 4
ENDMDL
MODEL 3
REMARK VINA RESULT:     -12.5      4.204     10.894
REMARK  Name = 5073
REMARK  4 active torsions:
REMARK  status: ('A' for Active; 'I' for Inactive)
REMARK    1  A    between atoms: N_1  and  C_18
REMARK    2  A    between atoms: C_2  and  C_11
REMARK    3  A    between atoms: C_18  and  C_19
REMARK    4  A    between atoms: C_19  and  C_23
REMARK                            x       y       z     vdW  Elec       q    Type
REMARK                         _______ _______ _______ _____ _____    ______ ____
ROOT
ATOM      1  N   UNL     1      33.739 -15.550 -23.600  0.00  0.00    +0.387 N 
ATOM      2  C   UNL     1      35.482 -17.577 -22.388  0.00  0.00    +0.039 C 
ATOM      3  C   UNL     1      34.811 -16.465 -21.564  0.00  0.00    -0.017 C 
ATOM      4  C   UNL     1      34.666 -17.845 -23.664  0.00  0.00    -0.017 C 
ATOM      5  C   UNL     1      34.550 -15.222 -22.418  0.00  0.00    -0.077 C 
ATOM      6  C   UNL     1      34.410 -16.551 -24.441  0.00  0.00    -0.077 C 
ATOM      7  H   UNL     1      32.859 -15.950 -23.276  0.00  0.00    -0.080 HD
ENDROOT
BRANCH   2  11
ATOM      8  F   UNL     1      33.075 -22.926 -19.100  0.00  0.00    -0.204 F 
ATOM      9  O   UNL     1      36.868 -20.356 -20.563  0.00  0.00    -0.354 OA
ATOM     10  N   UNL     1      36.985 -19.186 -21.301  0.00  0.00    -0.081 NA
ATOM     11  C   UNL     1      35.733 -18.830 -21.581  0.00  0.00    +0.100 A 
ATOM     12  C   UNL     1      34.780 -19.717 -21.059  0.00  0.00    +0.054 A 
ATOM     13  C   UNL     1      35.552 -20.672 -20.420  0.00  0.00    +0.179 A 
ATOM     14  C   UNL     1      33.383 -19.846 -21.039  0.00  0.00    +0.007 C 
ATOM     15  C   UNL     1      35.036 -21.774 -19.744  0.00  0.00    +0.070 C 
ATOM     16  C   UNL     1      32.829 -20.945 -20.367  0.00  0.00    +0.030 C 
ATOM     17  C   UNL     1      33.642 -21.890 -19.732  0.00  0.00    +0.143 C 
ENDBRANCH   2  11
BRANCH   1  18
ATOM     18  C   UNL     1      33.451 -14.342 -24.373  0.00  0.00    -0.076 C 
BRANCH  18  19
ATOM     19  C   UNL     1      34.282 -13.181 -23.847  0.00  0.00    -0.007 C 
BRANCH  19  23
ATOM     20  O   UNL     1      34.545 -10.893 -25.409  0.00  0.00    -0.274 OA
ATOM     21  N   UNL     1      32.875  -9.691 -24.316  0.00  0.00    -0.237 N 
ATOM     22  N   UNL     1      31.754 -10.673 -22.478  0.00  0.00    -0.399 NA
ATOM     23  C   UNL     1      33.426 -11.969 -23.623  0.00  0.00    +0.123 C 
ATOM     24  C   UNL     1      33.148  -8.508 -25.138  0.00  0.00    +0.100 C 
ATOM     25  C   UNL     1      32.050  -7.460 -25.127  0.00  0.00    +0.022 C 
ATOM     26  C   UNL     1      31.962  -9.675 -23.276  0.00  0.00    +0.165 C 
ATOM     27  C   UNL     1      31.646  -7.179 -23.695  0.00  0.00    +0.011 C 
ATOM     28  C   UNL     1      31.090  -8.448 -23.082  0.00  0.00    +0.075 C 
ATOM     29  C   UNL     1      33.675 -10.814 -24.541  0.00  0.00    +0.237 C 
ATOM     30  C   UNL     1      32.491 -11.818 -22.664  0.00  0.00    +0.096 C 
ATOM     31  C   UNL     1      32.125 -12.914 -21.698  0.00  0.00    +0.062 C 
ENDBRANCH  19  23
ENDBRANCH  18  19
ENDBRANCH   1  18
TORSDOF 4
ENDMDL
MODEL 4
REMARK VINA RESULT:     -12.3      4.314     11.121
REMARK  Name = 5073
REMARK  4 active torsions:
REMARK  status: ('A' for Active; 'I' for Inactive)
REMARK    1  A    between atoms: N_1  and  C_18
REMARK    2  A    between atoms: C_2  and  C_11
REMARK    3  A    between atoms: C_18  and  C_19
REMARK    4  A    between atoms: C_19  and  C_23
REMARK                            x       y       z     vdW  Elec       q    Type
REMARK                         _______ _______ _______ _____ _____    ______ ____
ROOT
ATOM      1  N   UNL     1      33.536 -15.175 -23.878  0.00  0.00    +0.387 N 
ATOM      2  C   UNL     1      35.356 -17.144 -22.686  0.00  0.00    +0.039 C 
ATOM      3  C   UNL     1      34.653 -16.060 -21.853  0.00  0.00    -0.017 C 
ATOM      4  C   UNL     1      34.541 -17.435 -23.958  0.00  0.00    -0.017 C 
ATOM      5  C   UNL     1      34.343 -14.823 -22.700  0.00  0.00    -0.077 C 
ATOM      6  C   UNL     1      34.235 -16.148 -24.727  0.00  0.00    -0.077 C 
ATOM      7  H   UNL     1      32.673 -15.606 -23.549  0.00  0.00    -0.080 HD
ENDROOT
BRANCH   2  11
ATOM      8  F   UNL     1      33.158 -22.564 -19.369  0.00  0.00    -0.204 F 
ATOM      9  O   UNL     1      36.851 -19.886 -20.891  0.00  0.00    -0.354 OA
ATOM     10  N   UNL     1      36.923 -18.712 -21.629  0.00  0.00    -0.081 NA
ATOM     11  C   UNL     1      35.656 -18.392 -21.886  0.00  0.00    +0.100 A 
ATOM     12  C   UNL     1      34.738 -19.306 -21.350  0.00  0.00    +0.054 A 
ATOM     13  C   UNL     1      35.547 -20.240 -20.726  0.00  0.00    +0.179 A 
ATOM     14  C   UNL     1      33.346 -19.474 -21.307  0.00  0.00    +0.007 C 
ATOM     15  C   UNL     1      35.074 -21.357 -20.044  0.00  0.00    +0.070 C 
ATOM     16  C   UNL     1      32.834 -20.588 -20.627  0.00  0.00    +0.030 C 
ATOM     17  C   UNL     1      33.684 -21.511 -20.009  0.00  0.00    +0.143 C 
ENDBRANCH   2  11
BRANCH   1  18
ATOM     18  C   UNL     1      33.201 -13.974 -24.644  0.00  0.00    -0.076 C 
BRANCH  18  19
ATOM     19  C   UNL     1      34.285 -12.923 -24.459  0.00  0.00    -0.007 C 
BRANCH  19  23
ATOM     20  O   UNL     1      32.678 -11.715 -22.535  0.00  0.00    -0.274 OA
ATOM     21  N   UNL     1      32.369  -9.735 -23.722  0.00  0.00    -0.237 N 
ATOM     22  N   UNL     1      33.332  -9.509 -25.871  0.00  0.00    -0.399 NA
ATOM     23  C   UNL     1      33.729 -11.542 -24.648  0.00  0.00    +0.123 C 
ATOM     24  C   UNL     1      31.465  -9.221 -22.687  0.00  0.00    +0.100 C 
ATOM     25  C   UNL     1      31.224  -7.725 -22.741  0.00  0.00    +0.022 C 
ATOM     26  C   UNL     1      32.607  -9.051 -24.900  0.00  0.00    +0.165 C 
ATOM     27  C   UNL     1      30.878  -7.329 -24.161  0.00  0.00    +0.011 C 
ATOM     28  C   UNL     1      32.054  -7.646 -25.061  0.00  0.00    +0.075 C 
ATOM     29  C   UNL     1      32.884 -11.019 -23.529  0.00  0.00    +0.237 C 
ATOM     30  C   UNL     1      33.891 -10.756 -25.731  0.00  0.00    +0.096 C 
ATOM     31  C   UNL     1      34.740 -11.154 -26.910  0.00  0.00    +0.062 C 
ENDBRANCH  19  23
ENDBRANCH  18  19
ENDBRANCH   1  18
TORSDOF 4
ENDMDL
MODEL 5
REMARK VINA RESULT:     -12.2      3.495     10.468
REMARK  Name = 5073
REMARK  4 active torsions:
REMARK  status: ('A' for Active; 'I' for Inactive)
REMARK    1  A    between atoms: N_1  and  C_18
REMARK    2  A    between atoms: C_2  and  C_11
REMARK    3  A    between atoms: C_18  and  C_19
REMARK    4  A    between atoms: C_19  and  C_23
REMARK                            x       y       z     vdW  Elec       q    Type
REMARK                         _______ _______ _______ _____ _____    ______ ____
ROOT
ATOM      1  N   UNL     1      35.177 -17.241 -24.066  0.00  0.00    +0.387 N 
ATOM      2  C   UNL     1      34.664 -19.032 -21.798  0.00  0.00    +0.039 C 
ATOM      3  C   UNL     1      34.577 -19.503 -23.259  0.00  0.00    -0.017 C 
ATOM      4  C   UNL     1      35.605 -17.820 -21.697  0.00  0.00    -0.017 C 
ATOM      5  C   UNL     1      34.217 -18.347 -24.195  0.00  0.00    -0.077 C 
ATOM      6  C   UNL     1      35.208 -16.725 -22.691  0.00  0.00    -0.077 C 
ATOM      7  H   UNL     1      36.104 -17.603 -24.288  0.00  0.00    -0.080 HD
ENDROOT
BRANCH   2  11
ATOM      8  F   UNL     1      32.804 -23.845 -17.488  0.00  0.00    -0.204 F 
ATOM      9  O   UNL     1      36.329 -21.486 -19.753  0.00  0.00    -0.354 OA
ATOM     10  N   UNL     1      36.328 -20.440 -20.667  0.00  0.00    -0.081 NA
ATOM     11  C   UNL     1      35.042 -20.145 -20.848  0.00  0.00    +0.100 A 
ATOM     12  C   UNL     1      34.181 -20.953 -20.091  0.00  0.00    +0.054 A 
ATOM     13  C   UNL     1      35.048 -21.791 -19.411  0.00  0.00    +0.179 A 
ATOM     14  C   UNL     1      32.800 -21.092 -19.888  0.00  0.00    +0.007 C 
ATOM     15  C   UNL     1      34.644 -22.783 -18.522  0.00  0.00    +0.070 C 
ATOM     16  C   UNL     1      32.357 -22.082 -18.998  0.00  0.00    +0.030 C 
ATOM     17  C   UNL     1      33.264 -22.910 -18.330  0.00  0.00    +0.143 C 
ENDBRANCH   2  11
BRANCH   1  18
ATOM     18  C   UNL     1      34.852 -16.170 -25.007  0.00  0.00    -0.076 C 
BRANCH  18  19
ATOM     19  C   UNL     1      33.454 -15.639 -24.725  0.00  0.00    -0.007 C 
BRANCH  19  23
ATOM     20  O   UNL     1      33.678 -13.876 -26.866  0.00  0.00    -0.274 OA
ATOM     21  N   UNL     1      33.624 -11.945 -25.564  0.00  0.00    -0.237 N 
ATOM     22  N   UNL     1      33.492 -12.137 -23.209  0.00  0.00    -0.399 NA
ATOM     23  C   UNL     1      33.478 -14.152 -24.524  0.00  0.00    +0.123 C 
ATOM     24  C   UNL     1      33.829 -11.105 -26.749  0.00  0.00    +0.100 C 
ATOM     25  C   UNL     1      33.491  -9.639 -26.554  0.00  0.00    +0.022 C 
ATOM     26  C   UNL     1      33.588 -11.421 -24.284  0.00  0.00    +0.165 C 
ATOM     27  C   UNL     1      34.149  -9.143 -25.283  0.00  0.00    +0.011 C 
ATOM     28  C   UNL     1      33.589  -9.914 -24.106  0.00  0.00    +0.075 C 
ATOM     29  C   UNL     1      33.598 -13.327 -25.767  0.00  0.00    +0.237 C 
ATOM     30  C   UNL     1      33.434 -13.504 -23.343  0.00  0.00    +0.096 C 
ATOM     31  C   UNL     1      33.284 -14.216 -22.025  0.00  0.00    +0.062 C 
ENDBRANCH  19  23
ENDBRANCH  18  19
ENDBRANCH   1  18
TORSDOF 4
ENDMDL
MODEL 6
REMARK VINA RESULT:     -11.9      3.347     10.089
REMARK  Name = 5073
REMARK  4 active torsions:
REMARK  status: ('A' for Active; 'I' for Inactive)
REMARK    1  A    between atoms: N_1  and  C_18
REMARK    2  A    between atoms: C_2  and  C_11
REMARK    3  A    between atoms: C_18  and  C_19
REMARK    4  A    between atoms: C_19  and  C_23
REMARK                            x       y       z     vdW  Elec       q    Type
REMARK                         _______ _______ _______ _____ _____    ______ ____
ROOT
ATOM      1  N   UNL     1      34.114 -19.699 -21.424  0.00  0.00    +0.387 N 
ATOM      2  C   UNL     1      34.201 -21.975 -19.574  0.00  0.00    +0.039 C 
ATOM      3  C   UNL     1      35.460 -21.188 -19.975  0.00  0.00    -0.017 C 
ATOM      4  C   UNL     1      32.958 -21.084 -19.729  0.00  0.00    -0.017 C 
ATOM      5  C   UNL     1      35.304 -20.560 -21.362  0.00  0.00    -0.077 C 
ATOM      6  C   UNL     1      32.893 -20.460 -21.125  0.00  0.00    -0.077 C 
ATOM      7  H   UNL     1      34.215 -18.973 -20.714  0.00  0.00    -0.080 HD
ENDROOT
BRANCH   2  11
ATOM      8  F   UNL     1      31.218 -24.523 -14.114  0.00  0.00    -0.204 F 
ATOM      9  O   UNL     1      35.271 -23.358 -16.424  0.00  0.00    -0.354 OA
ATOM     10  N   UNL     1      35.517 -22.792 -17.668  0.00  0.00    -0.081 NA
ATOM     11  C   UNL     1      34.312 -22.590 -18.198  0.00  0.00    +0.100 A 
ATOM     12  C   UNL     1      33.267 -23.000 -17.357  0.00  0.00    +0.054 A 
ATOM     13  C   UNL     1      33.928 -23.482 -16.240  0.00  0.00    +0.179 A 
ATOM     14  C   UNL     1      31.865 -23.031 -17.384  0.00  0.00    +0.007 C 
ATOM     15  C   UNL     1      33.294 -24.007 -15.118  0.00  0.00    +0.070 C 
ATOM     16  C   UNL     1      31.192 -23.553 -16.270  0.00  0.00    +0.030 C 
ATOM     17  C   UNL     1      31.895 -24.031 -15.160  0.00  0.00    +0.143 C 
ENDBRANCH   2  11
BRANCH   1  18
ATOM     18  C   UNL     1      34.012 -19.062 -22.737  0.00  0.00    -0.076 C 
BRANCH  18  19
ATOM     19  C   UNL     1      35.206 -18.144 -22.961  0.00  0.00    -0.007 C 
BRANCH  19  23
ATOM     20  O   UNL     1      34.711 -17.034 -25.464  0.00  0.00    -0.274 OA
ATOM     21  N   UNL     1      34.123 -14.930 -24.656  0.00  0.00    -0.237 N 
ATOM     22  N   UNL     1      34.213 -14.515 -22.328  0.00  0.00    -0.399 NA
ATOM     23  C   UNL     1      34.762 -16.719 -23.119  0.00  0.00    +0.123 C 
ATOM     24  C   UNL     1      33.969 -14.416 -26.021  0.00  0.00    +0.100 C 
ATOM     25  C   UNL     1      33.191 -13.118 -26.127  0.00  0.00    +0.022 C 
ATOM     26  C   UNL     1      34.003 -14.117 -23.543  0.00  0.00    +0.165 C 
ATOM     27  C   UNL     1      33.735 -12.129 -25.117  0.00  0.00    +0.011 C 
ATOM     28  C   UNL     1      33.530 -12.686 -23.723  0.00  0.00    +0.075 C 
ATOM     29  C   UNL     1      34.530 -16.259 -24.524  0.00  0.00    +0.237 C 
ATOM     30  C   UNL     1      34.588 -15.822 -22.129  0.00  0.00    +0.096 C 
ATOM     31  C   UNL     1      34.761 -16.166 -20.673  0.00  0.00    +0.062 C 
ENDBRANCH  19  23
ENDBRANCH  18  19
ENDBRANCH   1  18
TORSDOF 4
ENDMDL
MODEL 7
REMARK VINA RESULT:     -11.7      3.381     10.172
REMARK  Name = 5073
REMARK  4 active torsions:
REMARK  status: ('A' for Active; 'I' for Inactive)
REMARK    1  A    between atoms: N_1  and  C_18
REMARK    2  A    between atoms: C_2  and  C_11
REMARK    3  A    between atoms: C_18  and  C_19
REMARK    4  A    between atoms: C_19  and  C_23
REMARK                            x       y       z     vdW  Elec       q    Type
REMARK                         _______ _______ _______ _____ _____    ______ ____
ROOT
ATOM      1  N   UNL     1      35.455 -18.695 -21.516  0.00  0.00    +0.387 N 
ATOM      2  C   UNL     1      35.212 -21.299 -20.185  0.00  0.00    +0.039 C 
ATOM      3  C   UNL     1      36.428 -20.379 -19.984  0.00  0.00    -0.017 C 
ATOM      4  C   UNL     1      33.988 -20.463 -20.594  0.00  0.00    -0.017 C 
ATOM      5  C   UNL     1      36.655 -19.485 -21.206  0.00  0.00    -0.077 C 
ATOM      6  C   UNL     1      34.304 -19.566 -21.793  0.00  0.00    -0.077 C 
ATOM      7  H   UNL     1      35.232 -18.129 -20.698  0.00  0.00    -0.080 HD
ENDROOT
BRANCH   2  11
ATOM      8  F   UNL     1      37.007 -23.479 -14.082  0.00  0.00    -0.204 F 
ATOM      9  O   UNL     1      33.914 -23.628 -17.762  0.00  0.00    -0.354 OA
ATOM     10  N   UNL     1      33.867 -22.964 -18.981  0.00  0.00    -0.081 NA
ATOM     11  C   UNL     1      34.943 -22.180 -18.986  0.00  0.00    +0.100 A 
ATOM     12  C   UNL     1      35.710 -22.291 -17.817  0.00  0.00    +0.054 A 
ATOM     13  C   UNL     1      35.013 -23.224 -17.068  0.00  0.00    +0.179 A 
ATOM     14  C   UNL     1      36.886 -21.736 -17.290  0.00  0.00    +0.007 C 
ATOM     15  C   UNL     1      35.400 -23.664 -15.806  0.00  0.00    +0.070 C 
ATOM     16  C   UNL     1      37.305 -22.157 -16.020  0.00  0.00    +0.030 C 
ATOM     17  C   UNL     1      36.574 -23.102 -15.293  0.00  0.00    +0.143 C 
ENDBRANCH   2  11
BRANCH   1  18
ATOM     18  C   UNL     1      35.708 -17.805 -22.650  0.00  0.00    -0.076 C 
BRANCH  18  19
ATOM     19  C   UNL     1      34.395 -17.460 -23.339  0.00  0.00    -0.007 C 
BRANCH  19  23
ATOM     20  O   UNL     1      34.009 -16.293 -25.836  0.00  0.00    -0.274 OA
ATOM     21  N   UNL     1      33.918 -14.106 -25.041  0.00  0.00    -0.237 N 
ATOM     22  N   UNL     1      34.218 -13.698 -22.730  0.00  0.00    -0.399 NA
ATOM     23  C   UNL     1      34.252 -15.975 -23.503  0.00  0.00    +0.123 C 
ATOM     24  C   UNL     1      33.802 -13.583 -26.407  0.00  0.00    +0.100 C 
ATOM     25  C   UNL     1      33.307 -12.152 -26.499  0.00  0.00    +0.022 C 
ATOM     26  C   UNL     1      34.031 -13.276 -23.940  0.00  0.00    +0.165 C 
ATOM     27  C   UNL     1      34.099 -11.290 -25.538  0.00  0.00    +0.011 C 
ATOM     28  C   UNL     1      33.859 -11.779 -24.125  0.00  0.00    +0.075 C 
ATOM     29  C   UNL     1      34.045 -15.490 -24.904  0.00  0.00    +0.237 C 
ATOM     30  C   UNL     1      34.323 -15.053 -22.524  0.00  0.00    +0.096 C 
ATOM     31  C   UNL     1      34.498 -15.413 -21.072  0.00  0.00    +0.062 C 
ENDBRANCH  19  23
ENDBRANCH  18  19
ENDBRANCH   1  18
TORSDOF 4
ENDMDL
MODEL 8
REMARK VINA RESULT:     -11.6      3.670     10.240
REMARK  Name = 5073
REMARK  4 active torsions:
REMARK  status: ('A' for Active; 'I' for Inactive)
REMARK    1  A    between atoms: N_1  and  C_18
REMARK    2  A    between atoms: C_2  and  C_11
REMARK    3  A    between atoms: C_18  and  C_19
REMARK    4  A    between atoms: C_19  and  C_23
REMARK                            x       y       z     vdW  Elec       q    Type
REMARK                         _______ _______ _______ _____ _____    ______ ____
ROOT
ATOM      1  N   UNL     1      34.129 -20.693 -20.314  0.00  0.00    +0.387 N 
ATOM      2  C   UNL     1      34.100 -22.810 -18.282  0.00  0.00    +0.039 C 
ATOM      3  C   UNL     1      35.351 -21.964 -18.576  0.00  0.00    -0.017 C 
ATOM      4  C   UNL     1      32.837 -22.028 -18.678  0.00  0.00    -0.017 C 
ATOM      5  C   UNL     1      35.351 -21.456 -20.020  0.00  0.00    -0.077 C 
ATOM      6  C   UNL     1      32.929 -21.518 -20.118  0.00  0.00    -0.077 C 
ATOM      7  H   UNL     1      34.083 -19.910 -19.662  0.00  0.00    -0.080 HD
ENDROOT
BRANCH   2  11
ATOM      8  F   UNL     1      37.305 -24.255 -12.550  0.00  0.00    -0.204 F 
ATOM      9  O   UNL     1      33.191 -24.078 -15.035  0.00  0.00    -0.354 OA
ATOM     10  N   UNL     1      32.890 -23.680 -16.331  0.00  0.00    -0.081 NA
ATOM     11  C   UNL     1      34.056 -23.309 -16.856  0.00  0.00    +0.100 A 
ATOM     12  C   UNL     1      35.128 -23.441 -15.962  0.00  0.00    +0.054 A 
ATOM     13  C   UNL     1      34.527 -23.934 -14.816  0.00  0.00    +0.179 A 
ATOM     14  C   UNL     1      36.512 -23.214 -15.960  0.00  0.00    +0.007 C 
ATOM     15  C   UNL     1      35.206 -24.227 -13.637  0.00  0.00    +0.070 C 
ATOM     16  C   UNL     1      37.229 -23.499 -14.789  0.00  0.00    +0.030 C 
ATOM     17  C   UNL     1      36.586 -23.995 -13.650  0.00  0.00    +0.143 C 
ENDBRANCH   2  11
BRANCH   1  18
ATOM     18  C   UNL     1      34.171 -20.166 -21.678  0.00  0.00    -0.076 C 
BRANCH  18  19
ATOM     19  C   UNL     1      35.254 -19.103 -21.788  0.00  0.00    -0.007 C 
BRANCH  19  23
ATOM     20  O   UNL     1      34.926 -16.434 -21.069  0.00  0.00    -0.274 OA
ATOM     21  N   UNL     1      34.377 -15.699 -23.210  0.00  0.00    -0.237 N 
ATOM     22  N   UNL     1      34.239 -17.268 -24.976  0.00  0.00    -0.399 NA
ATOM     23  C   UNL     1      34.874 -18.055 -22.794  0.00  0.00    +0.123 C 
ATOM     24  C   UNL     1      34.147 -14.337 -22.716  0.00  0.00    +0.100 C 
ATOM     25  C   UNL     1      34.122 -13.267 -23.790  0.00  0.00    +0.022 C 
ATOM     26  C   UNL     1      34.128 -16.060 -24.523  0.00  0.00    +0.165 C 
ATOM     27  C   UNL     1      33.210 -13.713 -24.914  0.00  0.00    +0.011 C 
ATOM     28  C   UNL     1      33.768 -14.981 -25.527  0.00  0.00    +0.075 C 
ATOM     29  C   UNL     1      34.737 -16.661 -22.264  0.00  0.00    +0.237 C 
ATOM     30  C   UNL     1      34.618 -18.257 -24.101  0.00  0.00    +0.096 C 
ATOM     31  C   UNL     1      34.749 -19.605 -24.761  0.00  0.00    +0.062 C 
ENDBRANCH  19  23
ENDBRANCH  18  19
ENDBRANCH   1  18
TORSDOF 4
ENDMDL
MODEL 9
REMARK VINA RESULT:     -11.5      1.701      2.454
REMARK  Name = 5073
REMARK  4 active torsions:
REMARK  status: ('A' for Active; 'I' for Inactive)
REMARK    1  A    between atoms: N_1  and  C_18
REMARK    2  A    between atoms: C_2  and  C_11
REMARK    3  A    between atoms: C_18  and  C_19
REMARK    4  A    between atoms: C_19  and  C_23
REMARK                            x       y       z     vdW  Elec       q    Type
REMARK                         _______ _______ _______ _____ _____    ______ ____
ROOT
ATOM      1  N   UNL     1      34.428 -22.161 -20.073  0.00  0.00    +0.387 N 
ATOM      2  C   UNL     1      34.756 -19.448 -21.140  0.00  0.00    +0.039 C 
ATOM      3  C   UNL     1      35.893 -20.483 -21.152  0.00  0.00    -0.017 C 
ATOM      4  C   UNL     1      33.397 -20.166 -21.115  0.00  0.00    -0.017 C 
ATOM      5  C   UNL     1      35.736 -21.493 -20.013  0.00  0.00    -0.077 C 
ATOM      6  C   UNL     1      33.331 -21.188 -19.977  0.00  0.00    -0.077 C 
ATOM      7  H   UNL     1      34.355 -22.630 -20.976  0.00  0.00    -0.080 HD
ENDROOT
BRANCH   2  11
ATOM      8  F   UNL     1      34.454 -13.082 -23.285  0.00  0.00    -0.204 F 
ATOM      9  O   UNL     1      35.187 -17.730 -24.277  0.00  0.00    -0.354 OA
ATOM     10  N   UNL     1      35.163 -18.876 -23.494  0.00  0.00    -0.081 NA
ATOM     11  C   UNL     1      34.866 -18.447 -22.268  0.00  0.00    +0.100 A 
ATOM     12  C   UNL     1      34.692 -17.058 -22.200  0.00  0.00    +0.054 A 
ATOM     13  C   UNL     1      34.907 -16.646 -23.504  0.00  0.00    +0.179 A 
ATOM     14  C   UNL     1      34.386 -16.097 -21.224  0.00  0.00    +0.007 C 
ATOM     15  C   UNL     1      34.841 -15.322 -23.930  0.00  0.00    +0.070 C 
ATOM     16  C   UNL     1      34.310 -14.753 -21.618  0.00  0.00    +0.030 C 
ATOM     17  C   UNL     1      34.535 -14.376 -22.946  0.00  0.00    +0.143 C 
ENDBRANCH   2  11
BRANCH   1  18
ATOM     18  C   UNL     1      34.317 -23.163 -19.013  0.00  0.00    -0.076 C 
BRANCH  18  19
ATOM     19  C   UNL     1      34.405 -22.488 -17.652  0.00  0.00    -0.007 C 
BRANCH  19  23
ATOM     20  O   UNL     1      31.625 -22.604 -17.625  0.00  0.00    -0.274 OA
ATOM     21  N   UNL     1      31.483 -23.982 -15.752  0.00  0.00    -0.237 N 
ATOM     22  N   UNL     1      33.467 -24.644 -14.646  0.00  0.00    -0.399 NA
ATOM     23  C   UNL     1      33.657 -23.275 -16.615  0.00  0.00    +0.123 C 
ATOM     24  C   UNL     1      30.018 -23.911 -15.774  0.00  0.00    +0.100 C 
ATOM     25  C   UNL     1      29.318 -24.982 -14.958  0.00  0.00    +0.022 C 
ATOM     26  C   UNL     1      32.176 -24.630 -14.745  0.00  0.00    +0.165 C 
ATOM     27  C   UNL     1      29.945 -25.046 -13.582  0.00  0.00    +0.011 C 
ATOM     28  C   UNL     1      31.401 -25.440 -13.721  0.00  0.00    +0.075 C 
ATOM     29  C   UNL     1      32.165 -23.250 -16.727  0.00  0.00    +0.237 C 
ATOM     30  C   UNL     1      34.198 -23.965 -15.592  0.00  0.00    +0.096 C 
ATOM     31  C   UNL     1      35.685 -24.093 -15.386  0.00  0.00    +0.062 C 
ENDBRANCH  19  23
ENDBRANCH  18  19
ENDBRANCH   1  18
TORSDOF 4
ENDMDL
