MODEL 1
REMARK VINA RESULT:     -13.0      0.000      0.000
REMARK  Name = 6105620
REMARK  4 active torsions:
REMARK  status: ('A' for Active; 'I' for Inactive)
REMARK    1  A    between atoms: N_2  and  C_7
REMARK    2  A    between atoms: N_3  and  C_21
REMARK    3  A    between atoms: C_9  and  C_29
REMARK    4  A    between atoms: C_30  and  C_31
REMARK                            x       y       z     vdW  Elec       q    Type
REMARK                         _______ _______ _______ _____ _____    ______ ____
ROOT
ATOM      1  N   UNL     1      33.534 -22.809 -17.766  0.00  0.00    -0.086 NA
ATOM      2  N   UNL     1      34.914 -22.560 -17.361  0.00  0.00    -0.132 N 
ATOM      3  N   UNL     1      33.413 -22.267 -19.077  0.00  0.00    -0.240 N 
ATOM      4  N   UNL     1      35.539 -21.819 -18.355  0.00  0.00    -0.146 NA
ATOM      5  C   UNL     1      34.635 -21.678 -19.312  0.00  0.00    +0.162 C 
ATOM      6  H   UNL     1      32.633 -22.305 -19.678  0.00  0.00    +0.170 HD
ENDROOT
BRANCH   2  11
ATOM      7  O   UNL     1      36.444 -27.238 -16.010  0.00  0.00    -0.220 OA
ATOM      8  O   UNL     1      38.513 -24.185 -12.346  0.00  0.00    -0.220 OA
ATOM      9  N   UNL     1      37.684 -26.994 -14.112  0.00  0.00    -0.062 NA
ATOM     10  N   UNL     1      38.181 -26.261 -13.232  0.00  0.00    -0.062 NA
ATOM     11  C   UNL     1      35.686 -23.127 -16.326  0.00  0.00    +0.089 C 
ATOM     12  C   UNL     1      35.907 -24.515 -16.271  0.00  0.00    +0.030 C 
ATOM     13  C   UNL     1      36.253 -22.316 -15.326  0.00  0.00    +0.019 C 
ATOM     14  C   UNL     1      36.674 -25.067 -15.241  0.00  0.00    +0.097 C 
ATOM     15  C   UNL     1      37.223 -24.256 -14.267  0.00  0.00    +0.096 C 
ATOM     16  C   UNL     1      37.018 -22.874 -14.301  0.00  0.00    +0.014 C 
ATOM     17  C   UNL     1      36.926 -26.509 -15.148  0.00  0.00    +0.174 C 
ATOM     18  C   UNL     1      38.018 -24.898 -13.215  0.00  0.00    +0.174 C 
ENDBRANCH   2  11
BRANCH   1  21
ATOM     19  S   UNL     1      32.828 -24.119 -15.541  0.00  0.00    -0.074 S 
ATOM     20  N   UNL     1      31.241 -23.177 -17.402  0.00  0.00    -0.310 N 
ATOM     21  C   UNL     1      32.530 -23.280 -17.060  0.00  0.00    +0.222 C 
ATOM     22  C   UNL     1      30.414 -23.752 -16.491  0.00  0.00    +0.052 C 
ATOM     23  C   UNL     1      31.069 -24.325 -15.395  0.00  0.00    +0.041 C 
ATOM     24  C   UNL     1      29.031 -23.795 -16.587  0.00  0.00    +0.015 C 
ATOM     25  C   UNL     1      30.364 -24.949 -14.380  0.00  0.00    +0.007 C 
ATOM     26  C   UNL     1      28.309 -24.422 -15.569  0.00  0.00    +0.001 C 
ATOM     27  C   UNL     1      28.972 -24.995 -14.473  0.00  0.00    +0.001 C 
ATOM     28  H   UNL     1      30.926 -22.734 -18.224  0.00  0.00    +0.149 HD
ENDBRANCH   1  21
BRANCH   5  29
ATOM     29  C   UNL     1      34.948 -20.927 -20.537  0.00  0.00    +0.037 C 
ATOM     30  C   UNL     1      34.226 -19.888 -20.922  0.00  0.00    +0.003 C 
BRANCH  30  31
ATOM     31  C   UNL     1      34.494 -19.112 -22.145  0.00  0.00    +0.000 C 
ATOM     32  C   UNL     1      35.221 -17.934 -22.056  0.00  0.00    +0.000 C 
ATOM     33  C   UNL     1      34.015 -19.572 -23.360  0.00  0.00    +0.000 C 
ATOM     34  C   UNL     1      35.475 -17.199 -23.214  0.00  0.00    +0.000 C 
ATOM     35  C   UNL     1      34.270 -18.837 -24.519  0.00  0.00    +0.000 C 
ATOM     36  C   UNL     1      34.999 -17.651 -24.445  0.00  0.00    +0.000 C 
ENDBRANCH  30  31
ENDBRANCH   5  29
TORSDOF 4
ENDMDL
MODEL 2
REMARK VINA RESULT:     -12.8      2.367      5.433
REMARK  Name = 6105620
REMARK  4 active torsions:
REMARK  status: ('A' for Active; 'I' for Inactive)
REMARK    1  A    between atoms: N_2  and  C_7
REMARK    2  A    between atoms: N_3  and  C_21
REMARK    3  A    between atoms: C_9  and  C_29
REMARK    4  A    between atoms: C_30  and  C_31
REMARK                            x       y       z     vdW  Elec       q    Type
REMARK                         _______ _______ _______ _____ _____    ______ ____
ROOT
ATOM      1  N   UNL     1      35.456 -22.658 -17.523  0.00  0.00    -0.086 NA
ATOM      2  N   UNL     1      34.042 -22.703 -17.885  0.00  0.00    -0.132 N 
ATOM      3  N   UNL     1      36.080 -21.840 -18.508  0.00  0.00    -0.240 N 
ATOM      4  N   UNL     1      33.871 -22.022 -19.083  0.00  0.00    -0.146 NA
ATOM      5  C   UNL     1      35.068 -21.550 -19.396  0.00  0.00    +0.162 C 
ATOM      6  H   UNL     1      37.020 -21.549 -18.546  0.00  0.00    +0.170 HD
ENDROOT
BRANCH   2  11
ATOM      7  O   UNL     1      33.160 -24.833 -13.331  0.00  0.00    -0.220 OA
ATOM      8  O   UNL     1      28.391 -24.081 -15.257  0.00  0.00    -0.220 OA
ATOM      9  N   UNL     1      30.896 -25.003 -13.120  0.00  0.00    -0.062 NA
ATOM     10  N   UNL     1      29.751 -24.823 -13.583  0.00  0.00    -0.062 NA
ATOM     11  C   UNL     1      32.912 -23.084 -17.133  0.00  0.00    +0.089 C 
ATOM     12  C   UNL     1      33.056 -23.668 -15.861  0.00  0.00    +0.030 C 
ATOM     13  C   UNL     1      31.614 -22.889 -17.638  0.00  0.00    +0.019 C 
ATOM     14  C   UNL     1      31.930 -24.042 -15.124  0.00  0.00    +0.097 C 
ATOM     15  C   UNL     1      30.662 -23.843 -15.636  0.00  0.00    +0.096 C 
ATOM     16  C   UNL     1      30.492 -23.264 -16.897  0.00  0.00    +0.014 C 
ATOM     17  C   UNL     1      32.039 -24.653 -13.796  0.00  0.00    +0.174 C 
ATOM     18  C   UNL     1      29.521 -24.257 -14.812  0.00  0.00    +0.174 C 
ENDBRANCH   2  11
BRANCH   1  21
ATOM     19  S   UNL     1      37.681 -22.787 -16.042  0.00  0.00    -0.074 S 
ATOM     20  N   UNL     1      35.652 -24.445 -16.009  0.00  0.00    -0.310 N 
ATOM     21  C   UNL     1      36.102 -23.332 -16.598  0.00  0.00    +0.222 C 
ATOM     22  C   UNL     1      36.522 -24.935 -15.089  0.00  0.00    +0.052 C 
ATOM     23  C   UNL     1      37.695 -24.184 -14.945  0.00  0.00    +0.041 C 
ATOM     24  C   UNL     1      36.318 -26.076 -14.327  0.00  0.00    +0.015 C 
ATOM     25  C   UNL     1      38.681 -24.553 -14.045  0.00  0.00    +0.007 C 
ATOM     26  C   UNL     1      37.305 -26.457 -13.416  0.00  0.00    +0.001 C 
ATOM     27  C   UNL     1      38.479 -25.702 -13.276  0.00  0.00    +0.001 C 
ATOM     28  H   UNL     1      34.786 -24.865 -16.220  0.00  0.00    +0.149 HD
ENDBRANCH   1  21
BRANCH   5  29
ATOM     29  C   UNL     1      35.271 -20.772 -20.627  0.00  0.00    +0.037 C 
ATOM     30  C   UNL     1      34.455 -19.790 -20.974  0.00  0.00    +0.003 C 
BRANCH  30  31
ATOM     31  C   UNL     1      34.612 -18.990 -22.201  0.00  0.00    +0.000 C 
ATOM     32  C   UNL     1      35.220 -17.746 -22.127  0.00  0.00    +0.000 C 
ATOM     33  C   UNL     1      34.148 -19.495 -23.404  0.00  0.00    +0.000 C 
ATOM     34  C   UNL     1      35.369 -16.989 -23.289  0.00  0.00    +0.000 C 
ATOM     35  C   UNL     1      34.297 -18.737 -24.566  0.00  0.00    +0.000 C 
ATOM     36  C   UNL     1      34.907 -17.484 -24.508  0.00  0.00    +0.000 C 
ENDBRANCH  30  31
ENDBRANCH   5  29
TORSDOF 4
ENDMDL
MODEL 3
REMARK VINA RESULT:     -12.5      2.437      6.040
REMARK  Name = 6105620
REMARK  4 active torsions:
REMARK  status: ('A' for Active; 'I' for Inactive)
REMARK    1  A    between atoms: N_2  and  C_7
REMARK    2  A    between atoms: N_3  and  C_21
REMARK    3  A    between atoms: C_9  and  C_29
REMARK    4  A    between atoms: C_30  and  C_31
REMARK                            x       y       z     vdW  Elec       q    Type
REMARK                         _______ _______ _______ _____ _____    ______ ____
ROOT
ATOM      1  N   UNL     1      35.610 -22.741 -16.988  0.00  0.00    -0.086 NA
ATOM      2  N   UNL     1      34.230 -22.978 -17.400  0.00  0.00    -0.132 N 
ATOM      3  N   UNL     1      36.177 -21.913 -17.999  0.00  0.00    -0.240 N 
ATOM      4  N   UNL     1      34.033 -22.394 -18.645  0.00  0.00    -0.146 NA
ATOM      5  C   UNL     1      35.179 -21.801 -18.941  0.00  0.00    +0.162 C 
ATOM      6  H   UNL     1      37.077 -21.513 -18.020  0.00  0.00    +0.170 HD
ENDROOT
BRANCH   2  11
ATOM      7  O   UNL     1      29.165 -22.364 -17.541  0.00  0.00    -0.220 OA
ATOM      8  O   UNL     1      29.877 -25.611 -13.545  0.00  0.00    -0.220 OA
ATOM      9  N   UNL     1      28.310 -23.622 -15.841  0.00  0.00    -0.062 NA
ATOM     10  N   UNL     1      28.481 -24.401 -14.882  0.00  0.00    -0.062 NA
ATOM     11  C   UNL     1      33.119 -23.448 -16.669  0.00  0.00    +0.089 C 
ATOM     12  C   UNL     1      31.814 -23.049 -17.007  0.00  0.00    +0.030 C 
ATOM     13  C   UNL     1      33.293 -24.326 -15.584  0.00  0.00    +0.019 C 
ATOM     14  C   UNL     1      30.720 -23.521 -16.276  0.00  0.00    +0.097 C 
ATOM     15  C   UNL     1      30.909 -24.383 -15.214  0.00  0.00    +0.096 C 
ATOM     16  C   UNL     1      32.197 -24.794 -14.858  0.00  0.00    +0.014 C 
ATOM     17  C   UNL     1      29.344 -23.129 -16.598  0.00  0.00    +0.174 C 
ATOM     18  C   UNL     1      29.719 -24.842 -14.489  0.00  0.00    +0.174 C 
ENDBRANCH   2  11
BRANCH   1  21
ATOM     19  S   UNL     1      35.840 -22.937 -14.329  0.00  0.00    -0.074 S 
ATOM     20  N   UNL     1      37.337 -24.092 -16.144  0.00  0.00    -0.310 N 
ATOM     21  C   UNL     1      36.289 -23.276 -15.998  0.00  0.00    +0.222 C 
ATOM     22  C   UNL     1      37.849 -24.499 -14.953  0.00  0.00    +0.052 C 
ATOM     23  C   UNL     1      37.184 -23.989 -13.833  0.00  0.00    +0.041 C 
ATOM     24  C   UNL     1      38.936 -25.348 -14.802  0.00  0.00    +0.015 C 
ATOM     25  C   UNL     1      37.586 -24.311 -12.547  0.00  0.00    +0.007 C 
ATOM     26  C   UNL     1      39.350 -25.680 -13.510  0.00  0.00    +0.001 C 
ATOM     27  C   UNL     1      38.680 -25.164 -12.391  0.00  0.00    +0.001 C 
ATOM     28  H   UNL     1      37.699 -24.369 -17.017  0.00  0.00    +0.149 HD
ENDBRANCH   1  21
BRANCH   5  29
ATOM     29  C   UNL     1      35.344 -21.078 -20.211  0.00  0.00    +0.037 C 
ATOM     30  C   UNL     1      34.529 -20.100 -20.568  0.00  0.00    +0.003 C 
BRANCH  30  31
ATOM     31  C   UNL     1      34.648 -19.354 -21.833  0.00  0.00    +0.000 C 
ATOM     32  C   UNL     1      33.861 -19.721 -22.914  0.00  0.00    +0.000 C 
ATOM     33  C   UNL     1      35.544 -18.301 -21.919  0.00  0.00    +0.000 C 
ATOM     34  C   UNL     1      33.974 -19.014 -24.112  0.00  0.00    +0.000 C 
ATOM     35  C   UNL     1      35.657 -17.595 -23.116  0.00  0.00    +0.000 C 
ATOM     36  C   UNL     1      34.872 -17.951 -24.213  0.00  0.00    +0.000 C 
ENDBRANCH  30  31
ENDBRANCH   5  29
TORSDOF 4
ENDMDL
MODEL 4
REMARK VINA RESULT:     -12.3      1.293      1.722
REMARK  Name = 6105620
REMARK  4 active torsions:
REMARK  status: ('A' for Active; 'I' for Inactive)
REMARK    1  A    between atoms: N_2  and  C_7
REMARK    2  A    between atoms: N_3  and  C_21
REMARK    3  A    between atoms: C_9  and  C_29
REMARK    4  A    between atoms: C_30  and  C_31
REMARK                            x       y       z     vdW  Elec       q    Type
REMARK                         _______ _______ _______ _____ _____    ______ ____
ROOT
ATOM      1  N   UNL     1      33.514 -22.718 -17.891  0.00  0.00    -0.086 NA
ATOM      2  N   UNL     1      34.858 -22.393 -17.425  0.00  0.00    -0.132 N 
ATOM      3  N   UNL     1      33.428 -22.198 -19.214  0.00  0.00    -0.240 N 
ATOM      4  N   UNL     1      35.491 -21.630 -18.397  0.00  0.00    -0.146 NA
ATOM      5  C   UNL     1      34.628 -21.547 -19.398  0.00  0.00    +0.162 C 
ATOM      6  H   UNL     1      32.682 -22.283 -19.851  0.00  0.00    +0.170 HD
ENDROOT
BRANCH   2  11
ATOM      7  O   UNL     1      33.900 -24.039 -12.689  0.00  0.00    -0.220 OA
ATOM      8  O   UNL     1      39.046 -24.613 -13.150  0.00  0.00    -0.220 OA
ATOM      9  N   UNL     1      35.905 -24.660 -11.798  0.00  0.00    -0.062 NA
ATOM     10  N   UNL     1      37.141 -24.797 -11.909  0.00  0.00    -0.062 NA
ATOM     11  C   UNL     1      35.607 -22.907 -16.347  0.00  0.00    +0.089 C 
ATOM     12  C   UNL     1      34.980 -23.270 -15.142  0.00  0.00    +0.030 C 
ATOM     13  C   UNL     1      37.001 -23.069 -16.453  0.00  0.00    +0.019 C 
ATOM     14  C   UNL     1      35.732 -23.780 -14.079  0.00  0.00    +0.097 C 
ATOM     15  C   UNL     1      37.099 -23.931 -14.201  0.00  0.00    +0.096 C 
ATOM     16  C   UNL     1      37.746 -23.578 -15.389  0.00  0.00    +0.014 C 
ATOM     17  C   UNL     1      35.114 -24.169 -12.807  0.00  0.00    +0.174 C 
ATOM     18  C   UNL     1      37.830 -24.472 -13.050  0.00  0.00    +0.174 C 
ENDBRANCH   2  11
BRANCH   1  21
ATOM     19  S   UNL     1      32.741 -24.646 -16.203  0.00  0.00    -0.074 S 
ATOM     20  N   UNL     1      31.250 -22.767 -17.260  0.00  0.00    -0.310 N 
ATOM     21  C   UNL     1      32.503 -23.234 -17.228  0.00  0.00    +0.222 C 
ATOM     22  C   UNL     1      30.406 -23.490 -16.480  0.00  0.00    +0.052 C 
ATOM     23  C   UNL     1      31.009 -24.561 -15.812  0.00  0.00    +0.041 C 
ATOM     24  C   UNL     1      29.051 -23.234 -16.322  0.00  0.00    +0.015 C 
ATOM     25  C   UNL     1      30.281 -25.394 -14.978  0.00  0.00    +0.007 C 
ATOM     26  C   UNL     1      28.307 -24.067 -15.483  0.00  0.00    +0.001 C 
ATOM     27  C   UNL     1      28.918 -25.139 -14.817  0.00  0.00    +0.001 C 
ATOM     28  H   UNL     1      30.971 -21.985 -17.789  0.00  0.00    +0.149 HD
ENDBRANCH   1  21
BRANCH   5  29
ATOM     29  C   UNL     1      34.960 -20.794 -20.617  0.00  0.00    +0.037 C 
ATOM     30  C   UNL     1      34.193 -19.812 -21.060  0.00  0.00    +0.003 C 
BRANCH  30  31
ATOM     31  C   UNL     1      34.479 -19.036 -22.280  0.00  0.00    +0.000 C 
ATOM     32  C   UNL     1      33.995 -19.485 -23.499  0.00  0.00    +0.000 C 
ATOM     33  C   UNL     1      35.226 -17.874 -22.185  0.00  0.00    +0.000 C 
ATOM     34  C   UNL     1      34.265 -18.750 -24.653  0.00  0.00    +0.000 C 
ATOM     35  C   UNL     1      35.497 -17.139 -23.340  0.00  0.00    +0.000 C 
ATOM     36  C   UNL     1      35.016 -17.577 -24.574  0.00  0.00    +0.000 C 
ENDBRANCH  30  31
ENDBRANCH   5  29
TORSDOF 4
ENDMDL
MODEL 5
REMARK VINA RESULT:     -11.0      1.279      1.600
REMARK  Name = 6105620
REMARK  4 active torsions:
REMARK  status: ('A' for Active; 'I' for Inactive)
REMARK    1  A    between atoms: N_2  and  C_7
REMARK    2  A    between atoms: N_3  and  C_21
REMARK    3  A    between atoms: C_9  and  C_29
REMARK    4  A    between atoms: C_30  and  C_31
REMARK                            x       y       z     vdW  Elec       q    Type
REMARK                         _______ _______ _______ _____ _____    ______ ____
ROOT
ATOM      1  N   UNL     1      33.346 -23.118 -17.430  0.00  0.00    -0.086 NA
ATOM      2  N   UNL     1      34.690 -23.007 -16.872  0.00  0.00    -0.132 N 
ATOM      3  N   UNL     1      33.410 -22.503 -18.713  0.00  0.00    -0.240 N 
ATOM      4  N   UNL     1      35.475 -22.272 -17.750  0.00  0.00    -0.146 NA
ATOM      5  C   UNL     1      34.693 -22.008 -18.786  0.00  0.00    +0.162 C 
ATOM      6  H   UNL     1      32.699 -22.445 -19.392  0.00  0.00    +0.170 HD
ENDROOT
BRANCH   2  11
ATOM      7  O   UNL     1      39.371 -24.686 -15.720  0.00  0.00    -0.220 OA
ATOM      8  O   UNL     1      36.536 -26.082 -11.592  0.00  0.00    -0.220 OA
ATOM      9  N   UNL     1      39.219 -25.681 -13.673  0.00  0.00    -0.062 NA
ATOM     10  N   UNL     1      38.539 -26.016 -12.683  0.00  0.00    -0.062 NA
ATOM     11  C   UNL     1      35.299 -23.689 -15.798  0.00  0.00    +0.089 C 
ATOM     12  C   UNL     1      36.671 -23.997 -15.827  0.00  0.00    +0.030 C 
ATOM     13  C   UNL     1      34.548 -24.075 -14.673  0.00  0.00    +0.019 C 
ATOM     14  C   UNL     1      37.266 -24.673 -14.758  0.00  0.00    +0.097 C 
ATOM     15  C   UNL     1      36.513 -25.045 -13.661  0.00  0.00    +0.096 C 
ATOM     16  C   UNL     1      35.147 -24.749 -13.608  0.00  0.00    +0.014 C 
ATOM     17  C   UNL     1      38.692 -25.013 -14.751  0.00  0.00    +0.174 C 
ATOM     18  C   UNL     1      37.197 -25.750 -12.572  0.00  0.00    +0.174 C 
ENDBRANCH   2  11
BRANCH   1  21
ATOM     19  S   UNL     1      32.246 -24.991 -15.866  0.00  0.00    -0.074 S 
ATOM     20  N   UNL     1      31.048 -22.938 -16.970  0.00  0.00    -0.310 N 
ATOM     21  C   UNL     1      32.238 -23.538 -16.861  0.00  0.00    +0.222 C 
ATOM     22  C   UNL     1      30.074 -23.584 -16.279  0.00  0.00    +0.052 C 
ATOM     23  C   UNL     1      30.508 -24.730 -15.602  0.00  0.00    +0.041 C 
ATOM     24  C   UNL     1      28.746 -23.188 -16.214  0.00  0.00    +0.015 C 
ATOM     25  C   UNL     1      29.634 -25.498 -14.852  0.00  0.00    +0.007 C 
ATOM     26  C   UNL     1      27.856 -23.955 -15.460  0.00  0.00    +0.001 C 
ATOM     27  C   UNL     1      28.296 -25.102 -14.784  0.00  0.00    +0.001 C 
ATOM     28  H   UNL     1      30.895 -22.118 -17.494  0.00  0.00    +0.149 HD
ENDBRANCH   1  21
BRANCH   5  29
ATOM     29  C   UNL     1      35.194 -21.226 -19.926  0.00  0.00    +0.037 C 
ATOM     30  C   UNL     1      34.418 -20.385 -20.589  0.00  0.00    +0.003 C 
BRANCH  30  31
ATOM     31  C   UNL     1      34.871 -19.588 -21.742  0.00  0.00    +0.000 C 
ATOM     32  C   UNL     1      34.060 -19.493 -22.863  0.00  0.00    +0.000 C 
ATOM     33  C   UNL     1      36.099 -18.950 -21.686  0.00  0.00    +0.000 C 
ATOM     34  C   UNL     1      34.489 -18.737 -23.954  0.00  0.00    +0.000 C 
ATOM     35  C   UNL     1      36.528 -18.195 -22.778  0.00  0.00    +0.000 C 
ATOM     36  C   UNL     1      35.723 -18.088 -23.912  0.00  0.00    +0.000 C 
ENDBRANCH  30  31
ENDBRANCH   5  29
TORSDOF 4
ENDMDL
