MODEL 1
REMARK VINA RESULT:     -11.2      0.000      0.000
REMARK  Name = 4413
REMARK  6 active torsions:
REMARK  status: ('A' for Active; 'I' for Inactive)
REMARK    1  A    between atoms: O_1  and  C_9
REMARK    2  A    between atoms: O_1  and  C_19
REMARK    3  A    between atoms: C_6  and  C_14
REMARK    4  A    between atoms: C_19  and  C_20
REMARK    5  A    between atoms: C_23  and  N_26
REMARK    6  A    between atoms: N_26  and  C_29
REMARK                            x       y       z     vdW  Elec       q    Type
REMARK                         _______ _______ _______ _____ _____    ______ ____
ROOT
ATOM      1  O   UNL     1      33.842 -23.723 -18.186  0.00  0.00    -0.421 OA
ENDROOT
BRANCH   1   9
ATOM      2  C   UNL     1      33.930 -20.326 -20.604  0.00  0.00    +0.000 C 
ATOM      3  C   UNL     1      35.141 -20.931 -20.188  0.00  0.00    +0.003 C 
ATOM      4  C   UNL     1      33.977 -19.183 -21.418  0.00  0.00    +0.003 C 
ATOM      5  C   UNL     1      35.093 -22.074 -19.374  0.00  0.00    +0.038 C 
ATOM      6  C   UNL     1      35.200 -18.644 -21.817  0.00  0.00    +0.031 C 
ATOM      7  C   UNL     1      36.362 -20.375 -20.599  0.00  0.00    +0.000 C 
ATOM      8  C   UNL     1      32.708 -20.883 -20.192  0.00  0.00    +0.003 C 
ATOM      9  C   UNL     1      33.870 -22.614 -18.974  0.00  0.00    +0.149 C 
ATOM     10  C   UNL     1      36.391 -19.238 -21.408  0.00  0.00    +0.003 C 
ATOM     11  C   UNL     1      32.680 -22.019 -19.383  0.00  0.00    +0.038 C 
BRANCH   6  14
ATOM     12  N   UNL     1      34.916 -16.200 -22.153  0.00  0.00    -0.343 N 
ATOM     13  N   UNL     1      35.563 -17.568 -23.934  0.00  0.00    -0.285 NA
ATOM     14  C   UNL     1      35.232 -17.459 -22.660  0.00  0.00    +0.117 C 
ATOM     15  H   UNL     1      34.945 -15.411 -22.742  0.00  0.00    +0.144 HD
ATOM     16  H   UNL     1      34.665 -16.099 -21.207  0.00  0.00    +0.144 HD
ATOM     17  H   UNL     1      35.586 -16.766 -24.507  0.00  0.00    +0.188 HD
ENDBRANCH   6  14
ENDBRANCH   1   9
BRANCH   1  19
ATOM     18  O   UNL     1      32.693 -23.063 -16.270  0.00  0.00    -0.244 OA
ATOM     19  C   UNL     1      33.709 -23.457 -16.822  0.00  0.00    +0.346 C 
BRANCH  19  20
ATOM     20  C   UNL     1      34.977 -23.725 -16.096  0.00  0.00    +0.076 C 
ATOM     21  C   UNL     1      35.957 -22.754 -16.084  0.00  0.00    +0.008 C 
ATOM     22  C   UNL     1      35.133 -24.936 -15.453  0.00  0.00    +0.008 C 
ATOM     23  C   UNL     1      37.329 -24.220 -14.741  0.00  0.00    +0.084 C 
ATOM     24  C   UNL     1      37.146 -23.005 -15.399  0.00  0.00    +0.019 C 
ATOM     25  C   UNL     1      36.323 -25.187 -14.768  0.00  0.00    +0.019 C 
BRANCH  23  26
ATOM     26  N   UNL     1      38.521 -24.473 -14.056  0.00  0.00    -0.214 NA
BRANCH  26  29
ATOM     27  N   UNL     1      39.822 -25.197 -15.856  0.00  0.00    -0.370 N 
ATOM     28  N   UNL     1      39.919 -26.433 -13.941  0.00  0.00    -0.370 N 
ATOM     29  C   UNL     1      39.373 -25.333 -14.564  0.00  0.00    +0.193 C 
ATOM     30  H   UNL     1      39.506 -24.448 -16.412  0.00  0.00    +0.159 HD
ATOM     31  H   UNL     1      40.462 -25.849 -16.226  0.00  0.00    +0.159 HD
ATOM     32  H   UNL     1      39.678 -26.642 -13.010  0.00  0.00    +0.159 HD
ATOM     33  H   UNL     1      40.553 -27.010 -14.426  0.00  0.00    +0.159 HD
ENDBRANCH  26  29
ENDBRANCH  23  26
ENDBRANCH  19  20
ENDBRANCH   1  19
TORSDOF 6
ENDMDL
MODEL 2
REMARK VINA RESULT:     -11.1      2.243      8.530
REMARK  Name = 4413
REMARK  6 active torsions:
REMARK  status: ('A' for Active; 'I' for Inactive)
REMARK    1  A    between atoms: O_1  and  C_9
REMARK    2  A    between atoms: O_1  and  C_19
REMARK    3  A    between atoms: C_6  and  C_14
REMARK    4  A    between atoms: C_19  and  C_20
REMARK    5  A    between atoms: C_23  and  N_26
REMARK    6  A    between atoms: N_26  and  C_29
REMARK                            x       y       z     vdW  Elec       q    Type
REMARK                         _______ _______ _______ _____ _____    ______ ____
ROOT
ATOM      1  O   UNL     1      32.391 -22.853 -18.297  0.00  0.00    -0.421 OA
ENDROOT
BRANCH   1   9
ATOM      2  C   UNL     1      33.547 -23.803 -14.405  0.00  0.00    +0.000 C 
ATOM      3  C   UNL     1      34.515 -23.381 -15.348  0.00  0.00    +0.003 C 
ATOM      4  C   UNL     1      33.953 -24.119 -13.098  0.00  0.00    +0.003 C 
ATOM      5  C   UNL     1      34.108 -23.065 -16.654  0.00  0.00    +0.038 C 
ATOM      6  C   UNL     1      35.294 -24.019 -12.726  0.00  0.00    +0.031 C 
ATOM      7  C   UNL     1      35.859 -23.286 -14.956  0.00  0.00    +0.000 C 
ATOM      8  C   UNL     1      32.202 -23.898 -14.797  0.00  0.00    +0.003 C 
ATOM      9  C   UNL     1      32.767 -23.164 -17.027  0.00  0.00    +0.149 C 
ATOM     10  C   UNL     1      36.246 -23.604 -13.653  0.00  0.00    +0.003 C 
ATOM     11  C   UNL     1      31.817 -23.580 -16.100  0.00  0.00    +0.038 C 
BRANCH   6  14
ATOM     12  N   UNL     1      36.662 -23.601 -10.696  0.00  0.00    -0.343 N 
ATOM     13  N   UNL     1      35.150 -25.383 -10.752  0.00  0.00    -0.285 NA
ATOM     14  C   UNL     1      35.698 -24.351 -11.369  0.00  0.00    +0.117 C 
ATOM     15  H   UNL     1      36.919 -23.843  -9.777  0.00  0.00    +0.144 HD
ATOM     16  H   UNL     1      37.083 -22.830 -11.139  0.00  0.00    +0.144 HD
ATOM     17  H   UNL     1      35.423 -25.609  -9.833  0.00  0.00    +0.188 HD
ENDBRANCH   6  14
ENDBRANCH   1   9
BRANCH   1  19
ATOM     18  O   UNL     1      33.656 -24.298 -19.616  0.00  0.00    -0.244 OA
ATOM     19  C   UNL     1      33.338 -23.169 -19.272  0.00  0.00    +0.346 C 
BRANCH  19  20
ATOM     20  C   UNL     1      33.926 -21.943 -19.870  0.00  0.00    +0.076 C 
ATOM     21  C   UNL     1      35.297 -21.794 -19.875  0.00  0.00    +0.008 C 
ATOM     22  C   UNL     1      33.080 -20.991 -20.404  0.00  0.00    +0.008 C 
ATOM     23  C   UNL     1      35.016 -19.666 -20.985  0.00  0.00    +0.084 C 
ATOM     24  C   UNL     1      35.848 -20.643 -20.438  0.00  0.00    +0.019 C 
ATOM     25  C   UNL     1      33.632 -19.840 -20.967  0.00  0.00    +0.019 C 
BRANCH  23  26
ATOM     26  N   UNL     1      35.568 -18.512 -21.548  0.00  0.00    -0.214 NA
BRANCH  26  29
ATOM     27  N   UNL     1      35.560 -17.043 -23.364  0.00  0.00    -0.370 N 
ATOM     28  N   UNL     1      35.138 -19.241 -23.805  0.00  0.00    -0.370 N 
ATOM     29  C   UNL     1      35.426 -18.306 -22.836  0.00  0.00    +0.193 C 
ATOM     30  H   UNL     1      35.766 -16.282 -22.775  0.00  0.00    +0.159 HD
ATOM     31  H   UNL     1      35.451 -16.900 -24.332  0.00  0.00    +0.159 HD
ATOM     32  H   UNL     1      35.017 -20.186 -23.556  0.00  0.00    +0.159 HD
ATOM     33  H   UNL     1      35.054 -18.966 -24.747  0.00  0.00    +0.159 HD
ENDBRANCH  26  29
ENDBRANCH  23  26
ENDBRANCH  19  20
ENDBRANCH   1  19
TORSDOF 6
ENDMDL
MODEL 3
REMARK VINA RESULT:     -11.0      4.237     10.744
REMARK  Name = 4413
REMARK  6 active torsions:
REMARK  status: ('A' for Active; 'I' for Inactive)
REMARK    1  A    between atoms: O_1  and  C_9
REMARK    2  A    between atoms: O_1  and  C_19
REMARK    3  A    between atoms: C_6  and  C_14
REMARK    4  A    between atoms: C_19  and  C_20
REMARK    5  A    between atoms: C_23  and  N_26
REMARK    6  A    between atoms: N_26  and  C_29
REMARK                            x       y       z     vdW  Elec       q    Type
REMARK                         _______ _______ _______ _____ _____    ______ ____
ROOT
ATOM      1  O   UNL     1      35.885 -17.772 -23.216  0.00  0.00    -0.421 OA
ENDROOT
BRANCH   1   9
ATOM      2  C   UNL     1      35.291 -20.671 -20.279  0.00  0.00    +0.000 C 
ATOM      3  C   UNL     1      34.181 -20.121 -20.965  0.00  0.00    +0.003 C 
ATOM      4  C   UNL     1      35.074 -21.647 -19.292  0.00  0.00    +0.003 C 
ATOM      5  C   UNL     1      34.400 -19.146 -21.951  0.00  0.00    +0.038 C 
ATOM      6  C   UNL     1      33.782 -22.074 -18.987  0.00  0.00    +0.031 C 
ATOM      7  C   UNL     1      32.888 -20.563 -20.645  0.00  0.00    +0.000 C 
ATOM      8  C   UNL     1      36.585 -20.228 -20.599  0.00  0.00    +0.003 C 
ATOM      9  C   UNL     1      35.692 -18.717 -22.257  0.00  0.00    +0.149 C 
ATOM     10  C   UNL     1      32.690 -21.534 -19.662  0.00  0.00    +0.003 C 
ATOM     11  C   UNL     1      36.782 -19.258 -21.582  0.00  0.00    +0.038 C 
BRANCH   6  14
ATOM     12  N   UNL     1      32.313 -23.636 -17.733  0.00  0.00    -0.343 N 
ATOM     13  N   UNL     1      34.591 -23.496 -17.227  0.00  0.00    -0.285 NA
ATOM     14  C   UNL     1      33.573 -23.085 -17.963  0.00  0.00    +0.117 C 
ATOM     15  H   UNL     1      32.196 -24.319 -17.034  0.00  0.00    +0.144 HD
ATOM     16  H   UNL     1      31.542 -23.341 -18.269  0.00  0.00    +0.144 HD
ATOM     17  H   UNL     1      34.452 -24.181 -16.533  0.00  0.00    +0.188 HD
ENDBRANCH   6  14
ENDBRANCH   1   9
BRANCH   1  19
ATOM     18  O   UNL     1      34.179 -18.419 -24.664  0.00  0.00    -0.244 OA
ATOM     19  C   UNL     1      34.781 -17.556 -24.043  0.00  0.00    +0.346 C 
BRANCH  19  20
ATOM     20  C   UNL     1      34.403 -16.121 -24.074  0.00  0.00    +0.076 C 
ATOM     21  C   UNL     1      34.628 -15.347 -22.954  0.00  0.00    +0.008 C 
ATOM     22  C   UNL     1      33.841 -15.604 -25.224  0.00  0.00    +0.008 C 
ATOM     23  C   UNL     1      33.706 -13.451 -24.134  0.00  0.00    +0.084 C 
ATOM     24  C   UNL     1      34.276 -13.998 -22.985  0.00  0.00    +0.019 C 
ATOM     25  C   UNL     1      33.488 -14.255 -25.254  0.00  0.00    +0.019 C 
BRANCH  23  26
ATOM     26  N   UNL     1      33.351 -12.100 -24.165  0.00  0.00    -0.214 NA
BRANCH  26  29
ATOM     27  N   UNL     1      35.059 -10.592 -24.681  0.00  0.00    -0.370 N 
ATOM     28  N   UNL     1      33.567 -11.078 -26.338  0.00  0.00    -0.370 N 
ATOM     29  C   UNL     1      33.940 -11.310 -25.032  0.00  0.00    +0.193 C 
ATOM     30  H   UNL     1      35.429 -10.669 -23.772  0.00  0.00    +0.159 HD
ATOM     31  H   UNL     1      35.493 -10.002 -25.340  0.00  0.00    +0.159 HD
ATOM     32  H   UNL     1      32.779 -11.532 -26.712  0.00  0.00    +0.159 HD
ATOM     33  H   UNL     1      34.091 -10.458 -26.897  0.00  0.00    +0.159 HD
ENDBRANCH  26  29
ENDBRANCH  23  26
ENDBRANCH  19  20
ENDBRANCH   1  19
TORSDOF 6
ENDMDL
MODEL 4
REMARK VINA RESULT:     -10.9      2.975      9.943
REMARK  Name = 4413
REMARK  6 active torsions:
REMARK  status: ('A' for Active; 'I' for Inactive)
REMARK    1  A    between atoms: O_1  and  C_9
REMARK    2  A    between atoms: O_1  and  C_19
REMARK    3  A    between atoms: C_6  and  C_14
REMARK    4  A    between atoms: C_19  and  C_20
REMARK    5  A    between atoms: C_23  and  N_26
REMARK    6  A    between atoms: N_26  and  C_29
REMARK                            x       y       z     vdW  Elec       q    Type
REMARK                         _______ _______ _______ _____ _____    ______ ____
ROOT
ATOM      1  O   UNL     1      35.000 -20.289 -21.654  0.00  0.00    -0.421 OA
ENDROOT
BRANCH   1   9
ATOM      2  C   UNL     1      35.146 -22.342 -18.028  0.00  0.00    +0.000 C 
ATOM      3  C   UNL     1      33.912 -22.189 -18.705  0.00  0.00    +0.003 C 
ATOM      4  C   UNL     1      35.178 -23.036 -16.807  0.00  0.00    +0.003 C 
ATOM      5  C   UNL     1      33.881 -21.494 -19.925  0.00  0.00    +0.038 C 
ATOM      6  C   UNL     1      34.011 -23.572 -16.263  0.00  0.00    +0.031 C 
ATOM      7  C   UNL     1      32.748 -22.735 -18.143  0.00  0.00    +0.000 C 
ATOM      8  C   UNL     1      36.311 -21.795 -18.590  0.00  0.00    +0.003 C 
ATOM      9  C   UNL     1      35.048 -20.957 -20.470  0.00  0.00    +0.149 C 
ATOM     10  C   UNL     1      32.798 -23.422 -16.929  0.00  0.00    +0.003 C 
ATOM     11  C   UNL     1      36.261 -21.108 -19.804  0.00  0.00    +0.038 C 
BRANCH   6  14
ATOM     12  N   UNL     1      33.380 -23.824 -13.874  0.00  0.00    -0.343 N 
ATOM     13  N   UNL     1      34.765 -25.402 -14.900  0.00  0.00    -0.285 NA
ATOM     14  C   UNL     1      34.061 -24.289 -14.998  0.00  0.00    +0.117 C 
ATOM     15  H   UNL     1      33.427 -24.325 -13.029  0.00  0.00    +0.144 HD
ATOM     16  H   UNL     1      32.852 -22.995 -13.927  0.00  0.00    +0.144 HD
ATOM     17  H   UNL     1      34.800 -25.889 -14.044  0.00  0.00    +0.188 HD
ENDBRANCH   6  14
ENDBRANCH   1   9
BRANCH   1  19
ATOM     18  O   UNL     1      36.503 -18.701 -20.850  0.00  0.00    -0.244 OA
ATOM     19  C   UNL     1      35.638 -19.047 -21.640  0.00  0.00    +0.346 C 
BRANCH  19  20
ATOM     20  C   UNL     1      35.139 -18.173 -22.732  0.00  0.00    +0.076 C 
ATOM     21  C   UNL     1      34.479 -18.748 -23.798  0.00  0.00    +0.008 C 
ATOM     22  C   UNL     1      35.349 -16.812 -22.645  0.00  0.00    +0.008 C 
ATOM     23  C   UNL     1      34.207 -16.548 -24.758  0.00  0.00    +0.084 C 
ATOM     24  C   UNL     1      34.008 -17.926 -24.822  0.00  0.00    +0.019 C 
ATOM     25  C   UNL     1      34.878 -15.990 -23.670  0.00  0.00    +0.019 C 
BRANCH  23  26
ATOM     26  N   UNL     1      33.737 -15.724 -25.785  0.00  0.00    -0.214 NA
BRANCH  26  29
ATOM     27  N   UNL     1      33.589 -13.459 -26.339  0.00  0.00    -0.370 N 
ATOM     28  N   UNL     1      32.643 -14.110 -24.367  0.00  0.00    -0.370 N 
ATOM     29  C   UNL     1      33.334 -14.511 -25.489  0.00  0.00    +0.193 C 
ATOM     30  H   UNL     1      34.077 -13.612 -27.180  0.00  0.00    +0.159 HD
ATOM     31  H   UNL     1      33.281 -12.553 -26.106  0.00  0.00    +0.159 HD
ATOM     32  H   UNL     1      32.399 -14.770 -23.679  0.00  0.00    +0.159 HD
ATOM     33  H   UNL     1      32.392 -13.164 -24.253  0.00  0.00    +0.159 HD
ENDBRANCH  26  29
ENDBRANCH  23  26
ENDBRANCH  19  20
ENDBRANCH   1  19
TORSDOF 6
ENDMDL
MODEL 5
REMARK VINA RESULT:     -10.7      1.722      1.968
REMARK  Name = 4413
REMARK  6 active torsions:
REMARK  status: ('A' for Active; 'I' for Inactive)
REMARK    1  A    between atoms: O_1  and  C_9
REMARK    2  A    between atoms: O_1  and  C_19
REMARK    3  A    between atoms: C_6  and  C_14
REMARK    4  A    between atoms: C_19  and  C_20
REMARK    5  A    between atoms: C_23  and  N_26
REMARK    6  A    between atoms: N_26  and  C_29
REMARK                            x       y       z     vdW  Elec       q    Type
REMARK                         _______ _______ _______ _____ _____    ______ ____
ROOT
ATOM      1  O   UNL     1      34.282 -23.255 -18.232  0.00  0.00    -0.421 OA
ENDROOT
BRANCH   1   9
ATOM      2  C   UNL     1      34.014 -20.188 -21.044  0.00  0.00    +0.000 C 
ATOM      3  C   UNL     1      35.280 -20.590 -20.553  0.00  0.00    +0.003 C 
ATOM      4  C   UNL     1      33.941 -19.153 -21.990  0.00  0.00    +0.003 C 
ATOM      5  C   UNL     1      35.352 -21.624 -19.607  0.00  0.00    +0.038 C 
ATOM      6  C   UNL     1      35.099 -18.524 -22.448  0.00  0.00    +0.031 C 
ATOM      7  C   UNL     1      36.435 -19.946 -21.025  0.00  0.00    +0.000 C 
ATOM      8  C   UNL     1      32.858 -20.832 -20.571  0.00  0.00    +0.003 C 
ATOM      9  C   UNL     1      34.193 -22.254 -19.148  0.00  0.00    +0.149 C 
ATOM     10  C   UNL     1      36.344 -18.920 -21.966  0.00  0.00    +0.003 C 
ATOM     11  C   UNL     1      32.950 -21.858 -19.631  0.00  0.00    +0.038 C 
BRANCH   6  14
ATOM     12  N   UNL     1      34.246 -17.596 -24.587  0.00  0.00    -0.343 N 
ATOM     13  N   UNL     1      35.657 -16.321 -23.228  0.00  0.00    -0.285 NA
ATOM     14  C   UNL     1      35.007 -17.454 -23.428  0.00  0.00    +0.117 C 
ATOM     15  H   UNL     1      34.197 -16.858 -25.237  0.00  0.00    +0.144 HD
ATOM     16  H   UNL     1      33.756 -18.434 -24.755  0.00  0.00    +0.144 HD
ATOM     17  H   UNL     1      35.596 -15.595 -23.891  0.00  0.00    +0.188 HD
ENDBRANCH   6  14
ENDBRANCH   1   9
BRANCH   1  19
ATOM     18  O   UNL     1      32.137 -22.980 -17.365  0.00  0.00    -0.244 OA
ATOM     19  C   UNL     1      33.331 -23.188 -17.211  0.00  0.00    +0.346 C 
BRANCH  19  20
ATOM     20  C   UNL     1      33.952 -23.413 -15.881  0.00  0.00    +0.076 C 
ATOM     21  C   UNL     1      35.247 -22.987 -15.668  0.00  0.00    +0.008 C 
ATOM     22  C   UNL     1      33.213 -24.039 -14.899  0.00  0.00    +0.008 C 
ATOM     23  C   UNL     1      35.103 -23.827 -13.408  0.00  0.00    +0.084 C 
ATOM     24  C   UNL     1      35.828 -23.197 -14.418  0.00  0.00    +0.019 C 
ATOM     25  C   UNL     1      33.795 -24.249 -13.648  0.00  0.00    +0.019 C 
BRANCH  23  26
ATOM     26  N   UNL     1      35.686 -24.039 -12.155  0.00  0.00    -0.214 NA
BRANCH  26  29
ATOM     27  N   UNL     1      36.901 -26.021 -12.389  0.00  0.00    -0.370 N 
ATOM     28  N   UNL     1      38.056 -24.166 -11.732  0.00  0.00    -0.370 N 
ATOM     29  C   UNL     1      36.829 -24.681 -12.089  0.00  0.00    +0.193 C 
ATOM     30  H   UNL     1      36.090 -26.509 -12.659  0.00  0.00    +0.159 HD
ATOM     31  H   UNL     1      37.764 -26.492 -12.335  0.00  0.00    +0.159 HD
ATOM     32  H   UNL     1      38.139 -23.215 -11.494  0.00  0.00    +0.159 HD
ATOM     33  H   UNL     1      38.850 -24.749 -11.719  0.00  0.00    +0.159 HD
ENDBRANCH  26  29
ENDBRANCH  23  26
ENDBRANCH  19  20
ENDBRANCH   1  19
TORSDOF 6
ENDMDL
MODEL 6
REMARK VINA RESULT:     -10.7      5.493      9.424
REMARK  Name = 4413
REMARK  6 active torsions:
REMARK  status: ('A' for Active; 'I' for Inactive)
REMARK    1  A    between atoms: O_1  and  C_9
REMARK    2  A    between atoms: O_1  and  C_19
REMARK    3  A    between atoms: C_6  and  C_14
REMARK    4  A    between atoms: C_19  and  C_20
REMARK    5  A    between atoms: C_23  and  N_26
REMARK    6  A    between atoms: N_26  and  C_29
REMARK                            x       y       z     vdW  Elec       q    Type
REMARK                         _______ _______ _______ _____ _____    ______ ____
ROOT
ATOM      1  O   UNL     1      32.255 -23.582 -13.552  0.00  0.00    -0.421 OA
ENDROOT
BRANCH   1   9
ATOM      2  C   UNL     1      36.075 -24.645 -14.840  0.00  0.00    +0.000 C 
ATOM      3  C   UNL     1      35.683 -24.899 -13.503  0.00  0.00    +0.003 C 
ATOM      4  C   UNL     1      37.366 -25.009 -15.257  0.00  0.00    +0.003 C 
ATOM      5  C   UNL     1      34.392 -24.534 -13.087  0.00  0.00    +0.038 C 
ATOM      6  C   UNL     1      38.256 -25.616 -14.371  0.00  0.00    +0.031 C 
ATOM      7  C   UNL     1      36.591 -25.510 -12.625  0.00  0.00    +0.000 C 
ATOM      8  C   UNL     1      35.166 -24.033 -15.718  0.00  0.00    +0.003 C 
ATOM      9  C   UNL     1      33.501 -23.927 -13.973  0.00  0.00    +0.149 C 
ATOM     10  C   UNL     1      37.870 -25.866 -13.057  0.00  0.00    +0.003 C 
ATOM     11  C   UNL     1      33.889 -23.678 -15.286  0.00  0.00    +0.038 C 
BRANCH   6  14
ATOM     12  N   UNL     1      40.512 -26.563 -13.947  0.00  0.00    -0.343 N 
ATOM     13  N   UNL     1      39.943 -25.776 -16.074  0.00  0.00    -0.285 NA
ATOM     14  C   UNL     1      39.589 -25.987 -14.818  0.00  0.00    +0.117 C 
ATOM     15  H   UNL     1      41.409 -26.807 -14.272  0.00  0.00    +0.144 HD
ATOM     16  H   UNL     1      40.267 -26.726 -13.008  0.00  0.00    +0.144 HD
ATOM     17  H   UNL     1      40.846 -26.027 -16.378  0.00  0.00    +0.188 HD
ENDBRANCH   6  14
ENDBRANCH   1   9
BRANCH   1  19
ATOM     18  O   UNL     1      31.290 -25.664 -13.152  0.00  0.00    -0.244 OA
ATOM     19  C   UNL     1      31.294 -24.581 -13.718  0.00  0.00    +0.346 C 
BRANCH  19  20
ATOM     20  C   UNL     1      30.241 -24.162 -14.678  0.00  0.00    +0.076 C 
ATOM     21  C   UNL     1      29.332 -25.100 -15.123  0.00  0.00    +0.008 C 
ATOM     22  C   UNL     1      30.203 -22.847 -15.093  0.00  0.00    +0.008 C 
ATOM     23  C   UNL     1      28.281 -23.382 -16.457  0.00  0.00    +0.084 C 
ATOM     24  C   UNL     1      28.342 -24.705 -16.022  0.00  0.00    +0.019 C 
ATOM     25  C   UNL     1      29.212 -22.452 -15.993  0.00  0.00    +0.019 C 
BRANCH  23  26
ATOM     26  N   UNL     1      27.290 -22.987 -17.360  0.00  0.00    -0.214 NA
BRANCH  26  29
ATOM     27  N   UNL     1      25.732 -21.305 -17.810  0.00  0.00    -0.370 N 
ATOM     28  N   UNL     1      25.822 -22.092 -15.670  0.00  0.00    -0.370 N 
ATOM     29  C   UNL     1      26.338 -22.186 -16.944  0.00  0.00    +0.193 C 
ATOM     30  H   UNL     1      26.011 -21.272 -18.754  0.00  0.00    +0.159 HD
ATOM     31  H   UNL     1      25.018 -20.709 -17.487  0.00  0.00    +0.159 HD
ATOM     32  H   UNL     1      26.171 -22.671 -14.955  0.00  0.00    +0.159 HD
ATOM     33  H   UNL     1      25.102 -21.448 -15.476  0.00  0.00    +0.159 HD
ENDBRANCH  26  29
ENDBRANCH  23  26
ENDBRANCH  19  20
ENDBRANCH   1  19
TORSDOF 6
ENDMDL
MODEL 7
REMARK VINA RESULT:     -10.5      4.176      6.572
REMARK  Name = 4413
REMARK  6 active torsions:
REMARK  status: ('A' for Active; 'I' for Inactive)
REMARK    1  A    between atoms: O_1  and  C_9
REMARK    2  A    between atoms: O_1  and  C_19
REMARK    3  A    between atoms: C_6  and  C_14
REMARK    4  A    between atoms: C_19  and  C_20
REMARK    5  A    between atoms: C_23  and  N_26
REMARK    6  A    between atoms: N_26  and  C_29
REMARK                            x       y       z     vdW  Elec       q    Type
REMARK                         _______ _______ _______ _____ _____    ______ ____
ROOT
ATOM      1  O   UNL     1      34.985 -19.005 -22.541  0.00  0.00    -0.421 OA
ENDROOT
BRANCH   1   9
ATOM      2  C   UNL     1      34.340 -14.919 -23.059  0.00  0.00    +0.000 C 
ATOM      3  C   UNL     1      34.233 -15.797 -24.164  0.00  0.00    +0.003 C 
ATOM      4  C   UNL     1      34.119 -13.545 -23.250  0.00  0.00    +0.003 C 
ATOM      5  C   UNL     1      34.454 -17.171 -23.972  0.00  0.00    +0.038 C 
ATOM      6  C   UNL     1      33.798 -13.045 -24.512  0.00  0.00    +0.031 C 
ATOM      7  C   UNL     1      33.908 -15.277 -25.426  0.00  0.00    +0.000 C 
ATOM      8  C   UNL     1      34.665 -15.440 -21.796  0.00  0.00    +0.003 C 
ATOM      9  C   UNL     1      34.776 -17.672 -22.710  0.00  0.00    +0.149 C 
ATOM     10  C   UNL     1      33.692 -13.909 -25.598  0.00  0.00    +0.003 C 
ATOM     11  C   UNL     1      34.881 -16.807 -21.624  0.00  0.00    +0.038 C 
BRANCH   6  14
ATOM     12  N   UNL     1      33.896 -10.981 -25.890  0.00  0.00    -0.343 N 
ATOM     13  N   UNL     1      33.054 -10.905 -23.710  0.00  0.00    -0.285 NA
ATOM     14  C   UNL     1      33.573 -11.620 -24.694  0.00  0.00    +0.117 C 
ATOM     15  H   UNL     1      33.734 -10.015 -25.991  0.00  0.00    +0.144 HD
ATOM     16  H   UNL     1      34.285 -11.496 -26.633  0.00  0.00    +0.144 HD
ATOM     17  H   UNL     1      32.901  -9.939 -23.832  0.00  0.00    +0.188 HD
ENDBRANCH   6  14
ENDBRANCH   1   9
BRANCH   1  19
ATOM     18  O   UNL     1      36.755 -18.799 -21.041  0.00  0.00    -0.244 OA
ATOM     19  C   UNL     1      35.716 -19.334 -21.398  0.00  0.00    +0.346 C 
BRANCH  19  20
ATOM     20  C   UNL     1      35.064 -20.431 -20.639  0.00  0.00    +0.076 C 
ATOM     21  C   UNL     1      33.686 -20.505 -20.623  0.00  0.00    +0.008 C 
ATOM     22  C   UNL     1      35.857 -21.344 -19.974  0.00  0.00    +0.008 C 
ATOM     23  C   UNL     1      33.853 -22.472 -19.231  0.00  0.00    +0.084 C 
ATOM     24  C   UNL     1      33.075 -21.537 -19.911  0.00  0.00    +0.019 C 
ATOM     25  C   UNL     1      35.245 -22.376 -19.262  0.00  0.00    +0.019 C 
BRANCH  23  26
ATOM     26  N   UNL     1      33.241 -23.506 -18.516  0.00  0.00    -0.214 NA
BRANCH  26  29
ATOM     27  N   UNL     1      31.628 -23.107 -16.874  0.00  0.00    -0.370 N 
ATOM     28  N   UNL     1      33.797 -23.270 -16.182  0.00  0.00    -0.370 N 
ATOM     29  C   UNL     1      32.934 -23.309 -17.256  0.00  0.00    +0.193 C 
ATOM     30  H   UNL     1      30.912 -23.111 -17.548  0.00  0.00    +0.159 HD
ATOM     31  H   UNL     1      31.410 -22.960 -15.924  0.00  0.00    +0.159 HD
ATOM     32  H   UNL     1      34.762 -23.401 -16.323  0.00  0.00    +0.159 HD
ATOM     33  H   UNL     1      33.448 -23.114 -15.275  0.00  0.00    +0.159 HD
ENDBRANCH  26  29
ENDBRANCH  23  26
ENDBRANCH  19  20
ENDBRANCH   1  19
TORSDOF 6
ENDMDL
MODEL 8
REMARK VINA RESULT:     -10.5      4.267      6.463
REMARK  Name = 4413
REMARK  6 active torsions:
REMARK  status: ('A' for Active; 'I' for Inactive)
REMARK    1  A    between atoms: O_1  and  C_9
REMARK    2  A    between atoms: O_1  and  C_19
REMARK    3  A    between atoms: C_6  and  C_14
REMARK    4  A    between atoms: C_19  and  C_20
REMARK    5  A    between atoms: C_23  and  N_26
REMARK    6  A    between atoms: N_26  and  C_29
REMARK                            x       y       z     vdW  Elec       q    Type
REMARK                         _______ _______ _______ _____ _____    ______ ____
ROOT
ATOM      1  O   UNL     1      35.272 -19.342 -22.694  0.00  0.00    -0.421 OA
ENDROOT
BRANCH   1   9
ATOM      2  C   UNL     1      34.332 -15.521 -24.075  0.00  0.00    +0.000 C 
ATOM      3  C   UNL     1      34.550 -15.741 -22.694  0.00  0.00    +0.003 C 
ATOM      4  C   UNL     1      34.016 -14.229 -24.524  0.00  0.00    +0.003 C 
ATOM      5  C   UNL     1      34.865 -17.034 -22.246  0.00  0.00    +0.038 C 
ATOM      6  C   UNL     1      33.918 -13.167 -23.624  0.00  0.00    +0.031 C 
ATOM      7  C   UNL     1      34.447 -14.661 -21.803  0.00  0.00    +0.000 C 
ATOM      8  C   UNL     1      34.434 -16.602 -24.967  0.00  0.00    +0.003 C 
ATOM      9  C   UNL     1      34.964 -18.096 -23.145  0.00  0.00    +0.149 C 
ATOM     10  C   UNL     1      34.132 -13.383 -22.266  0.00  0.00    +0.003 C 
ATOM     11  C   UNL     1      34.749 -17.880 -24.503  0.00  0.00    +0.038 C 
BRANCH   6  14
ATOM     12  N   UNL     1      32.767 -10.981 -23.371  0.00  0.00    -0.343 N 
ATOM     13  N   UNL     1      34.073 -11.415 -25.261  0.00  0.00    -0.285 NA
ATOM     14  C   UNL     1      33.590 -11.835 -24.105  0.00  0.00    +0.117 C 
ATOM     15  H   UNL     1      32.559 -10.083 -23.715  0.00  0.00    +0.144 HD
ATOM     16  H   UNL     1      32.396 -11.276 -22.509  0.00  0.00    +0.144 HD
ATOM     17  H   UNL     1      33.852 -10.512 -25.588  0.00  0.00    +0.188 HD
ENDBRANCH   6  14
ENDBRANCH   1   9
BRANCH   1  19
ATOM     18  O   UNL     1      36.536 -18.629 -20.872  0.00  0.00    -0.244 OA
ATOM     19  C   UNL     1      35.712 -19.382 -21.370  0.00  0.00    +0.346 C 
BRANCH  19  20
ATOM     20  C   UNL     1      35.040 -20.467 -20.611  0.00  0.00    +0.076 C 
ATOM     21  C   UNL     1      35.813 -21.372 -19.914  0.00  0.00    +0.008 C 
ATOM     22  C   UNL     1      33.662 -20.534 -20.625  0.00  0.00    +0.008 C 
ATOM     23  C   UNL     1      33.790 -22.480 -19.197  0.00  0.00    +0.084 C 
ATOM     24  C   UNL     1      35.181 -22.390 -19.200  0.00  0.00    +0.019 C 
ATOM     25  C   UNL     1      33.029 -21.552 -19.910  0.00  0.00    +0.019 C 
BRANCH  23  26
ATOM     26  N   UNL     1      33.156 -23.500 -18.482  0.00  0.00    -0.214 NA
BRANCH  26  29
ATOM     27  N   UNL     1      33.198 -23.307 -16.155  0.00  0.00    -0.370 N 
ATOM     28  N   UNL     1      31.245 -22.771 -17.206  0.00  0.00    -0.370 N 
ATOM     29  C   UNL     1      32.544 -23.202 -17.360  0.00  0.00    +0.193 C 
ATOM     30  H   UNL     1      34.135 -23.606 -16.127  0.00  0.00    +0.159 HD
ATOM     31  H   UNL     1      32.728 -23.080 -15.319  0.00  0.00    +0.159 HD
ATOM     32  H   UNL     1      30.669 -22.655 -17.996  0.00  0.00    +0.159 HD
ATOM     33  H   UNL     1      30.893 -22.577 -16.307  0.00  0.00    +0.159 HD
ENDBRANCH  26  29
ENDBRANCH  23  26
ENDBRANCH  19  20
ENDBRANCH   1  19
TORSDOF 6
ENDMDL
MODEL 9
REMARK VINA RESULT:     -10.5      3.091      4.016
REMARK  Name = 4413
REMARK  6 active torsions:
REMARK  status: ('A' for Active; 'I' for Inactive)
REMARK    1  A    between atoms: O_1  and  C_9
REMARK    2  A    between atoms: O_1  and  C_19
REMARK    3  A    between atoms: C_6  and  C_14
REMARK    4  A    between atoms: C_19  and  C_20
REMARK    5  A    between atoms: C_23  and  N_26
REMARK    6  A    between atoms: N_26  and  C_29
REMARK                            x       y       z     vdW  Elec       q    Type
REMARK                         _______ _______ _______ _____ _____    ______ ____
ROOT
ATOM      1  O   UNL     1      35.867 -22.790 -18.194  0.00  0.00    -0.421 OA
ENDROOT
BRANCH   1   9
ATOM      2  C   UNL     1      34.751 -20.020 -21.105  0.00  0.00    +0.000 C 
ATOM      3  C   UNL     1      36.111 -20.145 -20.731  0.00  0.00    +0.003 C 
ATOM      4  C   UNL     1      34.392 -19.082 -22.087  0.00  0.00    +0.003 C 
ATOM      5  C   UNL     1      36.469 -21.083 -19.750  0.00  0.00    +0.038 C 
ATOM      6  C   UNL     1      35.359 -18.281 -22.692  0.00  0.00    +0.031 C 
ATOM      7  C   UNL     1      37.071 -19.330 -21.352  0.00  0.00    +0.000 C 
ATOM      8  C   UNL     1      33.790 -20.836 -20.484  0.00  0.00    +0.003 C 
ATOM      9  C   UNL     1      35.502 -21.886 -19.143  0.00  0.00    +0.149 C 
ATOM     10  C   UNL     1      36.696 -18.404 -22.326  0.00  0.00    +0.003 C 
ATOM     11  C   UNL     1      34.165 -21.762 -19.510  0.00  0.00    +0.038 C 
BRANCH   6  14
ATOM     12  N   UNL     1      34.135 -17.669 -24.765  0.00  0.00    -0.343 N 
ATOM     13  N   UNL     1      35.416 -16.072 -23.637  0.00  0.00    -0.285 NA
ATOM     14  C   UNL     1      34.971 -17.314 -23.707  0.00  0.00    +0.117 C 
ATOM     15  H   UNL     1      33.885 -16.998 -25.440  0.00  0.00    +0.144 HD
ATOM     16  H   UNL     1      33.795 -18.590 -24.836  0.00  0.00    +0.144 HD
ATOM     17  H   UNL     1      35.154 -15.416 -24.324  0.00  0.00    +0.188 HD
ENDBRANCH   6  14
ENDBRANCH   1   9
BRANCH   1  19
ATOM     18  O   UNL     1      36.596 -21.359 -16.507  0.00  0.00    -0.244 OA
ATOM     19  C   UNL     1      35.895 -22.281 -16.894  0.00  0.00    +0.346 C 
BRANCH  19  20
ATOM     20  C   UNL     1      34.941 -23.002 -16.014  0.00  0.00    +0.076 C 
ATOM     21  C   UNL     1      35.371 -23.435 -14.777  0.00  0.00    +0.008 C 
ATOM     22  C   UNL     1      33.652 -23.214 -16.460  0.00  0.00    +0.008 C 
ATOM     23  C   UNL     1      33.165 -24.336 -14.376  0.00  0.00    +0.084 C 
ATOM     24  C   UNL     1      34.473 -24.109 -13.949  0.00  0.00    +0.019 C 
ATOM     25  C   UNL     1      32.754 -23.889 -15.632  0.00  0.00    +0.019 C 
BRANCH  23  26
ATOM     26  N   UNL     1      32.266 -25.013 -13.548  0.00  0.00    -0.214 NA
BRANCH  26  29
ATOM     27  N   UNL     1      30.390 -23.638 -13.328  0.00  0.00    -0.370 N 
ATOM     28  N   UNL     1      30.067 -25.693 -14.266  0.00  0.00    -0.370 N 
ATOM     29  C   UNL     1      30.979 -24.819 -13.716  0.00  0.00    +0.193 C 
ATOM     30  H   UNL     1      30.935 -22.927 -12.919  0.00  0.00    +0.159 HD
ATOM     31  H   UNL     1      29.423 -23.504 -13.459  0.00  0.00    +0.159 HD
ATOM     32  H   UNL     1      30.363 -26.576 -14.584  0.00  0.00    +0.159 HD
ATOM     33  H   UNL     1      29.120 -25.435 -14.341  0.00  0.00    +0.159 HD
ENDBRANCH  26  29
ENDBRANCH  23  26
ENDBRANCH  19  20
ENDBRANCH   1  19
TORSDOF 6
ENDMDL
