MODEL 1
REMARK VINA RESULT:     -11.1      0.000      0.000
REMARK  Name = 4369498
REMARK  8 active torsions:
REMARK  status: ('A' for Active; 'I' for Inactive)
REMARK    1  A    between atoms: N_2  and  C_11
REMARK    2  A    between atoms: C_5  and  C_25
REMARK    3  A    between atoms: C_8  and  S_14
REMARK    4  A    between atoms: C_13  and  O_23
REMARK    5  A    between atoms: S_14  and  N_17
REMARK    6  A    between atoms: N_17  and  C_19
REMARK    7  A    between atoms: C_19  and  C_20
REMARK    8  A    between atoms: C_26  and  C_32
REMARK                            x       y       z     vdW  Elec       q    Type
REMARK                         _______ _______ _______ _____ _____    ______ ____
ROOT
ATOM      1  O   UNL     1      34.195 -14.533 -24.490  0.00  0.00    -0.424 OA
ATOM      2  N   UNL     1      33.996 -12.304 -25.009  0.00  0.00    -0.265 N 
ATOM      3  N   UNL     1      34.293 -13.087 -22.754  0.00  0.00    -0.193 NA
ATOM      4  C   UNL     1      34.161 -13.245 -24.052  0.00  0.00    +0.293 C 
ATOM      5  C   UNL     1      34.367 -15.255 -23.347  0.00  0.00    +0.168 C 
ATOM      6  C   UNL     1      34.425 -14.373 -22.297  0.00  0.00    +0.141 C 
ATOM      7  H   UNL     1      33.918 -12.656 -25.926  0.00  0.00    +0.157 HD
ENDROOT
BRANCH   2  11
ATOM      8  C   UNL     1      32.886  -8.930 -23.931  0.00  0.00    +0.123 C 
ATOM      9  C   UNL     1      32.977 -10.318 -24.043  0.00  0.00    +0.038 C 
ATOM     10  C   UNL     1      33.734  -8.113 -24.678  0.00  0.00    +0.023 C 
ATOM     11  C   UNL     1      33.916 -10.887 -24.903  0.00  0.00    +0.087 C 
ATOM     12  C   UNL     1      34.673  -8.683 -25.539  0.00  0.00    +0.040 C 
ATOM     13  C   UNL     1      34.764 -10.070 -25.650  0.00  0.00    +0.152 C 
BRANCH   8  14
ATOM     14  S   UNL     1      31.708  -8.215 -22.857  0.00  0.00    +0.060 S 
ATOM     15  O   UNL     1      31.492  -6.830 -23.254  0.00  0.00    -0.153 OA
ATOM     16  O   UNL     1      30.571  -9.121 -22.779  0.00  0.00    -0.153 OA
BRANCH  14  17
ATOM     17  N   UNL     1      32.523  -8.232 -21.354  0.00  0.00    -0.179 NA
ATOM     18  H   UNL     1      32.949  -7.313 -21.239  0.00  0.00    +0.149 HD
BRANCH  17  19
ATOM     19  C   UNL     1      31.775  -8.511 -20.120  0.00  0.00    +0.091 C 
BRANCH  19  20
ATOM     20  C   UNL     1      32.174  -9.829 -19.546  0.00  0.00    +0.017 C 
ATOM     21  C   UNL     1      31.204 -10.574 -18.675  0.00  0.00    +0.001 C 
ATOM     22  C   UNL     1      31.516 -11.079 -20.052  0.00  0.00    +0.001 C 
ENDBRANCH  19  20
ENDBRANCH  17  19
ENDBRANCH  14  17
ENDBRANCH   8  14
BRANCH  13  23
ATOM     23  O   UNL     1      35.687 -10.607 -26.497  0.00  0.00    -0.470 OA
ATOM     24  C   UNL     1      35.205 -11.125 -27.736  0.00  0.00    +0.253 C 
ENDBRANCH  13  23
ENDBRANCH   2  11
BRANCH   5  25
ATOM     25  C   UNL     1      34.441 -16.687 -23.498  0.00  0.00    +0.036 C 
ATOM     26  C   UNL     1      34.893 -18.870 -22.566  0.00  0.00    +0.002 C 
ATOM     27  C   UNL     1      34.822 -17.485 -22.419  0.00  0.00    +0.003 C 
ATOM     28  C   UNL     1      34.130 -17.275 -24.725  0.00  0.00    +0.003 C 
ATOM     29  C   UNL     1      34.582 -19.457 -23.793  0.00  0.00    +0.000 C 
ATOM     30  C   UNL     1      34.201 -18.660 -24.872  0.00  0.00    +0.000 C 
BRANCH  26  32
ATOM     31  N   UNL     1      36.981 -20.319 -19.836  0.00  0.00    -0.242 NA
ATOM     32  C   UNL     1      35.289 -19.697 -21.448  0.00  0.00    +0.019 C 
ATOM     33  C   UNL     1      34.419 -20.637 -20.907  0.00  0.00    +0.003 C 
ATOM     34  C   UNL     1      36.548 -19.578 -20.881  0.00  0.00    +0.099 C 
ATOM     35  C   UNL     1      34.828 -21.418 -19.832  0.00  0.00    +0.021 C 
ATOM     36  C   UNL     1      36.108 -21.221 -19.338  0.00  0.00    +0.099 C 
ENDBRANCH  26  32
ENDBRANCH   5  25
TORSDOF 8
ENDMDL
MODEL 2
REMARK VINA RESULT:     -11.0      1.659      2.599
REMARK  Name = 4369498
REMARK  8 active torsions:
REMARK  status: ('A' for Active; 'I' for Inactive)
REMARK    1  A    between atoms: N_2  and  C_11
REMARK    2  A    between atoms: C_5  and  C_25
REMARK    3  A    between atoms: C_8  and  S_14
REMARK    4  A    between atoms: C_13  and  O_23
REMARK    5  A    between atoms: S_14  and  N_17
REMARK    6  A    between atoms: N_17  and  C_19
REMARK    7  A    between atoms: C_19  and  C_20
REMARK    8  A    between atoms: C_26  and  C_32
REMARK                            x       y       z     vdW  Elec       q    Type
REMARK                         _______ _______ _______ _____ _____    ______ ____
ROOT
ATOM      1  O   UNL     1      34.238 -14.737 -24.278  0.00  0.00    -0.424 OA
ATOM      2  N   UNL     1      34.022 -12.494 -24.730  0.00  0.00    -0.265 N 
ATOM      3  N   UNL     1      34.345 -13.341 -22.501  0.00  0.00    -0.193 NA
ATOM      4  C   UNL     1      34.201 -13.461 -23.802  0.00  0.00    +0.293 C 
ATOM      5  C   UNL     1      34.424 -15.490 -23.158  0.00  0.00    +0.168 C 
ATOM      6  C   UNL     1      34.488 -14.638 -22.083  0.00  0.00    +0.141 C 
ATOM      7  H   UNL     1      33.938 -12.820 -25.656  0.00  0.00    +0.157 HD
ENDROOT
BRANCH   2  11
ATOM      8  C   UNL     1      32.956  -9.161 -23.492  0.00  0.00    +0.123 C 
ATOM      9  C   UNL     1      33.053 -10.545 -23.645  0.00  0.00    +0.038 C 
ATOM     10  C   UNL     1      33.743  -8.316 -24.274  0.00  0.00    +0.023 C 
ATOM     11  C   UNL     1      33.936 -11.081 -24.582  0.00  0.00    +0.087 C 
ATOM     12  C   UNL     1      34.626  -8.853 -25.211  0.00  0.00    +0.040 C 
ATOM     13  C   UNL     1      34.723 -10.236 -25.364  0.00  0.00    +0.152 C 
BRANCH   8  14
ATOM     14  S   UNL     1      31.848  -8.487 -22.322  0.00  0.00    +0.060 S 
ATOM     15  O   UNL     1      31.210  -9.579 -21.597  0.00  0.00    -0.153 OA
ATOM     16  O   UNL     1      32.559  -7.456 -21.579  0.00  0.00    -0.153 OA
BRANCH  14  17
ATOM     17  N   UNL     1      30.678  -7.734 -23.315  0.00  0.00    -0.179 NA
ATOM     18  H   UNL     1      29.768  -8.081 -23.015  0.00  0.00    +0.149 HD
BRANCH  17  19
ATOM     19  C   UNL     1      30.583  -6.267 -23.349  0.00  0.00    +0.091 C 
BRANCH  19  20
ATOM     20  C   UNL     1      31.229  -5.723 -24.579  0.00  0.00    +0.017 C 
ATOM     21  C   UNL     1      31.119  -4.256 -24.878  0.00  0.00    +0.001 C 
ATOM     22  C   UNL     1      32.432  -4.837 -24.445  0.00  0.00    +0.001 C 
ENDBRANCH  19  20
ENDBRANCH  17  19
ENDBRANCH  14  17
ENDBRANCH   8  14
BRANCH  13  23
ATOM     23  O   UNL     1      35.591 -10.741 -26.285  0.00  0.00    -0.470 OA
ATOM     24  C   UNL     1      35.077 -10.984 -27.593  0.00  0.00    +0.253 C 
ENDBRANCH  13  23
ENDBRANCH   2  11
BRANCH   5  25
ATOM     25  C   UNL     1      34.504 -16.916 -23.351  0.00  0.00    +0.036 C 
ATOM     26  C   UNL     1      34.752 -19.142 -22.443  0.00  0.00    +0.002 C 
ATOM     27  C   UNL     1      34.675 -17.762 -22.255  0.00  0.00    +0.003 C 
ATOM     28  C   UNL     1      34.409 -17.452 -24.636  0.00  0.00    +0.003 C 
ATOM     29  C   UNL     1      34.658 -19.676 -23.728  0.00  0.00    +0.000 C 
ATOM     30  C   UNL     1      34.486 -18.832 -24.825  0.00  0.00    +0.000 C 
BRANCH  26  32
ATOM     31  N   UNL     1      36.410 -20.986 -19.656  0.00  0.00    -0.242 NA
ATOM     32  C   UNL     1      34.930 -20.018 -21.306  0.00  0.00    +0.019 C 
ATOM     33  C   UNL     1      33.859 -20.722 -20.767  0.00  0.00    +0.003 C 
ATOM     34  C   UNL     1      36.175 -20.184 -20.719  0.00  0.00    +0.099 C 
ATOM     35  C   UNL     1      34.062 -21.557 -19.675  0.00  0.00    +0.021 C 
ATOM     36  C   UNL     1      35.345 -21.653 -19.161  0.00  0.00    +0.099 C 
ENDBRANCH  26  32
ENDBRANCH   5  25
TORSDOF 8
ENDMDL
MODEL 3
REMARK VINA RESULT:     -10.8      6.102     12.805
REMARK  Name = 4369498
REMARK  8 active torsions:
REMARK  status: ('A' for Active; 'I' for Inactive)
REMARK    1  A    between atoms: N_2  and  C_11
REMARK    2  A    between atoms: C_5  and  C_25
REMARK    3  A    between atoms: C_8  and  S_14
REMARK    4  A    between atoms: C_13  and  O_23
REMARK    5  A    between atoms: S_14  and  N_17
REMARK    6  A    between atoms: N_17  and  C_19
REMARK    7  A    between atoms: C_19  and  C_20
REMARK    8  A    between atoms: C_26  and  C_32
REMARK                            x       y       z     vdW  Elec       q    Type
REMARK                         _______ _______ _______ _____ _____    ______ ____
ROOT
ATOM      1  O   UNL     1      34.012 -20.685 -20.905  0.00  0.00    -0.424 OA
ATOM      2  N   UNL     1      33.649 -21.964 -19.030  0.00  0.00    -0.265 N 
ATOM      3  N   UNL     1      35.766 -20.920 -19.496  0.00  0.00    -0.193 NA
ATOM      4  C   UNL     1      34.511 -21.212 -19.753  0.00  0.00    +0.293 C 
ATOM      5  C   UNL     1      35.066 -19.992 -21.420  0.00  0.00    +0.168 C 
ATOM      6  C   UNL     1      36.127 -20.137 -20.563  0.00  0.00    +0.141 C 
ATOM      7  H   UNL     1      32.748 -22.048 -19.418  0.00  0.00    +0.157 HD
ENDROOT
BRANCH   2  11
ATOM      8  C   UNL     1      35.322 -23.435 -16.060  0.00  0.00    +0.123 C 
ATOM      9  C   UNL     1      35.122 -22.760 -17.266  0.00  0.00    +0.038 C 
ATOM     10  C   UNL     1      34.237 -24.000 -15.389  0.00  0.00    +0.023 C 
ATOM     11  C   UNL     1      33.838 -22.652 -17.799  0.00  0.00    +0.087 C 
ATOM     12  C   UNL     1      32.953 -23.891 -15.924  0.00  0.00    +0.040 C 
ATOM     13  C   UNL     1      32.753 -23.217 -17.128  0.00  0.00    +0.152 C 
BRANCH   8  14
ATOM     14  S   UNL     1      36.929 -23.575 -15.393  0.00  0.00    +0.060 S 
ATOM     15  O   UNL     1      37.857 -22.842 -16.246  0.00  0.00    -0.153 OA
ATOM     16  O   UNL     1      36.852 -23.246 -13.976  0.00  0.00    -0.153 OA
BRANCH  14  17
ATOM     17  N   UNL     1      37.248 -25.247 -15.548  0.00  0.00    -0.179 NA
ATOM     18  H   UNL     1      37.893 -25.353 -16.330  0.00  0.00    +0.149 HD
BRANCH  17  19
ATOM     19  C   UNL     1      37.825 -25.989 -14.417  0.00  0.00    +0.091 C 
BRANCH  19  20
ATOM     20  C   UNL     1      39.223 -25.542 -14.149  0.00  0.00    +0.017 C 
ATOM     21  C   UNL     1      40.354 -26.507 -14.355  0.00  0.00    +0.001 C 
ATOM     22  C   UNL     1      40.168 -25.358 -15.300  0.00  0.00    +0.001 C 
ENDBRANCH  19  20
ENDBRANCH  17  19
ENDBRANCH  14  17
ENDBRANCH   8  14
BRANCH  13  23
ATOM     23  O   UNL     1      31.491 -23.123 -17.634  0.00  0.00    -0.470 OA
ATOM     24  C   UNL     1      30.418 -23.099 -16.694  0.00  0.00    +0.253 C 
ENDBRANCH  13  23
ENDBRANCH   2  11
BRANCH   5  25
ATOM     25  C   UNL     1      34.834 -19.310 -22.670  0.00  0.00    +0.036 C 
ATOM     26  C   UNL     1      34.410 -17.272 -23.896  0.00  0.00    +0.002 C 
ATOM     27  C   UNL     1      34.633 -17.930 -22.687  0.00  0.00    +0.003 C 
ATOM     28  C   UNL     1      34.812 -20.032 -23.864  0.00  0.00    +0.003 C 
ATOM     29  C   UNL     1      34.387 -17.995 -25.089  0.00  0.00    +0.000 C 
ATOM     30  C   UNL     1      34.588 -19.375 -25.073  0.00  0.00    +0.000 C 
BRANCH  26  32
ATOM     31  N   UNL     1      34.360 -13.717 -22.769  0.00  0.00    -0.242 NA
ATOM     32  C   UNL     1      34.200 -15.841 -23.913  0.00  0.00    +0.019 C 
ATOM     33  C   UNL     1      33.663 -15.207 -25.028  0.00  0.00    +0.003 C 
ATOM     34  C   UNL     1      34.529 -15.057 -22.818  0.00  0.00    +0.099 C 
ATOM     35  C   UNL     1      33.474 -13.830 -25.014  0.00  0.00    +0.021 C 
ATOM     36  C   UNL     1      33.835 -13.137 -23.871  0.00  0.00    +0.099 C 
ENDBRANCH  26  32
ENDBRANCH   5  25
TORSDOF 8
ENDMDL
MODEL 4
REMARK VINA RESULT:     -10.7      2.120      3.689
REMARK  Name = 4369498
REMARK  8 active torsions:
REMARK  status: ('A' for Active; 'I' for Inactive)
REMARK    1  A    between atoms: N_2  and  C_11
REMARK    2  A    between atoms: C_5  and  C_25
REMARK    3  A    between atoms: C_8  and  S_14
REMARK    4  A    between atoms: C_13  and  O_23
REMARK    5  A    between atoms: S_14  and  N_17
REMARK    6  A    between atoms: N_17  and  C_19
REMARK    7  A    between atoms: C_19  and  C_20
REMARK    8  A    between atoms: C_26  and  C_32
REMARK                            x       y       z     vdW  Elec       q    Type
REMARK                         _______ _______ _______ _____ _____    ______ ____
ROOT
ATOM      1  O   UNL     1      33.914 -14.891 -23.576  0.00  0.00    -0.424 OA
ATOM      2  N   UNL     1      33.356 -12.680 -23.853  0.00  0.00    -0.265 N 
ATOM      3  N   UNL     1      34.214 -13.549 -21.780  0.00  0.00    -0.193 NA
ATOM      4  C   UNL     1      33.827 -13.646 -23.032  0.00  0.00    +0.293 C 
ATOM      5  C   UNL     1      34.406 -15.650 -22.557  0.00  0.00    +0.168 C 
ATOM      6  C   UNL     1      34.586 -14.832 -21.470  0.00  0.00    +0.141 C 
ATOM      7  H   UNL     1      33.125 -12.984 -24.760  0.00  0.00    +0.157 HD
ENDROOT
BRANCH   2  11
ATOM      8  C   UNL     1      33.732  -8.991 -24.042  0.00  0.00    +0.123 C 
ATOM      9  C   UNL     1      33.931 -10.353 -24.270  0.00  0.00    +0.038 C 
ATOM     10  C   UNL     1      32.740  -8.571 -23.156  0.00  0.00    +0.023 C 
ATOM     11  C   UNL     1      33.139 -11.293 -23.612  0.00  0.00    +0.087 C 
ATOM     12  C   UNL     1      31.948  -9.512 -22.498  0.00  0.00    +0.040 C 
ATOM     13  C   UNL     1      32.147 -10.873 -22.726  0.00  0.00    +0.152 C 
BRANCH   8  14
ATOM     14  S   UNL     1      34.726  -7.812 -24.862  0.00  0.00    +0.060 S 
ATOM     15  O   UNL     1      35.634  -7.210 -23.895  0.00  0.00    -0.153 OA
ATOM     16  O   UNL     1      35.271  -8.445 -26.055  0.00  0.00    -0.153 OA
BRANCH  14  17
ATOM     17  N   UNL     1      33.581  -6.637 -25.343  0.00  0.00    -0.179 NA
ATOM     18  H   UNL     1      32.668  -6.970 -25.033  0.00  0.00    +0.149 HD
BRANCH  17  19
ATOM     19  C   UNL     1      33.712  -5.252 -24.869  0.00  0.00    +0.091 C 
BRANCH  19  20
ATOM     20  C   UNL     1      32.650  -4.932 -23.870  0.00  0.00    +0.017 C 
ATOM     21  C   UNL     1      31.910  -3.630 -23.978  0.00  0.00    +0.001 C 
ATOM     22  C   UNL     1      31.214  -4.918 -24.306  0.00  0.00    +0.001 C 
ENDBRANCH  19  20
ENDBRANCH  17  19
ENDBRANCH  14  17
ENDBRANCH   8  14
BRANCH  13  23
ATOM     23  O   UNL     1      31.363 -11.776 -22.072  0.00  0.00    -0.470 OA
ATOM     24  C   UNL     1      31.304 -11.673 -20.651  0.00  0.00    +0.253 C 
ENDBRANCH  13  23
ENDBRANCH   2  11
BRANCH   5  25
ATOM     25  C   UNL     1      34.609 -17.049 -22.840  0.00  0.00    +0.036 C 
ATOM     26  C   UNL     1      34.841 -19.329 -22.074  0.00  0.00    +0.002 C 
ATOM     27  C   UNL     1      34.645 -17.976 -21.799  0.00  0.00    +0.003 C 
ATOM     28  C   UNL     1      34.768 -17.477 -24.159  0.00  0.00    +0.003 C 
ATOM     29  C   UNL     1      35.001 -19.756 -23.393  0.00  0.00    +0.000 C 
ATOM     30  C   UNL     1      34.964 -18.830 -24.435  0.00  0.00    +0.000 C 
BRANCH  26  32
ATOM     31  N   UNL     1      36.188 -21.570 -19.414  0.00  0.00    -0.242 NA
ATOM     32  C   UNL     1      34.879 -20.290 -20.994  0.00  0.00    +0.019 C 
ATOM     33  C   UNL     1      33.711 -20.853 -20.492  0.00  0.00    +0.003 C 
ATOM     34  C   UNL     1      36.082 -20.679 -20.425  0.00  0.00    +0.099 C 
ATOM     35  C   UNL     1      33.781 -21.773 -19.453  0.00  0.00    +0.021 C 
ATOM     36  C   UNL     1      35.032 -22.095 -18.953  0.00  0.00    +0.099 C 
ENDBRANCH  26  32
ENDBRANCH   5  25
TORSDOF 8
ENDMDL
MODEL 5
REMARK VINA RESULT:     -10.6      7.376     12.895
REMARK  Name = 4369498
REMARK  8 active torsions:
REMARK  status: ('A' for Active; 'I' for Inactive)
REMARK    1  A    between atoms: N_2  and  C_11
REMARK    2  A    between atoms: C_5  and  C_25
REMARK    3  A    between atoms: C_8  and  S_14
REMARK    4  A    between atoms: C_13  and  O_23
REMARK    5  A    between atoms: S_14  and  N_17
REMARK    6  A    between atoms: N_17  and  C_19
REMARK    7  A    between atoms: C_19  and  C_20
REMARK    8  A    between atoms: C_26  and  C_32
REMARK                            x       y       z     vdW  Elec       q    Type
REMARK                         _______ _______ _______ _____ _____    ______ ____
ROOT
ATOM      1  O   UNL     1      36.066 -21.199 -18.721  0.00  0.00    -0.424 OA
ATOM      2  N   UNL     1      35.843 -22.449 -16.806  0.00  0.00    -0.265 N 
ATOM      3  N   UNL     1      34.300 -22.610 -18.645  0.00  0.00    -0.193 NA
ATOM      4  C   UNL     1      35.359 -22.135 -18.030  0.00  0.00    +0.293 C 
ATOM      5  C   UNL     1      35.375 -21.077 -19.889  0.00  0.00    +0.168 C 
ATOM      6  C   UNL     1      34.305 -21.934 -19.838  0.00  0.00    +0.141 C 
ATOM      7  H   UNL     1      36.659 -21.963 -16.547  0.00  0.00    +0.157 HD
ENDROOT
BRANCH   2  11
ATOM      8  C   UNL     1      33.507 -24.311 -14.603  0.00  0.00    +0.123 C 
ATOM      9  C   UNL     1      33.994 -23.415 -15.556  0.00  0.00    +0.038 C 
ATOM     10  C   UNL     1      34.385 -25.160 -13.931  0.00  0.00    +0.023 C 
ATOM     11  C   UNL     1      35.359 -23.369 -15.834  0.00  0.00    +0.087 C 
ATOM     12  C   UNL     1      35.752 -25.114 -14.210  0.00  0.00    +0.040 C 
ATOM     13  C   UNL     1      36.238 -24.219 -15.162  0.00  0.00    +0.152 C 
BRANCH   8  14
ATOM     14  S   UNL     1      31.797 -24.367 -14.250  0.00  0.00    +0.060 S 
ATOM     15  O   UNL     1      31.381 -25.761 -14.164  0.00  0.00    -0.153 OA
ATOM     16  O   UNL     1      31.547 -23.477 -13.124  0.00  0.00    -0.153 OA
BRANCH  14  17
ATOM     17  N   UNL     1      31.109 -23.676 -15.653  0.00  0.00    -0.179 NA
ATOM     18  H   UNL     1      30.831 -24.450 -16.257  0.00  0.00    +0.149 HD
BRANCH  17  19
ATOM     19  C   UNL     1      29.942 -22.789 -15.535  0.00  0.00    +0.091 C 
BRANCH  19  20
ATOM     20  C   UNL     1      28.677 -23.543 -15.777  0.00  0.00    +0.017 C 
ATOM     21  C   UNL     1      27.409 -22.784 -16.041  0.00  0.00    +0.001 C 
ATOM     22  C   UNL     1      28.074 -23.542 -17.151  0.00  0.00    +0.001 C 
ENDBRANCH  19  20
ENDBRANCH  17  19
ENDBRANCH  14  17
ENDBRANCH   8  14
BRANCH  13  23
ATOM     23  O   UNL     1      37.576 -24.188 -15.420  0.00  0.00    -0.470 OA
ATOM     24  C   UNL     1      38.379 -25.186 -14.791  0.00  0.00    +0.253 C 
ENDBRANCH  13  23
ENDBRANCH   2  11
BRANCH   5  25
ATOM     25  C   UNL     1      35.897 -20.132 -20.846  0.00  0.00    +0.036 C 
ATOM     26  C   UNL     1      35.551 -18.628 -22.705  0.00  0.00    +0.002 C 
ATOM     27  C   UNL     1      35.046 -19.541 -21.780  0.00  0.00    +0.003 C 
ATOM     28  C   UNL     1      37.254 -19.808 -20.837  0.00  0.00    +0.003 C 
ATOM     29  C   UNL     1      36.909 -18.305 -22.695  0.00  0.00    +0.000 C 
ATOM     30  C   UNL     1      37.760 -18.895 -21.761  0.00  0.00    +0.000 C 
BRANCH  26  32
ATOM     31  N   UNL     1      32.932 -18.271 -25.336  0.00  0.00    -0.242 NA
ATOM     32  C   UNL     1      34.669 -18.016 -23.674  0.00  0.00    +0.019 C 
ATOM     33  C   UNL     1      34.684 -16.642 -23.891  0.00  0.00    +0.003 C 
ATOM     34  C   UNL     1      33.782 -18.779 -24.416  0.00  0.00    +0.099 C 
ATOM     35  C   UNL     1      33.824 -16.083 -24.830  0.00  0.00    +0.021 C 
ATOM     36  C   UNL     1      32.975 -16.934 -25.520  0.00  0.00    +0.099 C 
ENDBRANCH  26  32
ENDBRANCH   5  25
TORSDOF 8
ENDMDL
MODEL 6
REMARK VINA RESULT:     -10.6      6.470     12.714
REMARK  Name = 4369498
REMARK  8 active torsions:
REMARK  status: ('A' for Active; 'I' for Inactive)
REMARK    1  A    between atoms: N_2  and  C_11
REMARK    2  A    between atoms: C_5  and  C_25
REMARK    3  A    between atoms: C_8  and  S_14
REMARK    4  A    between atoms: C_13  and  O_23
REMARK    5  A    between atoms: S_14  and  N_17
REMARK    6  A    between atoms: N_17  and  C_19
REMARK    7  A    between atoms: C_19  and  C_20
REMARK    8  A    between atoms: C_26  and  C_32
REMARK                            x       y       z     vdW  Elec       q    Type
REMARK                         _______ _______ _______ _____ _____    ______ ____
ROOT
ATOM      1  O   UNL     1      33.461 -20.784 -20.632  0.00  0.00    -0.424 OA
ATOM      2  N   UNL     1      32.726 -22.025 -18.844  0.00  0.00    -0.265 N 
ATOM      3  N   UNL     1      35.060 -21.640 -19.282  0.00  0.00    -0.193 NA
ATOM      4  C   UNL     1      33.776 -21.519 -19.531  0.00  0.00    +0.293 C 
ATOM      5  C   UNL     1      34.676 -20.407 -21.121  0.00  0.00    +0.168 C 
ATOM      6  C   UNL     1      35.642 -20.929 -20.299  0.00  0.00    +0.141 C 
ATOM      7  H   UNL     1      31.842 -21.804 -19.218  0.00  0.00    +0.157 HD
ENDROOT
BRANCH   2  11
ATOM      8  C   UNL     1      33.861 -24.192 -16.052  0.00  0.00    +0.123 C 
ATOM      9  C   UNL     1      33.877 -23.402 -17.202  0.00  0.00    +0.038 C 
ATOM     10  C   UNL     1      32.664 -24.403 -15.368  0.00  0.00    +0.023 C 
ATOM     11  C   UNL     1      32.696 -22.825 -17.668  0.00  0.00    +0.087 C 
ATOM     12  C   UNL     1      31.483 -23.826 -15.834  0.00  0.00    +0.040 C 
ATOM     13  C   UNL     1      31.499 -23.037 -16.984  0.00  0.00    +0.152 C 
BRANCH   8  14
ATOM     14  S   UNL     1      35.339 -24.917 -15.469  0.00  0.00    +0.060 S 
ATOM     15  O   UNL     1      35.418 -26.285 -15.967  0.00  0.00    -0.153 OA
ATOM     16  O   UNL     1      36.429 -23.992 -15.750  0.00  0.00    -0.153 OA
BRANCH  14  17
ATOM     17  N   UNL     1      35.085 -24.964 -13.780  0.00  0.00    -0.179 NA
ATOM     18  H   UNL     1      35.672 -25.714 -13.414  0.00  0.00    +0.149 HD
BRANCH  17  19
ATOM     19  C   UNL     1      35.362 -23.772 -12.965  0.00  0.00    +0.091 C 
BRANCH  19  20
ATOM     20  C   UNL     1      36.479 -24.032 -12.010  0.00  0.00    +0.017 C 
ATOM     21  C   UNL     1      37.879 -24.160 -12.536  0.00  0.00    +0.001 C 
ATOM     22  C   UNL     1      37.484 -22.949 -11.745  0.00  0.00    +0.001 C 
ENDBRANCH  19  20
ENDBRANCH  17  19
ENDBRANCH  14  17
ENDBRANCH   8  14
BRANCH  13  23
ATOM     23  O   UNL     1      30.333 -22.483 -17.423  0.00  0.00    -0.470 OA
ATOM     24  C   UNL     1      29.145 -22.827 -16.713  0.00  0.00    +0.253 C 
ENDBRANCH  13  23
ENDBRANCH   2  11
BRANCH   5  25
ATOM     25  C   UNL     1      34.662 -19.598 -22.315  0.00  0.00    +0.036 C 
ATOM     26  C   UNL     1      34.521 -17.431 -23.375  0.00  0.00    +0.002 C 
ATOM     27  C   UNL     1      34.533 -18.212 -22.220  0.00  0.00    +0.003 C 
ATOM     28  C   UNL     1      34.781 -20.202 -23.568  0.00  0.00    +0.003 C 
ATOM     29  C   UNL     1      34.639 -18.036 -24.627  0.00  0.00    +0.000 C 
ATOM     30  C   UNL     1      34.769 -19.422 -24.723  0.00  0.00    +0.000 C 
BRANCH  26  32
ATOM     31  N   UNL     1      34.009 -13.875 -24.378  0.00  0.00    -0.242 NA
ATOM     32  C   UNL     1      34.385 -15.995 -23.276  0.00  0.00    +0.019 C 
ATOM     33  C   UNL     1      34.489 -15.347 -22.051  0.00  0.00    +0.003 C 
ATOM     34  C   UNL     1      34.146 -15.219 -24.401  0.00  0.00    +0.099 C 
ATOM     35  C   UNL     1      34.354 -13.965 -21.987  0.00  0.00    +0.021 C 
ATOM     36  C   UNL     1      34.117 -13.281 -23.169  0.00  0.00    +0.099 C 
ENDBRANCH  26  32
ENDBRANCH   5  25
TORSDOF 8
ENDMDL
MODEL 7
REMARK VINA RESULT:     -10.4      1.629      4.030
REMARK  Name = 4369498
REMARK  8 active torsions:
REMARK  status: ('A' for Active; 'I' for Inactive)
REMARK    1  A    between atoms: N_2  and  C_11
REMARK    2  A    between atoms: C_5  and  C_25
REMARK    3  A    between atoms: C_8  and  S_14
REMARK    4  A    between atoms: C_13  and  O_23
REMARK    5  A    between atoms: S_14  and  N_17
REMARK    6  A    between atoms: N_17  and  C_19
REMARK    7  A    between atoms: C_19  and  C_20
REMARK    8  A    between atoms: C_26  and  C_32
REMARK                            x       y       z     vdW  Elec       q    Type
REMARK                         _______ _______ _______ _____ _____    ______ ____
ROOT
ATOM      1  O   UNL     1      32.877 -14.056 -22.973  0.00  0.00    -0.424 OA
ATOM      2  N   UNL     1      32.085 -12.024 -22.248  0.00  0.00    -0.265 N 
ATOM      3  N   UNL     1      33.917 -12.224 -23.796  0.00  0.00    -0.193 NA
ATOM      4  C   UNL     1      32.973 -12.698 -23.015  0.00  0.00    +0.293 C 
ATOM      5  C   UNL     1      33.864 -14.471 -23.815  0.00  0.00    +0.168 C 
ATOM      6  C   UNL     1      34.492 -13.356 -24.312  0.00  0.00    +0.141 C 
ATOM      7  H   UNL     1      31.462 -12.592 -21.740  0.00  0.00    +0.157 HD
ENDROOT
BRANCH   2  11
ATOM      8  C   UNL     1      32.014  -8.378 -22.942  0.00  0.00    +0.123 C 
ATOM      9  C   UNL     1      32.179  -9.753 -23.114  0.00  0.00    +0.038 C 
ATOM     10  C   UNL     1      31.580  -7.876 -21.715  0.00  0.00    +0.023 C 
ATOM     11  C   UNL     1      31.910 -10.624 -22.059  0.00  0.00    +0.087 C 
ATOM     12  C   UNL     1      31.310  -8.749 -20.660  0.00  0.00    +0.040 C 
ATOM     13  C   UNL     1      31.475 -10.123 -20.832  0.00  0.00    +0.152 C 
BRANCH   8  14
ATOM     14  S   UNL     1      32.355  -7.284 -24.260  0.00  0.00    +0.060 S 
ATOM     15  O   UNL     1      31.862  -7.875 -25.498  0.00  0.00    -0.153 OA
ATOM     16  O   UNL     1      31.893  -5.959 -23.869  0.00  0.00    -0.153 OA
BRANCH  14  17
ATOM     17  N   UNL     1      34.064  -7.276 -24.300  0.00  0.00    -0.179 NA
ATOM     18  H   UNL     1      34.380  -7.819 -23.496  0.00  0.00    +0.149 HD
BRANCH  17  19
ATOM     19  C   UNL     1      34.770  -7.807 -25.475  0.00  0.00    +0.091 C 
BRANCH  19  20
ATOM     20  C   UNL     1      34.908  -9.290 -25.385  0.00  0.00    +0.017 C 
ATOM     21  C   UNL     1      34.549 -10.133 -26.574  0.00  0.00    +0.001 C 
ATOM     22  C   UNL     1      35.986  -9.975 -26.173  0.00  0.00    +0.001 C 
ENDBRANCH  19  20
ENDBRANCH  17  19
ENDBRANCH  14  17
ENDBRANCH   8  14
BRANCH  13  23
ATOM     23  O   UNL     1      31.208 -10.958 -19.789  0.00  0.00    -0.470 OA
ATOM     24  C   UNL     1      31.495 -10.470 -18.480  0.00  0.00    +0.253 C 
ENDBRANCH  13  23
ENDBRANCH   2  11
BRANCH   5  25
ATOM     25  C   UNL     1      34.010 -15.896 -23.978  0.00  0.00    +0.036 C 
ATOM     26  C   UNL     1      34.740 -18.037 -23.127  0.00  0.00    +0.002 C 
ATOM     27  C   UNL     1      34.600 -16.659 -22.970  0.00  0.00    +0.003 C 
ATOM     28  C   UNL     1      33.559 -16.515 -25.145  0.00  0.00    +0.003 C 
ATOM     29  C   UNL     1      34.289 -18.654 -24.294  0.00  0.00    +0.000 C 
ATOM     30  C   UNL     1      33.698 -17.893 -25.303  0.00  0.00    +0.000 C 
BRANCH  26  32
ATOM     31  N   UNL     1      37.253 -19.225 -20.640  0.00  0.00    -0.242 NA
ATOM     32  C   UNL     1      35.353 -18.826 -22.082  0.00  0.00    +0.019 C 
ATOM     33  C   UNL     1      34.688 -19.907 -21.515  0.00  0.00    +0.003 C 
ATOM     34  C   UNL     1      36.624 -18.529 -21.613  0.00  0.00    +0.099 C 
ATOM     35  C   UNL     1      35.304 -20.647 -20.512  0.00  0.00    +0.021 C 
ATOM     36  C   UNL     1      36.575 -20.269 -20.114  0.00  0.00    +0.099 C 
ENDBRANCH  26  32
ENDBRANCH   5  25
TORSDOF 8
ENDMDL
MODEL 8
REMARK VINA RESULT:     -10.3      3.018     10.402
REMARK  Name = 4369498
REMARK  8 active torsions:
REMARK  status: ('A' for Active; 'I' for Inactive)
REMARK    1  A    between atoms: N_2  and  C_11
REMARK    2  A    between atoms: C_5  and  C_25
REMARK    3  A    between atoms: C_8  and  S_14
REMARK    4  A    between atoms: C_13  and  O_23
REMARK    5  A    between atoms: S_14  and  N_17
REMARK    6  A    between atoms: N_17  and  C_19
REMARK    7  A    between atoms: C_19  and  C_20
REMARK    8  A    between atoms: C_26  and  C_32
REMARK                            x       y       z     vdW  Elec       q    Type
REMARK                         _______ _______ _______ _____ _____    ______ ____
ROOT
ATOM      1  O   UNL     1      33.447 -11.641 -22.961  0.00  0.00    -0.424 OA
ATOM      2  N   UNL     1      34.176 -13.711 -23.640  0.00  0.00    -0.265 N 
ATOM      3  N   UNL     1      32.036 -13.371 -22.595  0.00  0.00    -0.193 NA
ATOM      4  C   UNL     1      33.197 -12.976 -23.066  0.00  0.00    +0.293 C 
ATOM      5  C   UNL     1      32.324 -11.154 -22.361  0.00  0.00    +0.168 C 
ATOM      6  C   UNL     1      31.472 -12.207 -22.141  0.00  0.00    +0.141 C 
ATOM      7  H   UNL     1      34.968 -13.199 -23.922  0.00  0.00    +0.157 HD
ENDROOT
BRANCH   2  11
ATOM      8  C   UNL     1      34.985 -17.313 -23.247  0.00  0.00    +0.123 C 
ATOM      9  C   UNL     1      34.909 -15.941 -23.002  0.00  0.00    +0.038 C 
ATOM     10  C   UNL     1      34.396 -17.851 -24.391  0.00  0.00    +0.023 C 
ATOM     11  C   UNL     1      34.244 -15.109 -23.901  0.00  0.00    +0.087 C 
ATOM     12  C   UNL     1      33.731 -17.017 -25.291  0.00  0.00    +0.040 C 
ATOM     13  C   UNL     1      33.655 -15.646 -25.046  0.00  0.00    +0.152 C 
BRANCH   8  14
ATOM     14  S   UNL     1      35.820 -18.357 -22.123  0.00  0.00    +0.060 S 
ATOM     15  O   UNL     1      37.118 -18.708 -22.685  0.00  0.00    -0.153 OA
ATOM     16  O   UNL     1      35.757 -17.735 -20.808  0.00  0.00    -0.153 OA
BRANCH  14  17
ATOM     17  N   UNL     1      34.833 -19.752 -22.114  0.00  0.00    -0.179 NA
ATOM     18  H   UNL     1      35.364 -20.492 -22.573  0.00  0.00    +0.149 HD
BRANCH  17  19
ATOM     19  C   UNL     1      34.356 -20.302 -20.836  0.00  0.00    +0.091 C 
BRANCH  19  20
ATOM     20  C   UNL     1      35.167 -21.489 -20.435  0.00  0.00    +0.017 C 
ATOM     21  C   UNL     1      36.028 -21.409 -19.208  0.00  0.00    +0.001 C 
ATOM     22  C   UNL     1      34.788 -22.253 -19.201  0.00  0.00    +0.001 C 
ENDBRANCH  19  20
ENDBRANCH  17  19
ENDBRANCH  14  17
ENDBRANCH   8  14
BRANCH  13  23
ATOM     23  O   UNL     1      33.002 -14.849 -25.938  0.00  0.00    -0.470 OA
ATOM     24  C   UNL     1      33.738 -13.760 -26.492  0.00  0.00    +0.253 C 
ENDBRANCH  13  23
ENDBRANCH   2  11
BRANCH   5  25
ATOM     25  C   UNL     1      32.296  -9.734 -22.113  0.00  0.00    +0.036 C 
ATOM     26  C   UNL     1      32.775  -7.474 -22.822  0.00  0.00    +0.002 C 
ATOM     27  C   UNL     1      32.803  -8.847 -23.063  0.00  0.00    +0.003 C 
ATOM     28  C   UNL     1      31.761  -9.245 -20.920  0.00  0.00    +0.003 C 
ATOM     29  C   UNL     1      32.240  -6.987 -21.629  0.00  0.00    +0.000 C 
ATOM     30  C   UNL     1      31.732  -7.872 -20.679  0.00  0.00    +0.000 C 
BRANCH  26  32
ATOM     31  N   UNL     1      33.088  -4.464 -25.003  0.00  0.00    -0.242 NA
ATOM     32  C   UNL     1      33.301  -6.555 -23.807  0.00  0.00    +0.019 C 
ATOM     33  C   UNL     1      34.476  -6.836 -24.495  0.00  0.00    +0.003 C 
ATOM     34  C   UNL     1      32.650  -5.366 -24.096  0.00  0.00    +0.099 C 
ATOM     35  C   UNL     1      34.957  -5.934 -25.437  0.00  0.00    +0.021 C 
ATOM     36  C   UNL     1      34.232  -4.773 -25.652  0.00  0.00    +0.099 C 
ENDBRANCH  26  32
ENDBRANCH   5  25
TORSDOF 8
ENDMDL
MODEL 9
REMARK VINA RESULT:     -10.1      2.159      4.013
REMARK  Name = 4369498
REMARK  8 active torsions:
REMARK  status: ('A' for Active; 'I' for Inactive)
REMARK    1  A    between atoms: N_2  and  C_11
REMARK    2  A    between atoms: C_5  and  C_25
REMARK    3  A    between atoms: C_8  and  S_14
REMARK    4  A    between atoms: C_13  and  O_23
REMARK    5  A    between atoms: S_14  and  N_17
REMARK    6  A    between atoms: N_17  and  C_19
REMARK    7  A    between atoms: C_19  and  C_20
REMARK    8  A    between atoms: C_26  and  C_32
REMARK                            x       y       z     vdW  Elec       q    Type
REMARK                         _______ _______ _______ _____ _____    ______ ____
ROOT
ATOM      1  O   UNL     1      33.072 -14.339 -23.116  0.00  0.00    -0.424 OA
ATOM      2  N   UNL     1      32.387 -12.230 -22.516  0.00  0.00    -0.265 N 
ATOM      3  N   UNL     1      33.938 -12.626 -24.312  0.00  0.00    -0.193 NA
ATOM      4  C   UNL     1      33.143 -12.997 -23.334  0.00  0.00    +0.293 C 
ATOM      5  C   UNL     1      33.910 -14.860 -24.056  0.00  0.00    +0.168 C 
ATOM      6  C   UNL     1      34.433 -13.817 -24.778  0.00  0.00    +0.141 C 
ATOM      7  H   UNL     1      31.863 -12.728 -21.848  0.00  0.00    +0.157 HD
ENDROOT
BRANCH   2  11
ATOM      8  C   UNL     1      32.519  -8.654 -23.507  0.00  0.00    +0.123 C 
ATOM      9  C   UNL     1      32.665 -10.042 -23.542  0.00  0.00    +0.038 C 
ATOM     10  C   UNL     1      31.935  -8.043 -22.397  0.00  0.00    +0.023 C 
ATOM     11  C   UNL     1      32.229 -10.816 -22.468  0.00  0.00    +0.087 C 
ATOM     12  C   UNL     1      31.499  -8.818 -21.322  0.00  0.00    +0.040 C 
ATOM     13  C   UNL     1      31.645 -10.205 -21.358  0.00  0.00    +0.152 C 
BRANCH   8  14
ATOM     14  S   UNL     1      33.068  -7.683 -24.850  0.00  0.00    +0.060 S 
ATOM     15  O   UNL     1      34.204  -8.347 -25.476  0.00  0.00    -0.153 OA
ATOM     16  O   UNL     1      31.904  -7.345 -25.659  0.00  0.00    -0.153 OA
BRANCH  14  17
ATOM     17  N   UNL     1      33.622  -6.264 -24.076  0.00  0.00    -0.179 NA
ATOM     18  H   UNL     1      34.637  -6.340 -24.011  0.00  0.00    +0.149 HD
BRANCH  17  19
ATOM     19  C   UNL     1      33.332  -4.948 -24.664  0.00  0.00    +0.091 C 
BRANCH  19  20
ATOM     20  C   UNL     1      32.270  -4.244 -23.887  0.00  0.00    +0.017 C 
ATOM     21  C   UNL     1      31.635  -3.011 -24.463  0.00  0.00    +0.001 C 
ATOM     22  C   UNL     1      30.852  -4.288 -24.376  0.00  0.00    +0.001 C 
ENDBRANCH  19  20
ENDBRANCH  17  19
ENDBRANCH  14  17
ENDBRANCH   8  14
BRANCH  13  23
ATOM     23  O   UNL     1      31.214 -10.944 -20.297  0.00  0.00    -0.470 OA
ATOM     24  C   UNL     1      31.321 -10.347 -19.006  0.00  0.00    +0.253 C 
ENDBRANCH  13  23
ENDBRANCH   2  11
BRANCH   5  25
ATOM     25  C   UNL     1      34.044 -16.295 -24.070  0.00  0.00    +0.036 C 
ATOM     26  C   UNL     1      34.812 -18.337 -23.031  0.00  0.00    +0.002 C 
ATOM     27  C   UNL     1      34.684 -16.949 -23.017  0.00  0.00    +0.003 C 
ATOM     28  C   UNL     1      33.531 -17.033 -25.138  0.00  0.00    +0.003 C 
ATOM     29  C   UNL     1      34.300 -19.073 -24.100  0.00  0.00    +0.000 C 
ATOM     30  C   UNL     1      33.660 -18.421 -25.153  0.00  0.00    +0.000 C 
BRANCH  26  32
ATOM     31  N   UNL     1      37.358 -19.136 -20.424  0.00  0.00    -0.242 NA
ATOM     32  C   UNL     1      35.477 -19.014 -21.939  0.00  0.00    +0.019 C 
ATOM     33  C   UNL     1      34.925 -20.148 -21.355  0.00  0.00    +0.003 C 
ATOM     34  C   UNL     1      36.685 -18.552 -21.441  0.00  0.00    +0.099 C 
ATOM     35  C   UNL     1      35.587 -20.777 -20.308  0.00  0.00    +0.021 C 
ATOM     36  C   UNL     1      36.790 -20.236 -19.883  0.00  0.00    +0.099 C 
ENDBRANCH  26  32
ENDBRANCH   5  25
TORSDOF 8
ENDMDL
