MODEL 1
REMARK VINA RESULT:     -12.4      0.000      0.000
REMARK  Name = 32778
REMARK  7 active torsions:
REMARK  status: ('A' for Active; 'I' for Inactive)
REMARK    1  A    between atoms: C_1  and  S_7
REMARK    2  A    between atoms: C_2  and  C_23
REMARK    3  A    between atoms: S_7  and  N_12
REMARK    4  A    between atoms: N_11  and  N_16
REMARK    5  A    between atoms: C_23  and  C_24
REMARK    6  A    between atoms: C_24  and  N_26
REMARK    7  A    between atoms: C_27  and  C_31
REMARK                            x       y       z     vdW  Elec       q    Type
REMARK                         _______ _______ _______ _____ _____    ______ ____
ROOT
ATOM      1  C   UNL     1      34.239 -21.432 -19.925  0.00  0.00    +0.125 C 
ATOM      2  C   UNL     1      35.291 -19.432 -21.559  0.00  0.00    -0.020 C 
ATOM      3  C   UNL     1      33.384 -20.616 -20.666  0.00  0.00    +0.020 C 
ATOM      4  C   UNL     1      35.619 -21.247 -20.000  0.00  0.00    +0.020 C 
ATOM      5  C   UNL     1      33.911 -19.616 -21.484  0.00  0.00    -0.003 C 
ATOM      6  C   UNL     1      36.146 -20.248 -20.817  0.00  0.00    -0.003 C 
ENDROOT
BRANCH   1   7
ATOM      7  S   UNL     1      33.571 -22.698 -18.887  0.00  0.00    +0.077 S 
ATOM      8  O   UNL     1      33.792 -23.976 -19.535  0.00  0.00    -0.150 OA
ATOM      9  O   UNL     1      32.229 -22.280 -18.527  0.00  0.00    -0.150 OA
BRANCH   7  12
ATOM     10  O   UNL     1      34.106 -24.617 -16.507  0.00  0.00    -0.250 OA
ATOM     11  N   UNL     1      35.619 -23.171 -15.520  0.00  0.00    -0.230 N 
ATOM     12  N   UNL     1      34.588 -22.570 -17.520  0.00  0.00    -0.168 N 
ATOM     13  C   UNL     1      34.726 -23.557 -16.493  0.00  0.00    +0.333 C 
ATOM     14  H   UNL     1      36.078 -22.301 -15.581  0.00  0.00    +0.171 HD
ATOM     15  H   UNL     1      35.124 -21.748 -17.431  0.00  0.00    +0.178 HD
BRANCH  11  16
ATOM     16  N   UNL     1      35.866 -24.022 -14.453  0.00  0.00    -0.205 NA
ATOM     17  C   UNL     1      37.659 -24.760 -11.909  0.00  0.00    +0.002 C 
ATOM     18  C   UNL     1      37.678 -26.108 -12.619  0.00  0.00    +0.002 C 
ATOM     19  C   UNL     1      36.325 -24.026 -11.965  0.00  0.00    +0.019 C 
ATOM     20  C   UNL     1      36.905 -26.213 -13.929  0.00  0.00    +0.019 C 
ATOM     21  C   UNL     1      36.135 -23.224 -13.256  0.00  0.00    +0.092 C 
ATOM     22  C   UNL     1      36.929 -24.966 -14.812  0.00  0.00    +0.092 C 
ENDBRANCH  11  16
ENDBRANCH   7  12
ENDBRANCH   1   7
BRANCH   2  23
ATOM     23  C   UNL     1      35.854 -18.363 -22.434  0.00  0.00    +0.048 C 
BRANCH  23  24
ATOM     24  C   UNL     1      35.046 -18.134 -23.718  0.00  0.00    +0.094 C 
BRANCH  24  26
ATOM     25  O   UNL     1      33.174 -17.069 -25.567  0.00  0.00    -0.268 OA
ATOM     26  N   UNL     1      34.807 -16.739 -23.973  0.00  0.00    -0.299 N 
ATOM     27  C   UNL     1      33.866 -16.299 -24.902  0.00  0.00    +0.267 C 
ATOM     28  H   UNL     1      35.327 -16.069 -23.472  0.00  0.00    +0.150 HD
BRANCH  27  31
ATOM     29  O   UNL     1      33.459 -12.951 -26.071  0.00  0.00    -0.358 OA
ATOM     30  N   UNL     1      33.479 -14.327 -26.267  0.00  0.00    -0.073 NA
ATOM     31  C   UNL     1      33.764 -14.842 -25.068  0.00  0.00    +0.176 C 
ATOM     32  C   UNL     1      33.933 -13.851 -24.086  0.00  0.00    +0.063 C 
ATOM     33  C   UNL     1      33.731 -12.680 -24.768  0.00  0.00    +0.155 C 
ATOM     34  C   UNL     1      33.750 -11.263 -24.383  0.00  0.00    +0.075 C 
ENDBRANCH  27  31
ENDBRANCH  24  26
ENDBRANCH  23  24
ENDBRANCH   2  23
TORSDOF 7
ENDMDL
MODEL 2
REMARK VINA RESULT:     -11.5      1.377      1.871
REMARK  Name = 32778
REMARK  7 active torsions:
REMARK  status: ('A' for Active; 'I' for Inactive)
REMARK    1  A    between atoms: C_1  and  S_7
REMARK    2  A    between atoms: C_2  and  C_23
REMARK    3  A    between atoms: S_7  and  N_12
REMARK    4  A    between atoms: N_11  and  N_16
REMARK    5  A    between atoms: C_23  and  C_24
REMARK    6  A    between atoms: C_24  and  N_26
REMARK    7  A    between atoms: C_27  and  C_31
REMARK                            x       y       z     vdW  Elec       q    Type
REMARK                         _______ _______ _______ _____ _____    ______ ____
ROOT
ATOM      1  C   UNL     1      33.803 -21.875 -19.359  0.00  0.00    +0.125 C 
ATOM      2  C   UNL     1      34.979 -20.097 -21.159  0.00  0.00    -0.020 C 
ATOM      3  C   UNL     1      35.192 -21.809 -19.468  0.00  0.00    +0.020 C 
ATOM      4  C   UNL     1      33.002 -21.052 -20.151  0.00  0.00    +0.020 C 
ATOM      5  C   UNL     1      35.780 -20.920 -20.367  0.00  0.00    -0.003 C 
ATOM      6  C   UNL     1      33.590 -20.163 -21.050  0.00  0.00    -0.003 C 
ENDROOT
BRANCH   1   7
ATOM      7  S   UNL     1      33.059 -23.003 -18.220  0.00  0.00    +0.077 S 
ATOM      8  O   UNL     1      33.432 -24.349 -18.608  0.00  0.00    -0.150 OA
ATOM      9  O   UNL     1      31.661 -22.629 -18.112  0.00  0.00    -0.150 OA
BRANCH   7  12
ATOM     10  O   UNL     1      34.924 -24.620 -16.338  0.00  0.00    -0.250 OA
ATOM     11  N   UNL     1      35.215 -22.839 -14.891  0.00  0.00    -0.230 N 
ATOM     12  N   UNL     1      33.867 -22.586 -16.773  0.00  0.00    -0.168 N 
ATOM     13  C   UNL     1      34.704 -23.458 -16.008  0.00  0.00    +0.333 C 
ATOM     14  H   UNL     1      34.991 -21.900 -14.694  0.00  0.00    +0.171 HD
ATOM     15  H   UNL     1      33.745 -21.668 -16.436  0.00  0.00    +0.178 HD
BRANCH  11  16
ATOM     16  N   UNL     1      36.050 -23.553 -14.044  0.00  0.00    -0.205 NA
ATOM     17  C   UNL     1      37.847 -26.150 -13.536  0.00  0.00    +0.002 C 
ATOM     18  C   UNL     1      37.003 -26.186 -12.268  0.00  0.00    +0.002 C 
ATOM     19  C   UNL     1      38.275 -24.757 -13.980  0.00  0.00    +0.019 C 
ATOM     20  C   UNL     1      35.974 -25.076 -12.088  0.00  0.00    +0.019 C 
ATOM     21  C   UNL     1      37.205 -24.035 -14.805  0.00  0.00    +0.092 C 
ATOM     22  C   UNL     1      35.282 -24.601 -13.365  0.00  0.00    +0.092 C 
ENDBRANCH  11  16
ENDBRANCH   7  12
ENDBRANCH   1   7
BRANCH   2  23
ATOM     23  C   UNL     1      35.608 -19.146 -22.120  0.00  0.00    +0.048 C 
BRANCH  23  24
ATOM     24  C   UNL     1      35.385 -17.672 -21.758  0.00  0.00    +0.094 C 
BRANCH  24  26
ATOM     25  O   UNL     1      34.360 -15.027 -21.687  0.00  0.00    -0.268 OA
ATOM     26  N   UNL     1      35.009 -16.879 -22.897  0.00  0.00    -0.299 N 
ATOM     27  C   UNL     1      34.512 -15.583 -22.774  0.00  0.00    +0.267 C 
ATOM     28  H   UNL     1      35.107 -17.266 -23.798  0.00  0.00    +0.150 HD
BRANCH  27  31
ATOM     29  O   UNL     1      33.556 -14.720 -26.104  0.00  0.00    -0.358 OA
ATOM     30  N   UNL     1      33.857 -15.648 -25.113  0.00  0.00    -0.073 NA
ATOM     31  C   UNL     1      34.143 -14.918 -24.032  0.00  0.00    +0.176 C 
ATOM     32  C   UNL     1      34.040 -13.537 -24.276  0.00  0.00    +0.063 C 
ATOM     33  C   UNL     1      33.669 -13.467 -25.593  0.00  0.00    +0.155 C 
ATOM     34  C   UNL     1      33.384 -12.357 -26.510  0.00  0.00    +0.075 C 
ENDBRANCH  27  31
ENDBRANCH  24  26
ENDBRANCH  23  24
ENDBRANCH   2  23
TORSDOF 7
ENDMDL
MODEL 3
REMARK VINA RESULT:     -11.4      1.779      2.040
REMARK  Name = 32778
REMARK  7 active torsions:
REMARK  status: ('A' for Active; 'I' for Inactive)
REMARK    1  A    between atoms: C_1  and  S_7
REMARK    2  A    between atoms: C_2  and  C_23
REMARK    3  A    between atoms: S_7  and  N_12
REMARK    4  A    between atoms: N_11  and  N_16
REMARK    5  A    between atoms: C_23  and  C_24
REMARK    6  A    between atoms: C_24  and  N_26
REMARK    7  A    between atoms: C_27  and  C_31
REMARK                            x       y       z     vdW  Elec       q    Type
REMARK                         _______ _______ _______ _____ _____    ______ ____
ROOT
ATOM      1  C   UNL     1      33.663 -21.801 -19.470  0.00  0.00    +0.125 C 
ATOM      2  C   UNL     1      34.535 -19.935 -21.350  0.00  0.00    -0.020 C 
ATOM      3  C   UNL     1      32.734 -21.036 -20.175  0.00  0.00    +0.020 C 
ATOM      4  C   UNL     1      35.028 -21.633 -19.704  0.00  0.00    +0.020 C 
ATOM      5  C   UNL     1      33.170 -20.103 -21.116  0.00  0.00    -0.003 C 
ATOM      6  C   UNL     1      35.464 -20.700 -20.645  0.00  0.00    -0.003 C 
ENDROOT
BRANCH   1   7
ATOM      7  S   UNL     1      33.110 -22.982 -18.276  0.00  0.00    +0.077 S 
ATOM      8  O   UNL     1      33.501 -24.302 -18.732  0.00  0.00    -0.150 OA
ATOM      9  O   UNL     1      31.717 -22.681 -18.003  0.00  0.00    -0.150 OA
BRANCH   7  12
ATOM     10  O   UNL     1      34.807 -24.665 -16.295  0.00  0.00    -0.250 OA
ATOM     11  N   UNL     1      35.457 -22.807 -15.080  0.00  0.00    -0.230 N 
ATOM     12  N   UNL     1      34.056 -22.546 -16.922  0.00  0.00    -0.168 N 
ATOM     13  C   UNL     1      34.791 -23.453 -16.095  0.00  0.00    +0.333 C 
ATOM     14  H   UNL     1      35.394 -21.828 -14.985  0.00  0.00    +0.171 HD
ATOM     15  H   UNL     1      34.100 -21.589 -16.690  0.00  0.00    +0.178 HD
BRANCH  11  16
ATOM     16  N   UNL     1      36.219 -23.550 -14.190  0.00  0.00    -0.205 NA
ATOM     17  C   UNL     1      37.885 -26.213 -13.586  0.00  0.00    +0.002 C 
ATOM     18  C   UNL     1      36.975 -26.213 -12.364  0.00  0.00    +0.002 C 
ATOM     19  C   UNL     1      38.389 -24.838 -14.008  0.00  0.00    +0.019 C 
ATOM     20  C   UNL     1      35.982 -25.063 -12.239  0.00  0.00    +0.019 C 
ATOM     21  C   UNL     1      37.392 -24.078 -14.888  0.00  0.00    +0.092 C 
ATOM     22  C   UNL     1      35.377 -24.566 -13.551  0.00  0.00    +0.092 C 
ENDBRANCH  11  16
ENDBRANCH   7  12
ENDBRANCH   1   7
BRANCH   2  23
ATOM     23  C   UNL     1      35.001 -18.938 -22.357  0.00  0.00    +0.048 C 
BRANCH  23  24
ATOM     24  C   UNL     1      35.643 -17.691 -21.735  0.00  0.00    +0.094 C 
BRANCH  24  26
ATOM     25  O   UNL     1      35.381 -15.659 -23.697  0.00  0.00    -0.268 OA
ATOM     26  N   UNL     1      34.736 -16.577 -21.682  0.00  0.00    -0.299 N 
ATOM     27  C   UNL     1      34.671 -15.619 -22.693  0.00  0.00    +0.267 C 
ATOM     28  H   UNL     1      34.139 -16.487 -20.905  0.00  0.00    +0.150 HD
BRANCH  27  31
ATOM     29  O   UNL     1      32.359 -12.913 -22.966  0.00  0.00    -0.358 OA
ATOM     30  N   UNL     1      33.213 -13.861 -23.520  0.00  0.00    -0.073 NA
ATOM     31  C   UNL     1      33.714 -14.525 -22.475  0.00  0.00    +0.176 C 
ATOM     32  C   UNL     1      33.218 -14.047 -21.249  0.00  0.00    +0.063 C 
ATOM     33  C   UNL     1      32.372 -13.034 -21.614  0.00  0.00    +0.155 C 
ATOM     34  C   UNL     1      31.518 -12.103 -20.864  0.00  0.00    +0.075 C 
ENDBRANCH  27  31
ENDBRANCH  24  26
ENDBRANCH  23  24
ENDBRANCH   2  23
TORSDOF 7
ENDMDL
MODEL 4
REMARK VINA RESULT:     -11.0      3.347     12.304
REMARK  Name = 32778
REMARK  7 active torsions:
REMARK  status: ('A' for Active; 'I' for Inactive)
REMARK    1  A    between atoms: C_1  and  S_7
REMARK    2  A    between atoms: C_2  and  C_23
REMARK    3  A    between atoms: S_7  and  N_12
REMARK    4  A    between atoms: N_11  and  N_16
REMARK    5  A    between atoms: C_23  and  C_24
REMARK    6  A    between atoms: C_24  and  N_26
REMARK    7  A    between atoms: C_27  and  C_31
REMARK                            x       y       z     vdW  Elec       q    Type
REMARK                         _______ _______ _______ _____ _____    ______ ____
ROOT
ATOM      1  C   UNL     1      34.648 -17.747 -23.425  0.00  0.00    +0.125 C 
ATOM      2  C   UNL     1      35.493 -19.516 -21.441  0.00  0.00    -0.020 C 
ATOM      3  C   UNL     1      35.622 -17.352 -22.507  0.00  0.00    +0.020 C 
ATOM      4  C   UNL     1      34.096 -19.025 -23.350  0.00  0.00    +0.020 C 
ATOM      5  C   UNL     1      36.045 -18.237 -21.516  0.00  0.00    -0.003 C 
ATOM      6  C   UNL     1      34.519 -19.911 -22.359  0.00  0.00    -0.003 C 
ENDROOT
BRANCH   1   7
ATOM      7  S   UNL     1      34.112 -16.623 -24.680  0.00  0.00    +0.077 S 
ATOM      8  O   UNL     1      32.828 -17.079 -25.176  0.00  0.00    -0.150 OA
ATOM      9  O   UNL     1      35.229 -16.445 -25.589  0.00  0.00    -0.150 OA
BRANCH   7  12
ATOM     10  O   UNL     1      33.058 -13.806 -25.448  0.00  0.00    -0.250 OA
ATOM     11  N   UNL     1      33.327 -12.984 -23.302  0.00  0.00    -0.230 N 
ATOM     12  N   UNL     1      33.893 -15.195 -23.768  0.00  0.00    -0.168 N 
ATOM     13  C   UNL     1      33.389 -13.955 -24.275  0.00  0.00    +0.333 C 
ATOM     14  H   UNL     1      33.613 -13.182 -22.381  0.00  0.00    +0.171 HD
ATOM     15  H   UNL     1      34.135 -15.227 -22.814  0.00  0.00    +0.178 HD
BRANCH  11  16
ATOM     16  N   UNL     1      32.857 -11.723 -23.635  0.00  0.00    -0.205 NA
ATOM     17  C   UNL     1      33.366  -8.567 -23.770  0.00  0.00    +0.002 C 
ATOM     18  C   UNL     1      32.022  -8.567 -23.052  0.00  0.00    +0.002 C 
ATOM     19  C   UNL     1      33.502  -9.611 -24.871  0.00  0.00    +0.019 C 
ATOM     20  C   UNL     1      31.380  -9.923 -22.779  0.00  0.00    +0.019 C 
ATOM     21  C   UNL     1      33.908 -10.991 -24.344  0.00  0.00    +0.092 C 
ATOM     22  C   UNL     1      32.348 -11.054 -22.434  0.00  0.00    +0.092 C 
ENDBRANCH  11  16
ENDBRANCH   7  12
ENDBRANCH   1   7
BRANCH   2  23
ATOM     23  C   UNL     1      35.946 -20.463 -20.381  0.00  0.00    +0.048 C 
BRANCH  23  24
ATOM     24  C   UNL     1      35.359 -21.873 -20.527  0.00  0.00    +0.094 C 
BRANCH  24  26
ATOM     25  O   UNL     1      32.618 -22.242 -19.892  0.00  0.00    -0.268 OA
ATOM     26  N   UNL     1      34.839 -22.379 -19.286  0.00  0.00    -0.299 N 
ATOM     27  C   UNL     1      33.473 -22.530 -19.055  0.00  0.00    +0.267 C 
ATOM     28  H   UNL     1      35.471 -22.630 -18.573  0.00  0.00    +0.150 HD
BRANCH  27  31
ATOM     29  O   UNL     1      33.352 -23.920 -15.769  0.00  0.00    -0.358 OA
ATOM     30  N   UNL     1      34.033 -23.557 -16.926  0.00  0.00    -0.073 NA
ATOM     31  C   UNL     1      33.101 -23.030 -17.724  0.00  0.00    +0.176 C 
ATOM     32  C   UNL     1      31.826 -23.033 -17.131  0.00  0.00    +0.063 C 
ATOM     33  C   UNL     1      32.039 -23.603 -15.904  0.00  0.00    +0.155 C 
ATOM     34  C   UNL     1      31.167 -23.920 -14.766  0.00  0.00    +0.075 C 
ENDBRANCH  27  31
ENDBRANCH  24  26
ENDBRANCH  23  24
ENDBRANCH   2  23
TORSDOF 7
ENDMDL
MODEL 5
REMARK VINA RESULT:     -10.9      2.551     11.980
REMARK  Name = 32778
REMARK  7 active torsions:
REMARK  status: ('A' for Active; 'I' for Inactive)
REMARK    1  A    between atoms: C_1  and  S_7
REMARK    2  A    between atoms: C_2  and  C_23
REMARK    3  A    between atoms: S_7  and  N_12
REMARK    4  A    between atoms: N_11  and  N_16
REMARK    5  A    between atoms: C_23  and  C_24
REMARK    6  A    between atoms: C_24  and  N_26
REMARK    7  A    between atoms: C_27  and  C_31
REMARK                            x       y       z     vdW  Elec       q    Type
REMARK                         _______ _______ _______ _____ _____    ______ ____
ROOT
ATOM      1  C   UNL     1      35.277 -19.999 -20.992  0.00  0.00    +0.125 C 
ATOM      2  C   UNL     1      33.890 -21.893 -19.487  0.00  0.00    -0.020 C 
ATOM      3  C   UNL     1      35.979 -20.940 -20.239  0.00  0.00    +0.020 C 
ATOM      4  C   UNL     1      33.882 -20.004 -20.992  0.00  0.00    +0.020 C 
ATOM      5  C   UNL     1      35.285 -21.888 -19.487  0.00  0.00    -0.003 C 
ATOM      6  C   UNL     1      33.188 -20.952 -20.240  0.00  0.00    -0.003 C 
ENDROOT
BRANCH   1   7
ATOM      7  S   UNL     1      36.157 -18.797 -21.944  0.00  0.00    +0.077 S 
ATOM      8  O   UNL     1      35.864 -19.027 -23.345  0.00  0.00    -0.150 OA
ATOM      9  O   UNL     1      37.528 -18.807 -21.469  0.00  0.00    -0.150 OA
BRANCH   7  12
ATOM     10  O   UNL     1      34.582 -16.616 -23.494  0.00  0.00    -0.250 OA
ATOM     11  N   UNL     1      34.190 -15.367 -21.587  0.00  0.00    -0.230 N 
ATOM     12  N   UNL     1      35.395 -17.355 -21.435  0.00  0.00    -0.168 N 
ATOM     13  C   UNL     1      34.698 -16.439 -22.285  0.00  0.00    +0.333 C 
ATOM     14  H   UNL     1      34.326 -15.296 -20.614  0.00  0.00    +0.171 HD
ATOM     15  H   UNL     1      35.439 -17.135 -20.475  0.00  0.00    +0.178 HD
BRANCH  11  16
ATOM     16  N   UNL     1      33.484 -14.389 -22.270  0.00  0.00    -0.205 NA
ATOM     17  C   UNL     1      33.369 -11.405 -23.419  0.00  0.00    +0.002 C 
ATOM     18  C   UNL     1      32.050 -11.424 -22.658  0.00  0.00    +0.002 C 
ATOM     19  C   UNL     1      33.709 -12.702 -24.143  0.00  0.00    +0.019 C 
ATOM     20  C   UNL     1      31.683 -12.715 -21.935  0.00  0.00    +0.019 C 
ATOM     21  C   UNL     1      34.374 -13.741 -23.235  0.00  0.00    +0.092 C 
ATOM     22  C   UNL     1      32.852 -13.477 -21.311  0.00  0.00    +0.092 C 
ENDBRANCH  11  16
ENDBRANCH   7  12
ENDBRANCH   1   7
BRANCH   2  23
ATOM     23  C   UNL     1      33.148 -22.908 -18.683  0.00  0.00    +0.048 C 
BRANCH  23  24
ATOM     24  C   UNL     1      33.462 -22.849 -17.183  0.00  0.00    +0.094 C 
BRANCH  24  26
ATOM     25  O   UNL     1      33.734 -24.436 -14.846  0.00  0.00    -0.268 OA
ATOM     26  N   UNL     1      34.605 -23.649 -16.831  0.00  0.00    -0.299 N 
ATOM     27  C   UNL     1      34.657 -24.401 -15.659  0.00  0.00    +0.267 C 
ATOM     28  H   UNL     1      35.378 -23.665 -17.440  0.00  0.00    +0.150 HD
BRANCH  27  31
ATOM     29  O   UNL     1      37.277 -26.812 -15.396  0.00  0.00    -0.358 OA
ATOM     30  N   UNL     1      35.980 -26.437 -15.732  0.00  0.00    -0.073 NA
ATOM     31  C   UNL     1      35.908 -25.139 -15.429  0.00  0.00    +0.176 C 
ATOM     32  C   UNL     1      37.114 -24.643 -14.904  0.00  0.00    +0.063 C 
ATOM     33  C   UNL     1      37.941 -25.735 -14.904  0.00  0.00    +0.155 C 
ATOM     34  C   UNL     1      39.335 -25.954 -14.497  0.00  0.00    +0.075 C 
ENDBRANCH  27  31
ENDBRANCH  24  26
ENDBRANCH  23  24
ENDBRANCH   2  23
TORSDOF 7
ENDMDL
MODEL 6
REMARK VINA RESULT:     -10.6      4.109     13.680
REMARK  Name = 32778
REMARK  7 active torsions:
REMARK  status: ('A' for Active; 'I' for Inactive)
REMARK    1  A    between atoms: C_1  and  S_7
REMARK    2  A    between atoms: C_2  and  C_23
REMARK    3  A    between atoms: S_7  and  N_12
REMARK    4  A    between atoms: N_11  and  N_16
REMARK    5  A    between atoms: C_23  and  C_24
REMARK    6  A    between atoms: C_24  and  N_26
REMARK    7  A    between atoms: C_27  and  C_31
REMARK                            x       y       z     vdW  Elec       q    Type
REMARK                         _______ _______ _______ _____ _____    ______ ____
ROOT
ATOM      1  C   UNL     1      34.029 -14.816 -24.653  0.00  0.00    +0.125 C 
ATOM      2  C   UNL     1      34.919 -16.656 -22.755  0.00  0.00    -0.020 C 
ATOM      3  C   UNL     1      34.385 -16.106 -25.046  0.00  0.00    +0.020 C 
ATOM      4  C   UNL     1      34.119 -14.445 -23.312  0.00  0.00    +0.020 C 
ATOM      5  C   UNL     1      34.829 -17.026 -24.097  0.00  0.00    -0.003 C 
ATOM      6  C   UNL     1      34.563 -15.365 -22.362  0.00  0.00    -0.003 C 
ENDROOT
BRANCH   1   7
ATOM      7  S   UNL     1      33.467 -13.650 -25.858  0.00  0.00    +0.077 S 
ATOM      8  O   UNL     1      32.033 -13.806 -26.003  0.00  0.00    -0.150 OA
ATOM      9  O   UNL     1      34.342 -13.782 -27.009  0.00  0.00    -0.150 OA
BRANCH   7  12
ATOM     10  O   UNL     1      33.085 -10.692 -26.718  0.00  0.00    -0.250 OA
ATOM     11  N   UNL     1      33.934  -9.873 -24.727  0.00  0.00    -0.230 N 
ATOM     12  N   UNL     1      33.800 -12.174 -25.063  0.00  0.00    -0.168 N 
ATOM     13  C   UNL     1      33.565 -10.869 -25.601  0.00  0.00    +0.333 C 
ATOM     14  H   UNL     1      34.313 -10.098 -23.846  0.00  0.00    +0.171 HD
ATOM     15  H   UNL     1      34.187 -12.225 -24.158  0.00  0.00    +0.178 HD
BRANCH  11  16
ATOM     16  N   UNL     1      33.766  -8.549 -25.102  0.00  0.00    -0.205 NA
ATOM     17  C   UNL     1      33.825  -5.454 -24.292  0.00  0.00    +0.002 C 
ATOM     18  C   UNL     1      32.443  -5.513 -24.929  0.00  0.00    +0.002 C 
ATOM     19  C   UNL     1      34.891  -6.284 -24.998  0.00  0.00    +0.019 C 
ATOM     20  C   UNL     1      31.990  -6.859 -25.484  0.00  0.00    +0.019 C 
ATOM     21  C   UNL     1      34.880  -7.757 -24.578  0.00  0.00    +0.092 C 
ATOM     22  C   UNL     1      32.437  -8.085 -24.689  0.00  0.00    +0.092 C 
ENDBRANCH  11  16
ENDBRANCH   7  12
ENDBRANCH   1   7
BRANCH   2  23
ATOM     23  C   UNL     1      35.393 -17.640 -21.740  0.00  0.00    +0.048 C 
BRANCH  23  24
ATOM     24  C   UNL     1      35.244 -19.101 -22.186  0.00  0.00    +0.094 C 
BRANCH  24  26
ATOM     25  O   UNL     1      36.201 -21.102 -20.417  0.00  0.00    -0.268 OA
ATOM     26  N   UNL     1      34.447 -19.874 -21.272  0.00  0.00    -0.299 N 
ATOM     27  C   UNL     1      34.998 -20.841 -20.434  0.00  0.00    +0.267 C 
ATOM     28  H   UNL     1      33.476 -19.713 -21.236  0.00  0.00    +0.150 HD
BRANCH  27  31
ATOM     29  O   UNL     1      32.136 -22.221 -18.808  0.00  0.00    -0.358 OA
ATOM     30  N   UNL     1      32.733 -21.405 -19.763  0.00  0.00    -0.073 NA
ATOM     31  C   UNL     1      34.046 -21.566 -19.581  0.00  0.00    +0.176 C 
ATOM     32  C   UNL     1      34.336 -22.462 -18.537  0.00  0.00    +0.063 C 
ATOM     33  C   UNL     1      33.101 -22.844 -18.084  0.00  0.00    +0.155 C 
ATOM     34  C   UNL     1      32.644 -23.750 -17.023  0.00  0.00    +0.075 C 
ENDBRANCH  27  31
ENDBRANCH  24  26
ENDBRANCH  23  24
ENDBRANCH   2  23
TORSDOF 7
ENDMDL
MODEL 7
REMARK VINA RESULT:     -10.5      3.316      3.822
REMARK  Name = 32778
REMARK  7 active torsions:
REMARK  status: ('A' for Active; 'I' for Inactive)
REMARK    1  A    between atoms: C_1  and  S_7
REMARK    2  A    between atoms: C_2  and  C_23
REMARK    3  A    between atoms: S_7  and  N_12
REMARK    4  A    between atoms: N_11  and  N_16
REMARK    5  A    between atoms: C_23  and  C_24
REMARK    6  A    between atoms: C_24  and  N_26
REMARK    7  A    between atoms: C_27  and  C_31
REMARK                            x       y       z     vdW  Elec       q    Type
REMARK                         _______ _______ _______ _____ _____    ______ ____
ROOT
ATOM      1  C   UNL     1      34.877 -21.139 -20.242  0.00  0.00    +0.125 C 
ATOM      2  C   UNL     1      35.356 -18.837 -21.741  0.00  0.00    -0.020 C 
ATOM      3  C   UNL     1      33.830 -20.524 -20.928  0.00  0.00    +0.020 C 
ATOM      4  C   UNL     1      36.163 -20.604 -20.305  0.00  0.00    +0.020 C 
ATOM      5  C   UNL     1      34.070 -19.373 -21.678  0.00  0.00    -0.003 C 
ATOM      6  C   UNL     1      36.403 -19.453 -21.056  0.00  0.00    -0.003 C 
ENDROOT
BRANCH   1   7
ATOM      7  S   UNL     1      34.572 -22.598 -19.290  0.00  0.00    +0.077 S 
ATOM      8  O   UNL     1      35.533 -22.638 -18.206  0.00  0.00    -0.150 OA
ATOM      9  O   UNL     1      34.477 -23.699 -20.230  0.00  0.00    -0.150 OA
BRANCH   7  12
ATOM     10  O   UNL     1      32.930 -23.889 -16.994  0.00  0.00    -0.250 OA
ATOM     11  N   UNL     1      31.140 -22.454 -17.300  0.00  0.00    -0.230 N 
ATOM     12  N   UNL     1      33.020 -22.258 -18.661  0.00  0.00    -0.168 N 
ATOM     13  C   UNL     1      32.390 -22.955 -17.582  0.00  0.00    +0.333 C 
ATOM     14  H   UNL     1      30.776 -21.701 -17.819  0.00  0.00    +0.171 HD
ATOM     15  H   UNL     1      32.516 -21.520 -19.076  0.00  0.00    +0.178 HD
BRANCH  11  16
ATOM     16  N   UNL     1      30.400 -23.024 -16.275  0.00  0.00    -0.205 NA
ATOM     17  C   UNL     1      30.239 -25.114 -13.859  0.00  0.00    +0.002 C 
ATOM     18  C   UNL     1      28.975 -25.513 -14.609  0.00  0.00    +0.002 C 
ATOM     19  C   UNL     1      30.513 -23.616 -13.817  0.00  0.00    +0.019 C 
ATOM     20  C   UNL     1      28.645 -24.732 -15.877  0.00  0.00    +0.019 C 
ATOM     21  C   UNL     1      31.228 -23.101 -15.070  0.00  0.00    +0.092 C 
ATOM     22  C   UNL     1      29.845 -24.306 -16.722  0.00  0.00    +0.092 C 
ENDBRANCH  11  16
ENDBRANCH   7  12
ENDBRANCH   1   7
BRANCH   2  23
ATOM     23  C   UNL     1      35.612 -17.606 -22.544  0.00  0.00    +0.048 C 
BRANCH  23  24
ATOM     24  C   UNL     1      34.475 -17.259 -23.513  0.00  0.00    +0.094 C 
BRANCH  24  26
ATOM     25  O   UNL     1      33.466 -16.033 -25.865  0.00  0.00    -0.268 OA
ATOM     26  N   UNL     1      34.374 -15.844 -23.754  0.00  0.00    -0.299 N 
ATOM     27  C   UNL     1      33.864 -15.324 -24.942  0.00  0.00    +0.267 C 
ATOM     28  H   UNL     1      34.675 -15.221 -23.054  0.00  0.00    +0.150 HD
BRANCH  27  31
ATOM     29  O   UNL     1      34.064 -11.798 -24.422  0.00  0.00    -0.358 OA
ATOM     30  N   UNL     1      34.165 -13.113 -23.981  0.00  0.00    -0.073 NA
ATOM     31  C   UNL     1      33.858 -13.858 -25.046  0.00  0.00    +0.176 C 
ATOM     32  C   UNL     1      33.558 -13.077 -26.176  0.00  0.00    +0.063 C 
ATOM     33  C   UNL     1      33.701 -11.790 -25.730  0.00  0.00    +0.155 C 
ATOM     34  C   UNL     1      33.548 -10.473 -26.361  0.00  0.00    +0.075 C 
ENDBRANCH  27  31
ENDBRANCH  24  26
ENDBRANCH  23  24
ENDBRANCH   2  23
TORSDOF 7
ENDMDL
MODEL 8
REMARK VINA RESULT:     -10.2      3.061      4.147
REMARK  Name = 32778
REMARK  7 active torsions:
REMARK  status: ('A' for Active; 'I' for Inactive)
REMARK    1  A    between atoms: C_1  and  S_7
REMARK    2  A    between atoms: C_2  and  C_23
REMARK    3  A    between atoms: S_7  and  N_12
REMARK    4  A    between atoms: N_11  and  N_16
REMARK    5  A    between atoms: C_23  and  C_24
REMARK    6  A    between atoms: C_24  and  N_26
REMARK    7  A    between atoms: C_27  and  C_31
REMARK                            x       y       z     vdW  Elec       q    Type
REMARK                         _______ _______ _______ _____ _____    ______ ____
ROOT
ATOM      1  C   UNL     1      35.316 -20.280 -20.981  0.00  0.00    +0.125 C 
ATOM      2  C   UNL     1      34.836 -18.338 -22.924  0.00  0.00    -0.020 C 
ATOM      3  C   UNL     1      34.072 -20.214 -21.608  0.00  0.00    +0.020 C 
ATOM      4  C   UNL     1      36.320 -19.375 -21.325  0.00  0.00    +0.020 C 
ATOM      5  C   UNL     1      33.832 -19.243 -22.580  0.00  0.00    -0.003 C 
ATOM      6  C   UNL     1      36.080 -18.404 -22.297  0.00  0.00    -0.003 C 
ENDROOT
BRANCH   1   7
ATOM      7  S   UNL     1      35.618 -21.511 -19.748  0.00  0.00    +0.077 S 
ATOM      8  O   UNL     1      36.472 -20.930 -18.730  0.00  0.00    -0.150 OA
ATOM      9  O   UNL     1      36.023 -22.716 -20.448  0.00  0.00    -0.150 OA
BRANCH   7  12
ATOM     10  O   UNL     1      34.491 -23.457 -17.608  0.00  0.00    -0.250 OA
ATOM     11  N   UNL     1      32.341 -22.625 -17.804  0.00  0.00    -0.230 N 
ATOM     12  N   UNL     1      34.047 -21.729 -19.112  0.00  0.00    -0.168 N 
ATOM     13  C   UNL     1      33.680 -22.685 -18.113  0.00  0.00    +0.333 C 
ATOM     14  H   UNL     1      31.753 -21.976 -18.255  0.00  0.00    +0.171 HD
ATOM     15  H   UNL     1      33.333 -21.147 -19.463  0.00  0.00    +0.178 HD
BRANCH  11  16
ATOM     16  N   UNL     1      31.828 -23.490 -16.849  0.00  0.00    -0.205 NA
ATOM     17  C   UNL     1      29.891 -23.953 -14.345  0.00  0.00    +0.002 C 
ATOM     18  C   UNL     1      31.176 -24.534 -13.769  0.00  0.00    +0.002 C 
ATOM     19  C   UNL     1      29.651 -24.265 -15.817  0.00  0.00    +0.019 C 
ATOM     20  C   UNL     1      32.407 -24.524 -14.670  0.00  0.00    +0.019 C 
ATOM     21  C   UNL     1      30.379 -23.303 -16.761  0.00  0.00    +0.092 C 
ATOM     22  C   UNL     1      32.547 -23.308 -15.584  0.00  0.00    +0.092 C 
ENDBRANCH  11  16
ENDBRANCH   7  12
ENDBRANCH   1   7
BRANCH   2  23
ATOM     23  C   UNL     1      34.580 -17.300 -23.964  0.00  0.00    +0.048 C 
BRANCH  23  24
ATOM     24  C   UNL     1      35.185 -15.931 -23.627  0.00  0.00    +0.094 C 
BRANCH  24  26
ATOM     25  O   UNL     1      33.453 -13.858 -24.497  0.00  0.00    -0.268 OA
ATOM     26  N   UNL     1      34.321 -15.143 -22.790  0.00  0.00    -0.299 N 
ATOM     27  C   UNL     1      33.499 -14.140 -23.300  0.00  0.00    +0.267 C 
ATOM     28  H   UNL     1      34.309 -15.318 -21.821  0.00  0.00    +0.150 HD
BRANCH  27  31
ATOM     29  O   UNL     1      31.755 -12.964 -20.416  0.00  0.00    -0.358 OA
ATOM     30  N   UNL     1      32.551 -13.892 -21.077  0.00  0.00    -0.073 NA
ATOM     31  C   UNL     1      32.699 -13.403 -22.311  0.00  0.00    +0.176 C 
ATOM     32  C   UNL     1      32.027 -12.181 -22.486  0.00  0.00    +0.063 C 
ATOM     33  C   UNL     1      31.450 -11.950 -21.266  0.00  0.00    +0.155 C 
ATOM     34  C   UNL     1      30.609 -10.873 -20.727  0.00  0.00    +0.075 C 
ENDBRANCH  27  31
ENDBRANCH  24  26
ENDBRANCH  23  24
ENDBRANCH   2  23
TORSDOF 7
ENDMDL
MODEL 9
REMARK VINA RESULT:     -10.1      2.611     12.476
REMARK  Name = 32778
REMARK  7 active torsions:
REMARK  status: ('A' for Active; 'I' for Inactive)
REMARK    1  A    between atoms: C_1  and  S_7
REMARK    2  A    between atoms: C_2  and  C_23
REMARK    3  A    between atoms: S_7  and  N_12
REMARK    4  A    between atoms: N_11  and  N_16
REMARK    5  A    between atoms: C_23  and  C_24
REMARK    6  A    between atoms: C_24  and  N_26
REMARK    7  A    between atoms: C_27  and  C_31
REMARK                            x       y       z     vdW  Elec       q    Type
REMARK                         _______ _______ _______ _____ _____    ______ ____
ROOT
ATOM      1  C   UNL     1      34.640 -17.699 -23.540  0.00  0.00    +0.125 C 
ATOM      2  C   UNL     1      35.382 -19.600 -21.639  0.00  0.00    -0.020 C 
ATOM      3  C   UNL     1      34.348 -19.047 -23.751  0.00  0.00    +0.020 C 
ATOM      4  C   UNL     1      35.303 -17.302 -22.378  0.00  0.00    +0.020 C 
ATOM      5  C   UNL     1      34.719 -19.997 -22.800  0.00  0.00    -0.003 C 
ATOM      6  C   UNL     1      35.673 -18.253 -21.427  0.00  0.00    -0.003 C 
ENDROOT
BRANCH   1   7
ATOM      7  S   UNL     1      34.171 -16.495 -24.746  0.00  0.00    +0.077 S 
ATOM      8  O   UNL     1      32.922 -16.921 -25.348  0.00  0.00    -0.150 OA
ATOM      9  O   UNL     1      35.339 -16.252 -25.572  0.00  0.00    -0.150 OA
BRANCH   7  12
ATOM     10  O   UNL     1      32.954 -13.703 -25.346  0.00  0.00    -0.250 OA
ATOM     11  N   UNL     1      33.208 -12.985 -23.161  0.00  0.00    -0.230 N 
ATOM     12  N   UNL     1      33.887 -15.133 -23.755  0.00  0.00    -0.168 N 
ATOM     13  C   UNL     1      33.310 -13.897 -24.187  0.00  0.00    +0.333 C 
ATOM     14  H   UNL     1      33.517 -13.217 -22.255  0.00  0.00    +0.171 HD
ATOM     15  H   UNL     1      34.143 -15.203 -22.806  0.00  0.00    +0.178 HD
BRANCH  11  16
ATOM     16  N   UNL     1      32.665 -11.736 -23.419  0.00  0.00    -0.205 NA
ATOM     17  C   UNL     1      32.976  -8.553 -23.331  0.00  0.00    +0.002 C 
ATOM     18  C   UNL     1      31.623  -8.684 -22.643  0.00  0.00    +0.002 C 
ATOM     19  C   UNL     1      33.197  -9.509 -24.497  0.00  0.00    +0.019 C 
ATOM     20  C   UNL     1      31.063 -10.093 -22.476  0.00  0.00    +0.019 C 
ATOM     21  C   UNL     1      33.680 -10.894 -24.054  0.00  0.00    +0.092 C 
ATOM     22  C   UNL     1      32.094 -11.183 -22.186  0.00  0.00    +0.092 C 
ENDBRANCH  11  16
ENDBRANCH   7  12
ENDBRANCH   1   7
BRANCH   2  23
ATOM     23  C   UNL     1      35.777 -20.617 -20.622  0.00  0.00    +0.048 C 
BRANCH  23  24
ATOM     24  C   UNL     1      34.583 -21.296 -19.937  0.00  0.00    +0.094 C 
BRANCH  24  26
ATOM     25  O   UNL     1      36.736 -20.779 -18.162  0.00  0.00    -0.268 OA
ATOM     26  N   UNL     1      34.984 -22.122 -18.830  0.00  0.00    -0.299 N 
ATOM     27  C   UNL     1      36.058 -21.794 -18.004  0.00  0.00    +0.267 C 
ATOM     28  H   UNL     1      34.482 -22.949 -18.648  0.00  0.00    +0.150 HD
BRANCH  27  31
ATOM     29  O   UNL     1      36.043 -24.387 -15.552  0.00  0.00    -0.358 OA
ATOM     30  N   UNL     1      35.438 -23.647 -16.561  0.00  0.00    -0.073 NA
ATOM     31  C   UNL     1      36.360 -22.757 -16.936  0.00  0.00    +0.176 C 
ATOM     32  C   UNL     1      37.555 -22.886 -16.207  0.00  0.00    +0.063 C 
ATOM     33  C   UNL     1      37.303 -23.924 -15.350  0.00  0.00    +0.155 C 
ATOM     34  C   UNL     1      38.092 -24.598 -14.311  0.00  0.00    +0.075 C 
ENDBRANCH  27  31
ENDBRANCH  24  26
ENDBRANCH  23  24
ENDBRANCH   2  23
TORSDOF 7
ENDMDL
