MODEL 1
REMARK VINA RESULT:     -11.7      0.000      0.000
REMARK  Name = 448942
REMARK  8 active torsions:
REMARK  status: ('A' for Active; 'I' for Inactive)
REMARK    1  A    between atoms: C_2  and  C_20
REMARK    2  A    between atoms: C_3  and  C_6
REMARK    3  A    between atoms: C_7  and  C_13
REMARK    4  A    between atoms: N_19  and  C_22
REMARK    5  A    between atoms: C_22  and  C_23
REMARK    6  A    between atoms: C_22  and  C_29
REMARK    7  A    between atoms: C_29  and  C_31
REMARK    8  A    between atoms: C_31  and  O_32
REMARK                            x       y       z     vdW  Elec       q    Type
REMARK                         _______ _______ _______ _____ _____    ______ ____
ROOT
ATOM      1  S   UNL     1      32.481 -23.793 -16.685  0.00  0.00    -0.082 S 
ATOM      2  C   UNL     1      34.173 -23.747 -16.692  0.00  0.00    +0.083 C 
ATOM      3  C   UNL     1      33.691 -22.358 -18.439  0.00  0.00    +0.007 C 
ATOM      4  C   UNL     1      34.713 -22.965 -17.652  0.00  0.00    +0.012 C 
ATOM      5  C   UNL     1      32.431 -22.723 -18.021  0.00  0.00    +0.036 C 
ENDROOT
BRANCH   3   6
ATOM      6  C   UNL     1      33.869 -21.463 -19.551  0.00  0.00    +0.001 C 
ATOM      7  C   UNL     1      34.212 -19.727 -21.705  0.00  0.00    +0.000 C 
ATOM      8  C   UNL     1      35.150 -21.181 -20.019  0.00  0.00    +0.000 C 
ATOM      9  C   UNL     1      32.757 -20.878 -20.156  0.00  0.00    +0.000 C 
ATOM     10  C   UNL     1      35.323 -20.313 -21.097  0.00  0.00    +0.000 C 
ATOM     11  C   UNL     1      32.930 -20.009 -21.234  0.00  0.00    +0.000 C 
BRANCH   7  13
ATOM     12  N   UNL     1      34.734 -17.079 -24.977  0.00  0.00    -0.242 NA
ATOM     13  C   UNL     1      34.391 -18.825 -22.821  0.00  0.00    +0.003 C 
ATOM     14  C   UNL     1      35.138 -17.663 -22.666  0.00  0.00    +0.021 C 
ATOM     15  C   UNL     1      33.815 -19.115 -24.053  0.00  0.00    +0.021 C 
ATOM     16  C   UNL     1      35.279 -16.830 -23.765  0.00  0.00    +0.099 C 
ATOM     17  C   UNL     1      34.015 -18.218 -25.090  0.00  0.00    +0.099 C 
ENDBRANCH   7  13
ENDBRANCH   3   6
BRANCH   2  20
ATOM     18  O   UNL     1      34.954 -25.770 -15.737  0.00  0.00    -0.270 OA
ATOM     19  N   UNL     1      35.454 -23.816 -14.638  0.00  0.00    -0.298 N 
ATOM     20  C   UNL     1      34.886 -24.540 -15.682  0.00  0.00    +0.252 C 
ATOM     21  H   UNL     1      35.371 -22.835 -14.638  0.00  0.00    +0.150 HD
BRANCH  19  22
ATOM     22  C   UNL     1      36.161 -24.459 -13.551  0.00  0.00    +0.105 C 
BRANCH  22  23
ATOM     23  C   UNL     1      37.563 -24.833 -13.990  0.00  0.00    -0.004 C 
ATOM     24  C   UNL     1      38.094 -24.238 -15.120  0.00  0.00    -0.003 C 
ATOM     25  C   UNL     1      38.275 -25.759 -13.251  0.00  0.00    -0.003 C 
ATOM     26  C   UNL     1      39.384 -24.582 -15.524  0.00  0.00    -0.000 C 
ATOM     27  C   UNL     1      39.564 -26.104 -13.655  0.00  0.00    -0.000 C 
ATOM     28  C   UNL     1      40.119 -25.516 -14.793  0.00  0.00    -0.000 C 
ENDBRANCH  22  23
BRANCH  22  29
ATOM     29  C   UNL     1      36.125 -23.571 -12.295  0.00  0.00    +0.133 C 
BRANCH  29  31
ATOM     30  O   UNL     1      36.004 -24.059  -9.908  0.00  0.00    -0.250 OA
ATOM     31  C   UNL     1      35.657 -24.305 -11.055  0.00  0.00    +0.316 C 
BRANCH  31  32
ATOM     32  O   UNL     1      34.801 -25.314 -11.368  0.00  0.00    -0.480 OA
ATOM     33  H   UNL     1      34.186 -25.206 -12.065  0.00  0.00    +0.295 HD
ENDBRANCH  31  32
ENDBRANCH  29  31
ENDBRANCH  22  29
ENDBRANCH  19  22
ENDBRANCH   2  20
TORSDOF 8
ENDMDL
MODEL 2
REMARK VINA RESULT:     -11.0      2.079      3.367
REMARK  Name = 448942
REMARK  8 active torsions:
REMARK  status: ('A' for Active; 'I' for Inactive)
REMARK    1  A    between atoms: C_2  and  C_20
REMARK    2  A    between atoms: C_3  and  C_6
REMARK    3  A    between atoms: C_7  and  C_13
REMARK    4  A    between atoms: N_19  and  C_22
REMARK    5  A    between atoms: C_22  and  C_23
REMARK    6  A    between atoms: C_22  and  C_29
REMARK    7  A    between atoms: C_29  and  C_31
REMARK    8  A    between atoms: C_31  and  O_32
REMARK                            x       y       z     vdW  Elec       q    Type
REMARK                         _______ _______ _______ _____ _____    ______ ____
ROOT
ATOM      1  S   UNL     1      34.702 -23.600 -17.202  0.00  0.00    -0.082 S 
ATOM      2  C   UNL     1      36.070 -22.631 -16.964  0.00  0.00    +0.083 C 
ATOM      3  C   UNL     1      35.197 -21.697 -18.856  0.00  0.00    +0.007 C 
ATOM      4  C   UNL     1      36.242 -21.660 -17.887  0.00  0.00    +0.012 C 
ATOM      5  C   UNL     1      34.293 -22.704 -18.603  0.00  0.00    +0.036 C 
ENDROOT
BRANCH   3   6
ATOM      6  C   UNL     1      35.035 -20.827 -19.990  0.00  0.00    +0.001 C 
ATOM      7  C   UNL     1      34.723 -19.142 -22.189  0.00  0.00    +0.000 C 
ATOM      8  C   UNL     1      33.765 -20.595 -20.513  0.00  0.00    +0.000 C 
ATOM      9  C   UNL     1      36.151 -20.219 -20.564  0.00  0.00    +0.000 C 
ATOM     10  C   UNL     1      33.607 -19.752 -21.613  0.00  0.00    +0.000 C 
ATOM     11  C   UNL     1      35.994 -19.376 -21.665  0.00  0.00    +0.000 C 
BRANCH   7  13
ATOM     12  N   UNL     1      34.244 -16.581 -25.535  0.00  0.00    -0.242 NA
ATOM     13  C   UNL     1      34.560 -18.269 -23.330  0.00  0.00    +0.003 C 
ATOM     14  C   UNL     1      35.163 -17.017 -23.342  0.00  0.00    +0.021 C 
ATOM     15  C   UNL     1      33.799 -18.678 -24.420  0.00  0.00    +0.021 C 
ATOM     16  C   UNL     1      34.976 -16.217 -24.458  0.00  0.00    +0.099 C 
ATOM     17  C   UNL     1      33.673 -17.805 -25.488  0.00  0.00    +0.099 C 
ENDBRANCH   7  13
ENDBRANCH   3   6
BRANCH   2  20
ATOM     18  O   UNL     1      37.529 -22.042 -15.194  0.00  0.00    -0.270 OA
ATOM     19  N   UNL     1      37.033 -24.268 -15.461  0.00  0.00    -0.298 N 
ATOM     20  C   UNL     1      36.925 -22.924 -15.806  0.00  0.00    +0.252 C 
ATOM     21  H   UNL     1      36.530 -24.936 -15.981  0.00  0.00    +0.150 HD
BRANCH  19  22
ATOM     22  C   UNL     1      37.863 -24.716 -14.363  0.00  0.00    +0.105 C 
BRANCH  22  23
ATOM     23  C   UNL     1      37.127 -24.543 -13.049  0.00  0.00    -0.004 C 
ATOM     24  C   UNL     1      36.057 -25.373 -12.765  0.00  0.00    -0.003 C 
ATOM     25  C   UNL     1      37.542 -23.562 -12.169  0.00  0.00    -0.003 C 
ATOM     26  C   UNL     1      35.379 -25.214 -11.556  0.00  0.00    -0.000 C 
ATOM     27  C   UNL     1      36.864 -23.403 -10.960  0.00  0.00    -0.000 C 
ATOM     28  C   UNL     1      35.782 -24.229 -10.654  0.00  0.00    -0.000 C 
ENDBRANCH  22  23
BRANCH  22  29
ATOM     29  C   UNL     1      38.347 -26.155 -14.614  0.00  0.00    +0.133 C 
BRANCH  29  31
ATOM     30  O   UNL     1      40.702 -26.517 -14.098  0.00  0.00    -0.250 OA
ATOM     31  C   UNL     1      39.829 -26.246 -14.910  0.00  0.00    +0.316 C 
BRANCH  31  32
ATOM     32  O   UNL     1      40.094 -25.962 -16.213  0.00  0.00    -0.480 OA
ATOM     33  H   UNL     1      40.953 -25.690 -16.467  0.00  0.00    +0.295 HD
ENDBRANCH  31  32
ENDBRANCH  29  31
ENDBRANCH  22  29
ENDBRANCH  19  22
ENDBRANCH   2  20
TORSDOF 8
ENDMDL
MODEL 3
REMARK VINA RESULT:     -10.8      2.947      4.720
REMARK  Name = 448942
REMARK  8 active torsions:
REMARK  status: ('A' for Active; 'I' for Inactive)
REMARK    1  A    between atoms: C_2  and  C_20
REMARK    2  A    between atoms: C_3  and  C_6
REMARK    3  A    between atoms: C_7  and  C_13
REMARK    4  A    between atoms: N_19  and  C_22
REMARK    5  A    between atoms: C_22  and  C_23
REMARK    6  A    between atoms: C_22  and  C_29
REMARK    7  A    between atoms: C_29  and  C_31
REMARK    8  A    between atoms: C_31  and  O_32
REMARK                            x       y       z     vdW  Elec       q    Type
REMARK                         _______ _______ _______ _____ _____    ______ ____
ROOT
ATOM      1  S   UNL     1      36.707 -21.327 -20.009  0.00  0.00    -0.082 S 
ATOM      2  C   UNL     1      35.019 -21.388 -19.889  0.00  0.00    +0.083 C 
ATOM      3  C   UNL     1      35.300 -19.505 -21.151  0.00  0.00    +0.007 C 
ATOM      4  C   UNL     1      34.372 -20.386 -20.523  0.00  0.00    +0.012 C 
ATOM      5  C   UNL     1      36.603 -19.899 -20.949  0.00  0.00    +0.036 C 
ENDROOT
BRANCH   3   6
ATOM      6  C   UNL     1      34.995 -18.327 -21.917  0.00  0.00    +0.001 C 
ATOM      7  C   UNL     1      34.405 -16.042 -23.401  0.00  0.00    +0.000 C 
ATOM      8  C   UNL     1      34.738 -18.433 -23.282  0.00  0.00    +0.000 C 
ATOM      9  C   UNL     1      34.958 -17.081 -21.291  0.00  0.00    +0.000 C 
ATOM     10  C   UNL     1      34.443 -17.290 -24.026  0.00  0.00    +0.000 C 
ATOM     11  C   UNL     1      34.664 -15.939 -22.035  0.00  0.00    +0.000 C 
BRANCH   7  13
ATOM     12  N   UNL     1      33.511 -12.566 -25.661  0.00  0.00    -0.242 NA
ATOM     13  C   UNL     1      34.101 -14.857 -24.172  0.00  0.00    +0.003 C 
ATOM     14  C   UNL     1      34.284 -13.597 -23.615  0.00  0.00    +0.021 C 
ATOM     15  C   UNL     1      33.623 -14.973 -25.473  0.00  0.00    +0.021 C 
ATOM     16  C   UNL     1      33.978 -12.492 -24.393  0.00  0.00    +0.099 C 
ATOM     17  C   UNL     1      33.345 -13.808 -26.168  0.00  0.00    +0.099 C 
ENDBRANCH   7  13
ENDBRANCH   3   6
BRANCH   2  20
ATOM     18  O   UNL     1      33.735 -23.365 -19.663  0.00  0.00    -0.270 OA
ATOM     19  N   UNL     1      34.667 -22.483 -17.758  0.00  0.00    -0.298 N 
ATOM     20  C   UNL     1      34.425 -22.495 -19.129  0.00  0.00    +0.252 C 
ATOM     21  H   UNL     1      35.225 -21.766 -17.379  0.00  0.00    +0.150 HD
BRANCH  19  22
ATOM     22  C   UNL     1      34.123 -23.490 -16.872  0.00  0.00    +0.105 C 
BRANCH  22  23
ATOM     23  C   UNL     1      35.218 -24.053 -15.987  0.00  0.00    -0.004 C 
ATOM     24  C   UNL     1      34.974 -25.210 -15.271  0.00  0.00    -0.003 C 
ATOM     25  C   UNL     1      36.431 -23.395 -15.917  0.00  0.00    -0.003 C 
ATOM     26  C   UNL     1      35.980 -25.729 -14.456  0.00  0.00    -0.000 C 
ATOM     27  C   UNL     1      37.438 -23.913 -15.102  0.00  0.00    -0.000 C 
ATOM     28  C   UNL     1      37.212 -25.079 -14.371  0.00  0.00    -0.000 C 
ENDBRANCH  22  23
BRANCH  22  29
ATOM     29  C   UNL     1      32.929 -22.919 -16.088  0.00  0.00    +0.133 C 
BRANCH  29  31
ATOM     30  O   UNL     1      30.746 -23.997 -16.229  0.00  0.00    -0.250 OA
ATOM     31  C   UNL     1      31.588 -23.252 -16.709  0.00  0.00    +0.316 C 
BRANCH  31  32
ATOM     32  O   UNL     1      31.428 -22.632 -17.908  0.00  0.00    -0.480 OA
ATOM     33  H   UNL     1      31.280 -23.139 -18.681  0.00  0.00    +0.295 HD
ENDBRANCH  31  32
ENDBRANCH  29  31
ENDBRANCH  22  29
ENDBRANCH  19  22
ENDBRANCH   2  20
TORSDOF 8
ENDMDL
MODEL 4
REMARK VINA RESULT:     -10.7      9.775     15.854
REMARK  Name = 448942
REMARK  8 active torsions:
REMARK  status: ('A' for Active; 'I' for Inactive)
REMARK    1  A    between atoms: C_2  and  C_20
REMARK    2  A    between atoms: C_3  and  C_6
REMARK    3  A    between atoms: C_7  and  C_13
REMARK    4  A    between atoms: N_19  and  C_22
REMARK    5  A    between atoms: C_22  and  C_23
REMARK    6  A    between atoms: C_22  and  C_29
REMARK    7  A    between atoms: C_29  and  C_31
REMARK    8  A    between atoms: C_31  and  O_32
REMARK                            x       y       z     vdW  Elec       q    Type
REMARK                         _______ _______ _______ _____ _____    ______ ____
ROOT
ATOM      1  S   UNL     1      33.479 -10.290 -26.425  0.00  0.00    -0.082 S 
ATOM      2  C   UNL     1      33.319 -10.019 -24.761  0.00  0.00    +0.083 C 
ATOM      3  C   UNL     1      33.777 -12.256 -24.797  0.00  0.00    +0.007 C 
ATOM      4  C   UNL     1      33.494 -11.115 -23.991  0.00  0.00    +0.012 C 
ATOM      5  C   UNL     1      33.798 -11.949 -26.139  0.00  0.00    +0.036 C 
ENDROOT
BRANCH   3   6
ATOM      6  C   UNL     1      34.021 -13.599 -24.344  0.00  0.00    +0.001 C 
ATOM      7  C   UNL     1      34.496 -16.202 -23.467  0.00  0.00    +0.000 C 
ATOM      8  C   UNL     1      34.294 -13.841 -22.999  0.00  0.00    +0.000 C 
ATOM      9  C   UNL     1      33.986 -14.656 -25.252  0.00  0.00    +0.000 C 
ATOM     10  C   UNL     1      34.532 -15.143 -22.559  0.00  0.00    +0.000 C 
ATOM     11  C   UNL     1      34.224 -15.959 -24.813  0.00  0.00    +0.000 C 
BRANCH   7  13
ATOM     12  N   UNL     1      35.221 -20.162 -22.132  0.00  0.00    -0.242 NA
ATOM     13  C   UNL     1      34.744 -17.552 -23.012  0.00  0.00    +0.003 C 
ATOM     14  C   UNL     1      34.475 -18.630 -23.847  0.00  0.00    +0.021 C 
ATOM     15  C   UNL     1      35.251 -17.778 -21.737  0.00  0.00    +0.021 C 
ATOM     16  C   UNL     1      34.728 -19.905 -23.365  0.00  0.00    +0.099 C 
ATOM     17  C   UNL     1      35.469 -19.089 -21.348  0.00  0.00    +0.099 C 
ENDBRANCH   7  13
ENDBRANCH   3   6
BRANCH   2  20
ATOM     18  O   UNL     1      31.980  -8.069 -24.644  0.00  0.00    -0.270 OA
ATOM     19  N   UNL     1      33.983  -8.048 -23.521  0.00  0.00    -0.298 N 
ATOM     20  C   UNL     1      33.014  -8.653 -24.315  0.00  0.00    +0.252 C 
ATOM     21  H   UNL     1      34.792  -8.557 -23.285  0.00  0.00    +0.150 HD
BRANCH  19  22
ATOM     22  C   UNL     1      33.839  -6.694 -23.030  0.00  0.00    +0.105 C 
BRANCH  22  23
ATOM     23  C   UNL     1      33.783  -5.721 -24.192  0.00  0.00    -0.004 C 
ATOM     24  C   UNL     1      32.769  -4.782 -24.232  0.00  0.00    -0.003 C 
ATOM     25  C   UNL     1      34.744  -5.798 -25.181  0.00  0.00    -0.003 C 
ATOM     26  C   UNL     1      32.716  -3.887 -25.301  0.00  0.00    -0.000 C 
ATOM     27  C   UNL     1      34.692  -4.904 -26.250  0.00  0.00    -0.000 C 
ATOM     28  C   UNL     1      33.677  -3.949 -26.310  0.00  0.00    -0.000 C 
ENDBRANCH  22  23
BRANCH  22  29
ATOM     29  C   UNL     1      32.629  -6.597 -22.085  0.00  0.00    +0.133 C 
BRANCH  29  31
ATOM     30  O   UNL     1      32.181  -8.664 -20.872  0.00  0.00    -0.250 OA
ATOM     31  C   UNL     1      32.700  -7.558 -20.917  0.00  0.00    +0.316 C 
BRANCH  31  32
ATOM     32  O   UNL     1      33.406  -7.029 -19.882  0.00  0.00    -0.480 OA
ATOM     33  H   UNL     1      33.079  -6.279 -19.428  0.00  0.00    +0.295 HD
ENDBRANCH  31  32
ENDBRANCH  29  31
ENDBRANCH  22  29
ENDBRANCH  19  22
ENDBRANCH   2  20
TORSDOF 8
ENDMDL
MODEL 5
REMARK VINA RESULT:     -10.7      2.344      4.130
REMARK  Name = 448942
REMARK  8 active torsions:
REMARK  status: ('A' for Active; 'I' for Inactive)
REMARK    1  A    between atoms: C_2  and  C_20
REMARK    2  A    between atoms: C_3  and  C_6
REMARK    3  A    between atoms: C_7  and  C_13
REMARK    4  A    between atoms: N_19  and  C_22
REMARK    5  A    between atoms: C_22  and  C_23
REMARK    6  A    between atoms: C_22  and  C_29
REMARK    7  A    between atoms: C_29  and  C_31
REMARK    8  A    between atoms: C_31  and  O_32
REMARK                            x       y       z     vdW  Elec       q    Type
REMARK                         _______ _______ _______ _____ _____    ______ ____
ROOT
ATOM      1  S   UNL     1      37.058 -22.718 -16.693  0.00  0.00    -0.082 S 
ATOM      2  C   UNL     1      35.378 -22.911 -16.768  0.00  0.00    +0.083 C 
ATOM      3  C   UNL     1      35.745 -21.575 -18.582  0.00  0.00    +0.007 C 
ATOM      4  C   UNL     1      34.781 -22.271 -17.797  0.00  0.00    +0.012 C 
ATOM      5  C   UNL     1      37.022 -21.733 -18.093  0.00  0.00    +0.036 C 
ENDROOT
BRANCH   3   6
ATOM      6  C   UNL     1      35.498 -20.781 -19.756  0.00  0.00    +0.001 C 
ATOM      7  C   UNL     1      35.016 -19.242 -22.030  0.00  0.00    +0.000 C 
ATOM      8  C   UNL     1      36.533 -20.047 -20.331  0.00  0.00    +0.000 C 
ATOM      9  C   UNL     1      34.221 -20.747 -20.315  0.00  0.00    +0.000 C 
ATOM     10  C   UNL     1      36.293 -19.277 -21.468  0.00  0.00    +0.000 C 
ATOM     11  C   UNL     1      33.980 -19.977 -21.453  0.00  0.00    +0.000 C 
BRANCH   7  13
ATOM     12  N   UNL     1      34.282 -16.894 -25.485  0.00  0.00    -0.242 NA
ATOM     13  C   UNL     1      34.766 -18.442 -23.208  0.00  0.00    +0.003 C 
ATOM     14  C   UNL     1      35.349 -17.187 -23.335  0.00  0.00    +0.021 C 
ATOM     15  C   UNL     1      33.941 -18.925 -24.219  0.00  0.00    +0.021 C 
ATOM     16  C   UNL     1      35.078 -16.458 -24.483  0.00  0.00    +0.099 C 
ATOM     17  C   UNL     1      33.732 -18.119 -25.326  0.00  0.00    +0.099 C 
ENDBRANCH   7  13
ENDBRANCH   3   6
BRANCH   2  20
ATOM     18  O   UNL     1      34.819 -24.965 -15.729  0.00  0.00    -0.270 OA
ATOM     19  N   UNL     1      33.999 -23.041 -14.781  0.00  0.00    -0.298 N 
ATOM     20  C   UNL     1      34.735 -23.736 -15.736  0.00  0.00    +0.252 C 
ATOM     21  H   UNL     1      33.963 -22.058 -14.829  0.00  0.00    +0.150 HD
BRANCH  19  22
ATOM     22  C   UNL     1      33.284 -23.716 -13.719  0.00  0.00    +0.105 C 
BRANCH  22  23
ATOM     23  C   UNL     1      31.880 -24.065 -14.176  0.00  0.00    -0.004 C 
ATOM     24  C   UNL     1      31.093 -23.078 -14.739  0.00  0.00    -0.003 C 
ATOM     25  C   UNL     1      31.423 -25.359 -14.017  0.00  0.00    -0.003 C 
ATOM     26  C   UNL     1      29.801 -23.398 -15.159  0.00  0.00    -0.000 C 
ATOM     27  C   UNL     1      30.132 -25.680 -14.435  0.00  0.00    -0.000 C 
ATOM     28  C   UNL     1      29.321 -24.698 -15.006  0.00  0.00    -0.000 C 
ENDBRANCH  22  23
BRANCH  22  29
ATOM     29  C   UNL     1      34.090 -24.930 -13.224  0.00  0.00    +0.133 C 
BRANCH  29  31
ATOM     30  O   UNL     1      35.222 -25.333 -11.102  0.00  0.00    -0.250 OA
ATOM     31  C   UNL     1      35.008 -24.608 -12.064  0.00  0.00    +0.316 C 
BRANCH  31  32
ATOM     32  O   UNL     1      35.566 -23.375 -12.200  0.00  0.00    -0.480 OA
ATOM     33  H   UNL     1      36.176 -23.066 -11.560  0.00  0.00    +0.295 HD
ENDBRANCH  31  32
ENDBRANCH  29  31
ENDBRANCH  22  29
ENDBRANCH  19  22
ENDBRANCH   2  20
TORSDOF 8
ENDMDL
MODEL 6
REMARK VINA RESULT:     -10.3      6.411     12.361
REMARK  Name = 448942
REMARK  8 active torsions:
REMARK  status: ('A' for Active; 'I' for Inactive)
REMARK    1  A    between atoms: C_2  and  C_20
REMARK    2  A    between atoms: C_3  and  C_6
REMARK    3  A    between atoms: C_7  and  C_13
REMARK    4  A    between atoms: N_19  and  C_22
REMARK    5  A    between atoms: C_22  and  C_23
REMARK    6  A    between atoms: C_22  and  C_29
REMARK    7  A    between atoms: C_29  and  C_31
REMARK    8  A    between atoms: C_31  and  O_32
REMARK                            x       y       z     vdW  Elec       q    Type
REMARK                         _______ _______ _______ _____ _____    ______ ____
ROOT
ATOM      1  S   UNL     1      34.556 -18.277 -25.299  0.00  0.00    -0.082 S 
ATOM      2  C   UNL     1      34.198 -17.106 -24.129  0.00  0.00    +0.083 C 
ATOM      3  C   UNL     1      34.704 -18.900 -22.810  0.00  0.00    +0.007 C 
ATOM      4  C   UNL     1      34.306 -17.532 -22.852  0.00  0.00    +0.012 C 
ATOM      5  C   UNL     1      34.874 -19.428 -24.070  0.00  0.00    +0.036 C 
ENDROOT
BRANCH   3   6
ATOM      6  C   UNL     1      34.923 -19.704 -21.638  0.00  0.00    +0.001 C 
ATOM      7  C   UNL     1      35.348 -21.262 -19.365  0.00  0.00    +0.000 C 
ATOM      8  C   UNL     1      33.851 -20.356 -21.031  0.00  0.00    +0.000 C 
ATOM      9  C   UNL     1      36.208 -19.829 -21.110  0.00  0.00    +0.000 C 
ATOM     10  C   UNL     1      34.062 -21.135 -19.894  0.00  0.00    +0.000 C 
ATOM     11  C   UNL     1      36.419 -20.608 -19.973  0.00  0.00    +0.000 C 
BRANCH   7  13
ATOM     12  N   UNL     1      35.990 -23.626 -15.903  0.00  0.00    -0.242 NA
ATOM     13  C   UNL     1      35.567 -22.068 -18.185  0.00  0.00    +0.003 C 
ATOM     14  C   UNL     1      34.534 -22.841 -17.666  0.00  0.00    +0.021 C 
ATOM     15  C   UNL     1      36.811 -22.073 -17.563  0.00  0.00    +0.021 C 
ATOM     16  C   UNL     1      34.794 -23.596 -16.534  0.00  0.00    +0.099 C 
ATOM     17  C   UNL     1      36.969 -22.861 -16.435  0.00  0.00    +0.099 C 
ENDBRANCH   7  13
ENDBRANCH   3   6
BRANCH   2  20
ATOM     18  O   UNL     1      33.830 -15.454 -25.787  0.00  0.00    -0.270 OA
ATOM     19  N   UNL     1      33.462 -14.861 -23.599  0.00  0.00    -0.298 N 
ATOM     20  C   UNL     1      33.815 -15.767 -24.595  0.00  0.00    +0.252 C 
ATOM     21  H   UNL     1      33.466 -15.158 -22.661  0.00  0.00    +0.150 HD
BRANCH  19  22
ATOM     22  C   UNL     1      33.091 -13.495 -23.899  0.00  0.00    +0.105 C 
BRANCH  22  23
ATOM     23  C   UNL     1      32.490 -12.835 -22.672  0.00  0.00    -0.004 C 
ATOM     24  C   UNL     1      32.057 -11.525 -22.758  0.00  0.00    -0.003 C 
ATOM     25  C   UNL     1      32.392 -13.560 -21.499  0.00  0.00    -0.003 C 
ATOM     26  C   UNL     1      31.505 -10.918 -21.630  0.00  0.00    -0.000 C 
ATOM     27  C   UNL     1      31.841 -12.953 -20.371  0.00  0.00    -0.000 C 
ATOM     28  C   UNL     1      31.398 -11.632 -20.436  0.00  0.00    -0.000 C 
ENDBRANCH  22  23
BRANCH  22  29
ATOM     29  C   UNL     1      34.293 -12.732 -24.482  0.00  0.00    +0.133 C 
BRANCH  29  31
ATOM     30  O   UNL     1      33.838 -10.691 -25.735  0.00  0.00    -0.250 OA
ATOM     31  C   UNL     1      33.947 -11.909 -25.704  0.00  0.00    +0.316 C 
BRANCH  31  32
ATOM     32  O   UNL     1      33.739 -12.697 -26.792  0.00  0.00    -0.480 OA
ATOM     33  H   UNL     1      33.064 -12.481 -27.404  0.00  0.00    +0.295 HD
ENDBRANCH  31  32
ENDBRANCH  29  31
ENDBRANCH  22  29
ENDBRANCH  19  22
ENDBRANCH   2  20
TORSDOF 8
ENDMDL
MODEL 7
REMARK VINA RESULT:      -9.8     10.605     16.897
REMARK  Name = 448942
REMARK  8 active torsions:
REMARK  status: ('A' for Active; 'I' for Inactive)
REMARK    1  A    between atoms: C_2  and  C_20
REMARK    2  A    between atoms: C_3  and  C_6
REMARK    3  A    between atoms: C_7  and  C_13
REMARK    4  A    between atoms: N_19  and  C_22
REMARK    5  A    between atoms: C_22  and  C_23
REMARK    6  A    between atoms: C_22  and  C_29
REMARK    7  A    between atoms: C_29  and  C_31
REMARK    8  A    between atoms: C_31  and  O_32
REMARK                            x       y       z     vdW  Elec       q    Type
REMARK                         _______ _______ _______ _____ _____    ______ ____
ROOT
ATOM      1  S   UNL     1      33.447 -10.035 -26.557  0.00  0.00    -0.082 S 
ATOM      2  C   UNL     1      33.447  -9.727 -24.892  0.00  0.00    +0.083 C 
ATOM      3  C   UNL     1      33.788 -11.984 -24.917  0.00  0.00    +0.007 C 
ATOM      4  C   UNL     1      33.633 -10.816 -24.115  0.00  0.00    +0.012 C 
ATOM      5  C   UNL     1      33.707 -11.702 -26.262  0.00  0.00    +0.036 C 
ENDROOT
BRANCH   3   6
ATOM      6  C   UNL     1      34.004 -13.330 -24.457  0.00  0.00    +0.001 C 
ATOM      7  C   UNL     1      34.423 -15.938 -23.567  0.00  0.00    +0.000 C 
ATOM      8  C   UNL     1      34.333 -13.565 -23.124  0.00  0.00    +0.000 C 
ATOM      9  C   UNL     1      33.883 -14.396 -25.347  0.00  0.00    +0.000 C 
ATOM     10  C   UNL     1      34.544 -14.869 -22.677  0.00  0.00    +0.000 C 
ATOM     11  C   UNL     1      34.093 -15.701 -24.901  0.00  0.00    +0.000 C 
BRANCH   7  13
ATOM     12  N   UNL     1      35.069 -19.905 -22.212  0.00  0.00    -0.242 NA
ATOM     13  C   UNL     1      34.642 -17.291 -23.105  0.00  0.00    +0.003 C 
ATOM     14  C   UNL     1      35.086 -17.521 -21.808  0.00  0.00    +0.021 C 
ATOM     15  C   UNL     1      34.411 -18.366 -23.956  0.00  0.00    +0.021 C 
ATOM     16  C   UNL     1      35.282 -18.835 -21.413  0.00  0.00    +0.099 C 
ATOM     17  C   UNL     1      34.638 -19.642 -23.466  0.00  0.00    +0.099 C 
ENDBRANCH   7  13
ENDBRANCH   3   6
BRANCH   2  20
ATOM     18  O   UNL     1      33.080  -8.042 -23.268  0.00  0.00    -0.270 OA
ATOM     19  N   UNL     1      33.238  -7.382 -25.462  0.00  0.00    -0.298 N 
ATOM     20  C   UNL     1      33.250  -8.339 -24.452  0.00  0.00    +0.252 C 
ATOM     21  H   UNL     1      33.378  -7.670 -26.393  0.00  0.00    +0.150 HD
BRANCH  19  22
ATOM     22  C   UNL     1      33.024  -5.977 -25.188  0.00  0.00    +0.105 C 
BRANCH  22  23
ATOM     23  C   UNL     1      34.015  -5.136 -25.970  0.00  0.00    -0.004 C 
ATOM     24  C   UNL     1      33.641  -3.872 -26.387  0.00  0.00    -0.003 C 
ATOM     25  C   UNL     1      35.266  -5.654 -26.246  0.00  0.00    -0.003 C 
ATOM     26  C   UNL     1      34.552  -3.098 -27.106  0.00  0.00    -0.000 C 
ATOM     27  C   UNL     1      36.177  -4.881 -26.965  0.00  0.00    -0.000 C 
ATOM     28  C   UNL     1      35.819  -3.603 -27.396  0.00  0.00    -0.000 C 
ENDBRANCH  22  23
BRANCH  22  29
ATOM     29  C   UNL     1      31.555  -5.602 -25.451  0.00  0.00    +0.133 C 
BRANCH  29  31
ATOM     30  O   UNL     1      30.263  -4.179 -23.950  0.00  0.00    -0.250 OA
ATOM     31  C   UNL     1      30.790  -5.256 -24.191  0.00  0.00    +0.316 C 
BRANCH  31  32
ATOM     32  O   UNL     1      30.773  -6.299 -23.318  0.00  0.00    -0.480 OA
ATOM     33  H   UNL     1      30.074  -6.380 -22.700  0.00  0.00    +0.295 HD
ENDBRANCH  31  32
ENDBRANCH  29  31
ENDBRANCH  22  29
ENDBRANCH  19  22
ENDBRANCH   2  20
TORSDOF 8
ENDMDL
MODEL 8
REMARK VINA RESULT:      -9.5      7.459     11.469
REMARK  Name = 448942
REMARK  8 active torsions:
REMARK  status: ('A' for Active; 'I' for Inactive)
REMARK    1  A    between atoms: C_2  and  C_20
REMARK    2  A    between atoms: C_3  and  C_6
REMARK    3  A    between atoms: C_7  and  C_13
REMARK    4  A    between atoms: N_19  and  C_22
REMARK    5  A    between atoms: C_22  and  C_23
REMARK    6  A    between atoms: C_22  and  C_29
REMARK    7  A    between atoms: C_29  and  C_31
REMARK    8  A    between atoms: C_31  and  O_32
REMARK                            x       y       z     vdW  Elec       q    Type
REMARK                         _______ _______ _______ _____ _____    ______ ____
ROOT
ATOM      1  S   UNL     1      33.447 -14.981 -21.057  0.00  0.00    -0.082 S 
ATOM      2  C   UNL     1      34.210 -14.983 -22.568  0.00  0.00    +0.083 C 
ATOM      3  C   UNL     1      33.282 -12.897 -22.551  0.00  0.00    +0.007 C 
ATOM      4  C   UNL     1      34.064 -13.842 -23.277  0.00  0.00    +0.012 C 
ATOM      5  C   UNL     1      32.881 -13.388 -21.329  0.00  0.00    +0.036 C 
ENDROOT
BRANCH   3   6
ATOM      6  C   UNL     1      32.910 -11.573 -22.973  0.00  0.00    +0.001 C 
ATOM      7  C   UNL     1      32.190  -9.007 -23.788  0.00  0.00    +0.000 C 
ATOM      8  C   UNL     1      33.551 -10.984 -24.061  0.00  0.00    +0.000 C 
ATOM      9  C   UNL     1      31.909 -10.882 -22.291  0.00  0.00    +0.000 C 
ATOM     10  C   UNL     1      33.192  -9.700 -24.469  0.00  0.00    +0.000 C 
ATOM     11  C   UNL     1      31.550  -9.598 -22.700  0.00  0.00    +0.000 C 
BRANCH   7  13
ATOM     12  N   UNL     1      31.101  -5.099 -25.027  0.00  0.00    -0.242 NA
ATOM     13  C   UNL     1      31.818  -7.675 -24.211  0.00  0.00    +0.003 C 
ATOM     14  C   UNL     1      32.263  -7.180 -25.431  0.00  0.00    +0.021 C 
ATOM     15  C   UNL     1      31.014  -6.882 -23.398  0.00  0.00    +0.021 C 
ATOM     16  C   UNL     1      31.881  -5.897 -25.791  0.00  0.00    +0.099 C 
ATOM     17  C   UNL     1      30.687  -5.614 -23.847  0.00  0.00    +0.099 C 
ENDBRANCH   7  13
ENDBRANCH   3   6
BRANCH   2  20
ATOM     18  O   UNL     1      36.009 -16.144 -23.583  0.00  0.00    -0.270 OA
ATOM     19  N   UNL     1      34.343 -17.401 -22.623  0.00  0.00    -0.298 N 
ATOM     20  C   UNL     1      34.944 -16.193 -22.964  0.00  0.00    +0.252 C 
ATOM     21  H   UNL     1      33.492 -17.388 -22.129  0.00  0.00    +0.150 HD
BRANCH  19  22
ATOM     22  C   UNL     1      34.931 -18.677 -22.972  0.00  0.00    +0.105 C 
BRANCH  22  23
ATOM     23  C   UNL     1      34.855 -19.627 -21.793  0.00  0.00    -0.004 C 
ATOM     24  C   UNL     1      36.028 -20.060 -21.203  0.00  0.00    -0.003 C 
ATOM     25  C   UNL     1      33.616 -20.035 -21.336  0.00  0.00    -0.003 C 
ATOM     26  C   UNL     1      35.958 -20.934 -20.118  0.00  0.00    -0.000 C 
ATOM     27  C   UNL     1      33.546 -20.909 -20.252  0.00  0.00    -0.000 C 
ATOM     28  C   UNL     1      34.718 -21.360 -19.643  0.00  0.00    -0.000 C 
ENDBRANCH  22  23
BRANCH  22  29
ATOM     29  C   UNL     1      34.278 -19.230 -24.251  0.00  0.00    +0.133 C 
BRANCH  29  31
ATOM     30  O   UNL     1      32.500 -18.050 -25.431  0.00  0.00    -0.250 OA
ATOM     31  C   UNL     1      33.682 -18.154 -25.134  0.00  0.00    +0.316 C 
BRANCH  31  32
ATOM     32  O   UNL     1      34.638 -17.305 -25.597  0.00  0.00    -0.480 OA
ATOM     33  H   UNL     1      35.543 -17.508 -25.474  0.00  0.00    +0.295 HD
ENDBRANCH  31  32
ENDBRANCH  29  31
ENDBRANCH  22  29
ENDBRANCH  19  22
ENDBRANCH   2  20
TORSDOF 8
ENDMDL
MODEL 9
REMARK VINA RESULT:      -9.2      2.537      3.322
REMARK  Name = 448942
REMARK  8 active torsions:
REMARK  status: ('A' for Active; 'I' for Inactive)
REMARK    1  A    between atoms: C_2  and  C_20
REMARK    2  A    between atoms: C_3  and  C_6
REMARK    3  A    between atoms: C_7  and  C_13
REMARK    4  A    between atoms: N_19  and  C_22
REMARK    5  A    between atoms: C_22  and  C_23
REMARK    6  A    between atoms: C_22  and  C_29
REMARK    7  A    between atoms: C_29  and  C_31
REMARK    8  A    between atoms: C_31  and  O_32
REMARK                            x       y       z     vdW  Elec       q    Type
REMARK                         _______ _______ _______ _____ _____    ______ ____
ROOT
ATOM      1  S   UNL     1      37.374 -22.401 -16.886  0.00  0.00    -0.082 S 
ATOM      2  C   UNL     1      35.743 -22.840 -17.001  0.00  0.00    +0.083 C 
ATOM      3  C   UNL     1      35.935 -21.411 -18.770  0.00  0.00    +0.007 C 
ATOM      4  C   UNL     1      35.074 -22.266 -18.024  0.00  0.00    +0.012 C 
ATOM      5  C   UNL     1      37.214 -21.391 -18.259  0.00  0.00    +0.036 C 
ENDROOT
BRANCH   3   6
ATOM      6  C   UNL     1      35.591 -20.628 -19.927  0.00  0.00    +0.001 C 
ATOM      7  C   UNL     1      34.920 -19.110 -22.167  0.00  0.00    +0.000 C 
ATOM      8  C   UNL     1      36.566 -19.866 -20.568  0.00  0.00    +0.000 C 
ATOM      9  C   UNL     1      34.280 -20.632 -20.403  0.00  0.00    +0.000 C 
ATOM     10  C   UNL     1      36.231 -19.107 -21.689  0.00  0.00    +0.000 C 
ATOM     11  C   UNL     1      33.945 -19.873 -21.524  0.00  0.00    +0.000 C 
BRANCH   7  13
ATOM     12  N   UNL     1      33.900 -16.796 -25.572  0.00  0.00    -0.242 NA
ATOM     13  C   UNL     1      34.573 -18.322 -23.329  0.00  0.00    +0.003 C 
ATOM     14  C   UNL     1      35.004 -17.004 -23.431  0.00  0.00    +0.021 C 
ATOM     15  C   UNL     1      33.805 -18.877 -24.347  0.00  0.00    +0.021 C 
ATOM     16  C   UNL     1      34.644 -16.290 -24.562  0.00  0.00    +0.099 C 
ATOM     17  C   UNL     1      33.498 -18.079 -25.436  0.00  0.00    +0.099 C 
ENDBRANCH   7  13
ENDBRANCH   3   6
BRANCH   2  20
ATOM     18  O   UNL     1      35.321 -25.004 -16.132  0.00  0.00    -0.270 OA
ATOM     19  N   UNL     1      34.558 -23.208 -14.921  0.00  0.00    -0.298 N 
ATOM     20  C   UNL     1      35.215 -23.782 -16.005  0.00  0.00    +0.252 C 
ATOM     21  H   UNL     1      34.499 -22.227 -14.864  0.00  0.00    +0.150 HD
BRANCH  19  22
ATOM     22  C   UNL     1      33.957 -24.007 -13.874  0.00  0.00    +0.105 C 
BRANCH  22  23
ATOM     23  C   UNL     1      34.847 -24.013 -12.647  0.00  0.00    -0.004 C 
ATOM     24  C   UNL     1      34.494 -24.799 -11.565  0.00  0.00    -0.003 C 
ATOM     25  C   UNL     1      35.988 -23.233 -12.639  0.00  0.00    -0.003 C 
ATOM     26  C   UNL     1      35.313 -24.804 -10.435  0.00  0.00    -0.000 C 
ATOM     27  C   UNL     1      36.806 -23.238 -11.510  0.00  0.00    -0.000 C 
ATOM     28  C   UNL     1      36.468 -24.024 -10.407  0.00  0.00    -0.000 C 
ENDBRANCH  22  23
BRANCH  22  29
ATOM     29  C   UNL     1      32.523 -23.525 -13.593  0.00  0.00    +0.133 C 
BRANCH  29  31
ATOM     30  O   UNL     1      30.299 -24.258 -14.271  0.00  0.00    -0.250 OA
ATOM     31  C   UNL     1      31.463 -24.524 -14.005  0.00  0.00    +0.316 C 
BRANCH  31  32
ATOM     32  O   UNL     1      31.954 -25.791 -14.023  0.00  0.00    -0.480 OA
ATOM     33  H   UNL     1      31.532 -26.464 -13.526  0.00  0.00    +0.295 HD
ENDBRANCH  31  32
ENDBRANCH  29  31
ENDBRANCH  22  29
ENDBRANCH  19  22
ENDBRANCH   2  20
TORSDOF 8
ENDMDL
