MODEL 1
REMARK VINA RESULT:     -11.8      0.000      0.000
REMARK  Name = 445756
REMARK  6 active torsions:
REMARK  status: ('A' for Active; 'I' for Inactive)
REMARK    1  A    between atoms: C_3  and  C_11
REMARK    2  A    between atoms: C_6  and  C_22
REMARK    3  A    between atoms: C_11  and  N_12
REMARK    4  A    between atoms: C_22  and  N_23
REMARK    5  A    between atoms: N_23  and  C_25
REMARK    6  A    between atoms: C_30  and  C_33
REMARK                            x       y       z     vdW  Elec       q    Type
REMARK                         _______ _______ _______ _____ _____    ______ ____
ROOT
ATOM      1  N   UNL     1      34.379 -15.322 -23.013  0.00  0.00    -0.261 N 
ATOM      2  N   UNL     1      33.791 -15.301 -20.870  0.00  0.00    -0.392 NA
ATOM      3  C   UNL     1      31.755 -12.361 -21.958  0.00  0.00    -0.017 C 
ATOM      4  C   UNL     1      33.511 -14.269 -22.882  0.00  0.00    +0.079 C 
ATOM      5  C   UNL     1      33.158 -14.277 -21.535  0.00  0.00    +0.128 C 
ATOM      6  C   UNL     1      34.515 -15.906 -21.785  0.00  0.00    +0.183 C 
ATOM      7  C   UNL     1      32.261 -13.307 -21.056  0.00  0.00    +0.084 C 
ATOM      8  C   UNL     1      32.127 -12.380 -23.304  0.00  0.00    -0.005 C 
ATOM      9  C   UNL     1      33.018 -13.338 -23.798  0.00  0.00    +0.017 C 
ATOM     10  C   UNL     1      35.032 -15.737 -24.234  0.00  0.00    +0.120 C 
ENDROOT
BRANCH   3  11
ATOM     11  C   UNL     1      30.800 -11.322 -21.471  0.00  0.00    +0.120 C 
BRANCH  11  12
ATOM     12  N   UNL     1      31.489 -10.084 -21.093  0.00  0.00    -0.260 N 
ATOM     13  N   UNL     1      32.426  -8.553 -19.815  0.00  0.00    -0.394 NA
ATOM     14  C   UNL     1      31.907  -9.123 -21.960  0.00  0.00    +0.079 C 
ATOM     15  C   UNL     1      31.811  -9.715 -19.830  0.00  0.00    +0.164 C 
ATOM     16  C   UNL     1      32.494  -8.168 -21.134  0.00  0.00    +0.128 C 
ATOM     17  C   UNL     1      31.833  -8.996 -23.347  0.00  0.00    +0.017 C 
ATOM     18  C   UNL     1      31.496 -10.544 -18.649  0.00  0.00    +0.084 C 
ATOM     19  C   UNL     1      33.045  -7.011 -21.711  0.00  0.00    +0.086 C 
ATOM     20  C   UNL     1      32.386  -7.837 -23.903  0.00  0.00    -0.003 C 
ATOM     21  C   UNL     1      32.982  -6.861 -23.101  0.00  0.00    -0.019 C 
ENDBRANCH  11  12
ENDBRANCH   3  11
BRANCH   6  22
ATOM     22  C   UNL     1      35.385 -17.079 -21.565  0.00  0.00    +0.164 C 
BRANCH  22  23
ATOM     23  N   UNL     1      34.878 -18.338 -22.099  0.00  0.00    -0.326 N 
ATOM     24  H   UNL     1      34.684 -18.392 -23.063  0.00  0.00    +0.147 HD
BRANCH  23  25
ATOM     25  C   UNL     1      34.654 -19.453 -21.321  0.00  0.00    +0.045 C 
ATOM     26  C   UNL     1      33.346 -19.930 -21.089  0.00  0.00    +0.014 C 
ATOM     27  C   UNL     1      35.724 -20.155 -20.727  0.00  0.00    +0.014 C 
ATOM     28  C   UNL     1      33.120 -21.057 -20.300  0.00  0.00    +0.004 C 
ATOM     29  C   UNL     1      35.498 -21.282 -19.938  0.00  0.00    +0.004 C 
ATOM     30  C   UNL     1      34.196 -21.733 -19.724  0.00  0.00    +0.031 C 
BRANCH  30  33
ATOM     31  N   UNL     1      34.105 -22.863 -17.515  0.00  0.00    -0.343 N 
ATOM     32  N   UNL     1      33.603 -24.048 -19.465  0.00  0.00    -0.285 NA
ATOM     33  C   UNL     1      33.960 -22.908 -18.900  0.00  0.00    +0.117 C 
ATOM     34  H   UNL     1      33.940 -23.671 -16.976  0.00  0.00    +0.144 HD
ATOM     35  H   UNL     1      34.372 -22.024 -17.075  0.00  0.00    +0.144 HD
ATOM     36  H   UNL     1      33.443 -24.845 -18.909  0.00  0.00    +0.188 HD
ENDBRANCH  30  33
ENDBRANCH  23  25
ENDBRANCH  22  23
ENDBRANCH   6  22
TORSDOF 6
ENDMDL
MODEL 2
REMARK VINA RESULT:     -11.8      2.464      3.815
REMARK  Name = 445756
REMARK  6 active torsions:
REMARK  status: ('A' for Active; 'I' for Inactive)
REMARK    1  A    between atoms: C_3  and  C_11
REMARK    2  A    between atoms: C_6  and  C_22
REMARK    3  A    between atoms: C_11  and  N_12
REMARK    4  A    between atoms: C_22  and  N_23
REMARK    5  A    between atoms: N_23  and  C_25
REMARK    6  A    between atoms: C_30  and  C_33
REMARK                            x       y       z     vdW  Elec       q    Type
REMARK                         _______ _______ _______ _____ _____    ______ ____
ROOT
ATOM      1  N   UNL     1      34.619 -16.482 -22.912  0.00  0.00    -0.261 N 
ATOM      2  N   UNL     1      34.050 -16.908 -25.017  0.00  0.00    -0.392 NA
ATOM      3  C   UNL     1      33.494 -13.213 -25.106  0.00  0.00    -0.017 C 
ATOM      4  C   UNL     1      34.283 -15.268 -23.453  0.00  0.00    +0.079 C 
ATOM      5  C   UNL     1      33.932 -15.561 -24.768  0.00  0.00    +0.128 C 
ATOM      6  C   UNL     1      34.463 -17.430 -23.884  0.00  0.00    +0.183 C 
ATOM      7  C   UNL     1      33.528 -14.517 -25.618  0.00  0.00    +0.084 C 
ATOM      8  C   UNL     1      33.853 -12.951 -23.782  0.00  0.00    -0.005 C 
ATOM      9  C   UNL     1      34.258 -13.977 -22.922  0.00  0.00    +0.017 C 
ATOM     10  C   UNL     1      35.059 -16.714 -21.554  0.00  0.00    +0.120 C 
ENDROOT
BRANCH   3  11
ATOM     11  C   UNL     1      33.069 -12.088 -25.992  0.00  0.00    +0.120 C 
BRANCH  11  12
ATOM     12  N   UNL     1      33.986 -10.948 -25.899  0.00  0.00    -0.260 N 
ATOM     13  N   UNL     1      35.673  -9.614 -26.379  0.00  0.00    -0.394 NA
ATOM     14  C   UNL     1      33.907  -9.950 -24.979  0.00  0.00    +0.079 C 
ATOM     15  C   UNL     1      35.044 -10.719 -26.714  0.00  0.00    +0.164 C 
ATOM     16  C   UNL     1      34.978  -9.121 -25.299  0.00  0.00    +0.128 C 
ATOM     17  C   UNL     1      33.028  -9.695 -23.925  0.00  0.00    +0.017 C 
ATOM     18  C   UNL     1      35.408 -11.620 -27.826  0.00  0.00    +0.084 C 
ATOM     19  C   UNL     1      35.201  -7.965 -24.533  0.00  0.00    +0.086 C 
ATOM     20  C   UNL     1      33.266  -8.540 -23.173  0.00  0.00    -0.003 C 
ATOM     21  C   UNL     1      34.332  -7.688 -23.470  0.00  0.00    -0.019 C 
ENDBRANCH  11  12
ENDBRANCH   3  11
BRANCH   6  22
ATOM     22  C   UNL     1      34.740 -18.860 -23.639  0.00  0.00    +0.164 C 
BRANCH  22  23
ATOM     23  N   UNL     1      35.420 -19.154 -22.382  0.00  0.00    -0.326 N 
ATOM     24  H   UNL     1      36.290 -18.725 -22.210  0.00  0.00    +0.147 HD
BRANCH  23  25
ATOM     25  C   UNL     1      34.907 -20.002 -21.425  0.00  0.00    +0.045 C 
ATOM     26  C   UNL     1      35.752 -20.824 -20.649  0.00  0.00    +0.014 C 
ATOM     27  C   UNL     1      33.518 -20.081 -21.190  0.00  0.00    +0.014 C 
ATOM     28  C   UNL     1      35.232 -21.684 -19.683  0.00  0.00    +0.004 C 
ATOM     29  C   UNL     1      32.998 -20.941 -20.224  0.00  0.00    +0.004 C 
ATOM     30  C   UNL     1      33.854 -21.743 -19.470  0.00  0.00    +0.031 C 
BRANCH  30  33
ATOM     31  N   UNL     1      31.949 -22.669 -18.176  0.00  0.00    -0.343 N 
ATOM     32  N   UNL     1      34.119 -23.449 -17.798  0.00  0.00    -0.285 NA
ATOM     33  C   UNL     1      33.312 -22.641 -18.463  0.00  0.00    +0.117 C 
ATOM     34  H   UNL     1      31.603 -23.286 -17.490  0.00  0.00    +0.144 HD
ATOM     35  H   UNL     1      31.331 -22.073 -18.659  0.00  0.00    +0.144 HD
ATOM     36  H   UNL     1      33.754 -24.057 -17.115  0.00  0.00    +0.188 HD
ENDBRANCH  30  33
ENDBRANCH  23  25
ENDBRANCH  22  23
ENDBRANCH   6  22
TORSDOF 6
ENDMDL
MODEL 3
REMARK VINA RESULT:     -11.5      2.498      3.697
REMARK  Name = 445756
REMARK  6 active torsions:
REMARK  status: ('A' for Active; 'I' for Inactive)
REMARK    1  A    between atoms: C_3  and  C_11
REMARK    2  A    between atoms: C_6  and  C_22
REMARK    3  A    between atoms: C_11  and  N_12
REMARK    4  A    between atoms: C_22  and  N_23
REMARK    5  A    between atoms: N_23  and  C_25
REMARK    6  A    between atoms: C_30  and  C_33
REMARK                            x       y       z     vdW  Elec       q    Type
REMARK                         _______ _______ _______ _____ _____    ______ ____
ROOT
ATOM      1  N   UNL     1      34.607 -16.296 -22.922  0.00  0.00    -0.261 N 
ATOM      2  N   UNL     1      34.094 -16.691 -25.049  0.00  0.00    -0.392 NA
ATOM      3  C   UNL     1      33.496 -13.001 -25.084  0.00  0.00    -0.017 C 
ATOM      4  C   UNL     1      34.270 -15.076 -23.450  0.00  0.00    +0.079 C 
ATOM      5  C   UNL     1      33.954 -15.349 -24.778  0.00  0.00    +0.128 C 
ATOM      6  C   UNL     1      34.487 -17.228 -23.915  0.00  0.00    +0.183 C 
ATOM      7  C   UNL     1      33.558 -14.295 -25.618  0.00  0.00    +0.084 C 
ATOM      8  C   UNL     1      33.820 -12.759 -23.747  0.00  0.00    -0.005 C 
ATOM      9  C   UNL     1      34.216 -13.796 -22.896  0.00  0.00    +0.017 C 
ATOM     10  C   UNL     1      35.018 -16.548 -21.559  0.00  0.00    +0.120 C 
ENDROOT
BRANCH   3  11
ATOM     11  C   UNL     1      33.079 -11.866 -25.959  0.00  0.00    +0.120 C 
BRANCH  11  12
ATOM     12  N   UNL     1      33.991 -10.724 -25.840  0.00  0.00    -0.260 N 
ATOM     13  N   UNL     1      35.675  -9.374 -26.285  0.00  0.00    -0.394 NA
ATOM     14  C   UNL     1      33.903  -9.745 -24.899  0.00  0.00    +0.079 C 
ATOM     15  C   UNL     1      35.052 -10.474 -26.645  0.00  0.00    +0.164 C 
ATOM     16  C   UNL     1      34.973  -8.906 -25.198  0.00  0.00    +0.128 C 
ATOM     17  C   UNL     1      33.019  -9.515 -23.845  0.00  0.00    +0.017 C 
ATOM     18  C   UNL     1      35.424 -11.351 -27.773  0.00  0.00    +0.084 C 
ATOM     19  C   UNL     1      35.188  -7.764 -24.407  0.00  0.00    +0.086 C 
ATOM     20  C   UNL     1      33.249  -8.375 -23.069  0.00  0.00    -0.003 C 
ATOM     21  C   UNL     1      34.314  -7.513 -23.343  0.00  0.00    -0.019 C 
ENDBRANCH  11  12
ENDBRANCH   3  11
BRANCH   6  22
ATOM     22  C   UNL     1      34.775 -18.659 -23.689  0.00  0.00    +0.164 C 
BRANCH  22  23
ATOM     23  N   UNL     1      33.810 -19.362 -22.851  0.00  0.00    -0.326 N 
ATOM     24  H   UNL     1      32.858 -19.327 -23.103  0.00  0.00    +0.147 HD
BRANCH  23  25
ATOM     25  C   UNL     1      34.163 -20.070 -21.723  0.00  0.00    +0.045 C 
ATOM     26  C   UNL     1      33.183 -20.611 -20.863  0.00  0.00    +0.014 C 
ATOM     27  C   UNL     1      35.518 -20.276 -21.386  0.00  0.00    +0.014 C 
ATOM     28  C   UNL     1      33.541 -21.325 -19.721  0.00  0.00    +0.004 C 
ATOM     29  C   UNL     1      35.876 -20.991 -20.243  0.00  0.00    +0.004 C 
ATOM     30  C   UNL     1      34.887 -21.515 -19.410  0.00  0.00    +0.031 C 
BRANCH  30  33
ATOM     31  N   UNL     1      36.521 -22.117 -17.640  0.00  0.00    -0.343 N 
ATOM     32  N   UNL     1      34.397 -23.093 -17.665  0.00  0.00    -0.285 NA
ATOM     33  C   UNL     1      35.261 -22.259 -18.218  0.00  0.00    +0.117 C 
ATOM     34  H   UNL     1      36.752 -22.631 -16.832  0.00  0.00    +0.144 HD
ATOM     35  H   UNL     1      37.179 -21.503 -18.038  0.00  0.00    +0.144 HD
ATOM     36  H   UNL     1      34.648 -23.597 -16.857  0.00  0.00    +0.188 HD
ENDBRANCH  30  33
ENDBRANCH  23  25
ENDBRANCH  22  23
ENDBRANCH   6  22
TORSDOF 6
ENDMDL
MODEL 4
REMARK VINA RESULT:     -11.5      3.116      5.062
REMARK  Name = 445756
REMARK  6 active torsions:
REMARK  status: ('A' for Active; 'I' for Inactive)
REMARK    1  A    between atoms: C_3  and  C_11
REMARK    2  A    between atoms: C_6  and  C_22
REMARK    3  A    between atoms: C_11  and  N_12
REMARK    4  A    between atoms: C_22  and  N_23
REMARK    5  A    between atoms: N_23  and  C_25
REMARK    6  A    between atoms: C_30  and  C_33
REMARK                            x       y       z     vdW  Elec       q    Type
REMARK                         _______ _______ _______ _____ _____    ______ ____
ROOT
ATOM      1  N   UNL     1      33.979 -12.211 -26.337  0.00  0.00    -0.261 N 
ATOM      2  N   UNL     1      33.588 -12.072 -24.153  0.00  0.00    -0.392 NA
ATOM      3  C   UNL     1      34.999  -8.641 -24.611  0.00  0.00    -0.017 C 
ATOM      4  C   UNL     1      34.387 -10.955 -25.971  0.00  0.00    +0.079 C 
ATOM      5  C   UNL     1      34.133 -10.892 -24.604  0.00  0.00    +0.128 C 
ATOM      6  C   UNL     1      33.511 -12.840 -25.217  0.00  0.00    +0.183 C 
ATOM      7  C   UNL     1      34.442  -9.714 -23.903  0.00  0.00    +0.084 C 
ATOM      8  C   UNL     1      35.241  -8.734 -25.983  0.00  0.00    -0.005 C 
ATOM      9  C   UNL     1      34.939  -9.898 -26.697  0.00  0.00    +0.017 C 
ATOM     10  C   UNL     1      34.035 -12.769 -27.669  0.00  0.00    +0.120 C 
ENDROOT
BRANCH   3  11
ATOM     11  C   UNL     1      35.334  -7.379 -23.886  0.00  0.00    +0.120 C 
BRANCH  11  12
ATOM     12  N   UNL     1      34.264  -6.384 -24.004  0.00  0.00    -0.260 N 
ATOM     13  N   UNL     1      32.428  -5.264 -23.525  0.00  0.00    -0.394 NA
ATOM     14  C   UNL     1      34.166  -5.451 -24.988  0.00  0.00    +0.079 C 
ATOM     15  C   UNL     1      33.218  -6.247 -23.154  0.00  0.00    +0.164 C 
ATOM     16  C   UNL     1      33.002  -4.756 -24.667  0.00  0.00    +0.128 C 
ATOM     17  C   UNL     1      34.956  -5.151 -26.097  0.00  0.00    +0.017 C 
ATOM     18  C   UNL     1      33.028  -7.111 -21.971  0.00  0.00    +0.084 C 
ATOM     19  C   UNL     1      32.589  -3.696 -25.492  0.00  0.00    +0.086 C 
ATOM     20  C   UNL     1      34.529  -4.093 -26.907  0.00  0.00    -0.003 C 
ATOM     21  C   UNL     1      33.367  -3.377 -26.611  0.00  0.00    -0.019 C 
ENDBRANCH  11  12
ENDBRANCH   3  11
BRANCH   6  22
ATOM     22  C   UNL     1      32.989 -14.222 -25.251  0.00  0.00    +0.164 C 
BRANCH  22  23
ATOM     23  N   UNL     1      33.994 -15.260 -25.450  0.00  0.00    -0.326 N 
ATOM     24  H   UNL     1      34.430 -15.327 -26.331  0.00  0.00    +0.147 HD
BRANCH  23  25
ATOM     25  C   UNL     1      34.362 -16.153 -24.467  0.00  0.00    +0.045 C 
ATOM     26  C   UNL     1      34.737 -15.709 -23.181  0.00  0.00    +0.014 C 
ATOM     27  C   UNL     1      34.380 -17.542 -24.713  0.00  0.00    +0.014 C 
ATOM     28  C   UNL     1      35.111 -16.613 -22.187  0.00  0.00    +0.004 C 
ATOM     29  C   UNL     1      34.754 -18.446 -23.720  0.00  0.00    +0.004 C 
ATOM     30  C   UNL     1      35.121 -17.981 -22.457  0.00  0.00    +0.031 C 
BRANCH  30  33
ATOM     31  N   UNL     1      36.798 -18.916 -20.882  0.00  0.00    -0.343 N 
ATOM     32  N   UNL     1      34.642 -19.812 -20.976  0.00  0.00    -0.285 NA
ATOM     33  C   UNL     1      35.513 -18.924 -21.421  0.00  0.00    +0.117 C 
ATOM     34  H   UNL     1      37.042 -19.564 -20.181  0.00  0.00    +0.144 HD
ATOM     35  H   UNL     1      37.462 -18.264 -21.203  0.00  0.00    +0.144 HD
ATOM     36  H   UNL     1      34.906 -20.452 -20.274  0.00  0.00    +0.188 HD
ENDBRANCH  30  33
ENDBRANCH  23  25
ENDBRANCH  22  23
ENDBRANCH   6  22
TORSDOF 6
ENDMDL
MODEL 5
REMARK VINA RESULT:     -11.4      4.761      8.502
REMARK  Name = 445756
REMARK  6 active torsions:
REMARK  status: ('A' for Active; 'I' for Inactive)
REMARK    1  A    between atoms: C_3  and  C_11
REMARK    2  A    between atoms: C_6  and  C_22
REMARK    3  A    between atoms: C_11  and  N_12
REMARK    4  A    between atoms: C_22  and  N_23
REMARK    5  A    between atoms: N_23  and  C_25
REMARK    6  A    between atoms: C_30  and  C_33
REMARK                            x       y       z     vdW  Elec       q    Type
REMARK                         _______ _______ _______ _____ _____    ______ ____
ROOT
ATOM      1  N   UNL     1      32.799 -22.159 -18.654  0.00  0.00    -0.261 N 
ATOM      2  N   UNL     1      34.988 -22.542 -18.601  0.00  0.00    -0.392 NA
ATOM      3  C   UNL     1      35.003 -20.026 -21.365  0.00  0.00    -0.017 C 
ATOM      4  C   UNL     1      33.335 -21.355 -19.626  0.00  0.00    +0.079 C 
ATOM      5  C   UNL     1      34.702 -21.612 -19.573  0.00  0.00    +0.128 C 
ATOM      6  C   UNL     1      33.825 -22.849 -18.070  0.00  0.00    +0.183 C 
ATOM      7  C   UNL     1      35.560 -20.937 -20.458  0.00  0.00    +0.084 C 
ATOM      8  C   UNL     1      33.628 -19.789 -21.393  0.00  0.00    -0.005 C 
ATOM      9  C   UNL     1      32.758 -20.451 -20.520  0.00  0.00    +0.017 C 
ATOM     10  C   UNL     1      31.399 -22.258 -18.309  0.00  0.00    +0.120 C 
ENDROOT
BRANCH   3  11
ATOM     11  C   UNL     1      35.898 -19.297 -22.314  0.00  0.00    +0.120 C 
BRANCH  11  12
ATOM     12  N   UNL     1      35.134 -18.600 -23.354  0.00  0.00    -0.260 N 
ATOM     13  N   UNL     1      34.021 -18.279 -25.228  0.00  0.00    -0.394 NA
ATOM     14  C   UNL     1      34.782 -17.288 -23.322  0.00  0.00    +0.079 C 
ATOM     15  C   UNL     1      34.669 -19.159 -24.497  0.00  0.00    +0.164 C 
ATOM     16  C   UNL     1      34.082 -17.106 -24.511  0.00  0.00    +0.128 C 
ATOM     17  C   UNL     1      34.998 -16.266 -22.396  0.00  0.00    +0.017 C 
ATOM     18  C   UNL     1      34.882 -20.580 -24.839  0.00  0.00    +0.084 C 
ATOM     19  C   UNL     1      33.560 -15.836 -24.811  0.00  0.00    +0.086 C 
ATOM     20  C   UNL     1      34.473 -15.009 -22.712  0.00  0.00    -0.003 C 
ATOM     21  C   UNL     1      33.765 -14.796 -23.897  0.00  0.00    -0.019 C 
ENDBRANCH  11  12
ENDBRANCH   3  11
BRANCH   6  22
ATOM     22  C   UNL     1      33.601 -23.814 -16.975  0.00  0.00    +0.164 C 
BRANCH  22  23
ATOM     23  N   UNL     1      34.396 -23.585 -15.773  0.00  0.00    -0.326 N 
ATOM     24  H   UNL     1      34.026 -22.999 -15.073  0.00  0.00    +0.147 HD
BRANCH  23  25
ATOM     25  C   UNL     1      35.638 -24.146 -15.571  0.00  0.00    +0.045 C 
ATOM     26  C   UNL     1      35.781 -25.522 -15.295  0.00  0.00    +0.014 C 
ATOM     27  C   UNL     1      36.810 -23.363 -15.629  0.00  0.00    +0.014 C 
ATOM     28  C   UNL     1      37.038 -26.089 -15.088  0.00  0.00    +0.004 C 
ATOM     29  C   UNL     1      38.067 -23.929 -15.422  0.00  0.00    +0.004 C 
ATOM     30  C   UNL     1      38.181 -25.292 -15.151  0.00  0.00    +0.031 C 
BRANCH  30  33
ATOM     31  N   UNL     1      39.939 -26.207 -13.654  0.00  0.00    -0.343 N 
ATOM     32  N   UNL     1      40.287 -26.119 -15.963  0.00  0.00    -0.285 NA
ATOM     33  C   UNL     1      39.492 -25.883 -14.933  0.00  0.00    +0.117 C 
ATOM     34  H   UNL     1      40.830 -26.607 -13.529  0.00  0.00    +0.144 HD
ATOM     35  H   UNL     1      39.363 -26.037 -12.874  0.00  0.00    +0.144 HD
ATOM     36  H   UNL     1      41.175 -26.519 -15.818  0.00  0.00    +0.188 HD
ENDBRANCH  30  33
ENDBRANCH  23  25
ENDBRANCH  22  23
ENDBRANCH   6  22
TORSDOF 6
ENDMDL
MODEL 6
REMARK VINA RESULT:     -11.3      1.279      2.145
REMARK  Name = 445756
REMARK  6 active torsions:
REMARK  status: ('A' for Active; 'I' for Inactive)
REMARK    1  A    between atoms: C_3  and  C_11
REMARK    2  A    between atoms: C_6  and  C_22
REMARK    3  A    between atoms: C_11  and  N_12
REMARK    4  A    between atoms: C_22  and  N_23
REMARK    5  A    between atoms: N_23  and  C_25
REMARK    6  A    between atoms: C_30  and  C_33
REMARK                            x       y       z     vdW  Elec       q    Type
REMARK                         _______ _______ _______ _____ _____    ______ ____
ROOT
ATOM      1  N   UNL     1      34.138 -15.156 -21.839  0.00  0.00    -0.261 N 
ATOM      2  N   UNL     1      33.995 -14.240 -23.859  0.00  0.00    -0.392 NA
ATOM      3  C   UNL     1      31.794 -11.807 -22.068  0.00  0.00    -0.017 C 
ATOM      4  C   UNL     1      33.319 -14.067 -21.690  0.00  0.00    +0.079 C 
ATOM      5  C   UNL     1      33.245 -13.512 -22.965  0.00  0.00    +0.128 C 
ATOM      6  C   UNL     1      34.515 -15.218 -23.151  0.00  0.00    +0.183 C 
ATOM      7  C   UNL     1      32.469 -12.358 -23.166  0.00  0.00    +0.084 C 
ATOM      8  C   UNL     1      31.888 -12.386 -20.801  0.00  0.00    -0.005 C 
ATOM      9  C   UNL     1      32.656 -13.534 -20.583  0.00  0.00    +0.017 C 
ATOM     10  C   UNL     1      34.530 -16.073 -20.793  0.00  0.00    +0.120 C 
ENDROOT
BRANCH   3  11
ATOM     11  C   UNL     1      30.964 -10.579 -22.259  0.00  0.00    +0.120 C 
BRANCH  11  12
ATOM     12  N   UNL     1      31.754  -9.356 -22.085  0.00  0.00    -0.260 N 
ATOM     13  N   UNL     1      32.682  -7.626 -21.085  0.00  0.00    -0.394 NA
ATOM     14  C   UNL     1      32.439  -8.718 -23.071  0.00  0.00    +0.079 C 
ATOM     15  C   UNL     1      31.918  -8.683 -20.920  0.00  0.00    +0.164 C 
ATOM     16  C   UNL     1      33.016  -7.631 -22.419  0.00  0.00    +0.128 C 
ATOM     17  C   UNL     1      32.609  -8.975 -24.431  0.00  0.00    +0.017 C 
ATOM     18  C   UNL     1      31.302  -9.117 -19.651  0.00  0.00    +0.084 C 
ATOM     19  C   UNL     1      33.813  -6.737 -23.155  0.00  0.00    +0.086 C 
ATOM     20  C   UNL     1      33.404  -8.074 -25.147  0.00  0.00    -0.003 C 
ATOM     21  C   UNL     1      33.997  -6.974 -24.522  0.00  0.00    -0.019 C 
ENDBRANCH  11  12
ENDBRANCH   3  11
BRANCH   6  22
ATOM     22  C   UNL     1      35.406 -16.279 -23.664  0.00  0.00    +0.164 C 
BRANCH  22  23
ATOM     23  N   UNL     1      34.824 -17.616 -23.693  0.00  0.00    -0.326 N 
ATOM     24  H   UNL     1      34.262 -17.865 -24.463  0.00  0.00    +0.147 HD
BRANCH  23  25
ATOM     25  C   UNL     1      35.019 -18.547 -22.696  0.00  0.00    +0.045 C 
ATOM     26  C   UNL     1      36.285 -18.719 -22.096  0.00  0.00    +0.014 C 
ATOM     27  C   UNL     1      33.962 -19.364 -22.243  0.00  0.00    +0.014 C 
ATOM     28  C   UNL     1      36.483 -19.663 -21.089  0.00  0.00    +0.004 C 
ATOM     29  C   UNL     1      34.160 -20.308 -21.236  0.00  0.00    +0.004 C 
ATOM     30  C   UNL     1      35.421 -20.458 -20.659  0.00  0.00    +0.031 C 
BRANCH  30  33
ATOM     31  N   UNL     1      36.569 -21.243 -18.603  0.00  0.00    -0.343 N 
ATOM     32  N   UNL     1      34.917 -22.557 -19.604  0.00  0.00    -0.285 NA
ATOM     33  C   UNL     1      35.628 -21.443 -19.610  0.00  0.00    +0.117 C 
ATOM     34  H   UNL     1      36.693 -21.923 -17.901  0.00  0.00    +0.144 HD
ATOM     35  H   UNL     1      37.111 -20.420 -18.591  0.00  0.00    +0.144 HD
ATOM     36  H   UNL     1      35.056 -23.226 -18.894  0.00  0.00    +0.188 HD
ENDBRANCH  30  33
ENDBRANCH  23  25
ENDBRANCH  22  23
ENDBRANCH   6  22
TORSDOF 6
ENDMDL
MODEL 7
REMARK VINA RESULT:     -11.2      2.796      3.711
REMARK  Name = 445756
REMARK  6 active torsions:
REMARK  status: ('A' for Active; 'I' for Inactive)
REMARK    1  A    between atoms: C_3  and  C_11
REMARK    2  A    between atoms: C_6  and  C_22
REMARK    3  A    between atoms: C_11  and  N_12
REMARK    4  A    between atoms: C_22  and  N_23
REMARK    5  A    between atoms: N_23  and  C_25
REMARK    6  A    between atoms: C_30  and  C_33
REMARK                            x       y       z     vdW  Elec       q    Type
REMARK                         _______ _______ _______ _____ _____    ______ ____
ROOT
ATOM      1  N   UNL     1      34.095 -14.983 -23.605  0.00  0.00    -0.261 N 
ATOM      2  N   UNL     1      33.818 -15.189 -25.801  0.00  0.00    -0.392 NA
ATOM      3  C   UNL     1      33.388 -11.482 -25.606  0.00  0.00    -0.017 C 
ATOM      4  C   UNL     1      33.874 -13.711 -24.067  0.00  0.00    +0.079 C 
ATOM      5  C   UNL     1      33.705 -13.867 -25.440  0.00  0.00    +0.128 C 
ATOM      6  C   UNL     1      34.051 -15.830 -24.677  0.00  0.00    +0.183 C 
ATOM      7  C   UNL     1      33.456 -12.733 -26.232  0.00  0.00    +0.084 C 
ATOM      8  C   UNL     1      33.563 -11.358 -24.226  0.00  0.00    -0.005 C 
ATOM      9  C   UNL     1      33.811 -12.475 -23.422  0.00  0.00    +0.017 C 
ATOM     10  C   UNL     1      34.331 -15.358 -22.229  0.00  0.00    +0.120 C 
ENDROOT
BRANCH   3  11
ATOM     11  C   UNL     1      33.126 -10.263 -26.428  0.00  0.00    +0.120 C 
BRANCH  11  12
ATOM     12  N   UNL     1      33.731  -9.066 -25.836  0.00  0.00    -0.260 N 
ATOM     13  N   UNL     1      35.289  -7.676 -25.132  0.00  0.00    -0.394 NA
ATOM     14  C   UNL     1      33.043  -8.007 -25.333  0.00  0.00    +0.079 C 
ATOM     15  C   UNL     1      35.060  -8.839 -25.701  0.00  0.00    +0.164 C 
ATOM     16  C   UNL     1      34.043  -7.143 -24.895  0.00  0.00    +0.128 C 
ATOM     17  C   UNL     1      31.681  -7.723 -25.220  0.00  0.00    +0.017 C 
ATOM     18  C   UNL     1      36.086  -9.801 -26.150  0.00  0.00    +0.084 C 
ATOM     19  C   UNL     1      33.681  -5.919 -24.307  0.00  0.00    +0.086 C 
ATOM     20  C   UNL     1      31.340  -6.501 -24.631  0.00  0.00    -0.003 C 
ATOM     21  C   UNL     1      32.320  -5.613 -24.183  0.00  0.00    -0.019 C 
ENDBRANCH  11  12
ENDBRANCH   3  11
BRANCH   6  22
ATOM     22  C   UNL     1      34.249 -17.287 -24.536  0.00  0.00    +0.164 C 
BRANCH  22  23
ATOM     23  N   UNL     1      35.498 -17.684 -23.896  0.00  0.00    -0.326 N 
ATOM     24  H   UNL     1      36.339 -17.298 -24.232  0.00  0.00    +0.147 HD
BRANCH  23  25
ATOM     25  C   UNL     1      35.559 -18.575 -22.846  0.00  0.00    +0.045 C 
ATOM     26  C   UNL     1      34.455 -19.390 -22.515  0.00  0.00    +0.014 C 
ATOM     27  C   UNL     1      36.727 -18.703 -22.065  0.00  0.00    +0.014 C 
ATOM     28  C   UNL     1      34.517 -20.290 -21.451  0.00  0.00    +0.004 C 
ATOM     29  C   UNL     1      36.788 -19.602 -21.001  0.00  0.00    +0.004 C 
ATOM     30  C   UNL     1      35.683 -20.395 -20.694  0.00  0.00    +0.031 C 
BRANCH  30  33
ATOM     31  N   UNL     1      36.616 -21.131 -18.514  0.00  0.00    -0.343 N 
ATOM     32  N   UNL     1      34.972 -22.404 -19.582  0.00  0.00    -0.285 NA
ATOM     33  C   UNL     1      35.747 -21.333 -19.584  0.00  0.00    +0.117 C 
ATOM     34  H   UNL     1      36.642 -21.779 -17.772  0.00  0.00    +0.144 HD
ATOM     35  H   UNL     1      37.203 -20.341 -18.498  0.00  0.00    +0.144 HD
ATOM     36  H   UNL     1      35.014 -23.040 -18.831  0.00  0.00    +0.188 HD
ENDBRANCH  30  33
ENDBRANCH  23  25
ENDBRANCH  22  23
ENDBRANCH   6  22
TORSDOF 6
ENDMDL
MODEL 8
REMARK VINA RESULT:     -11.1      4.604      8.464
REMARK  Name = 445756
REMARK  6 active torsions:
REMARK  status: ('A' for Active; 'I' for Inactive)
REMARK    1  A    between atoms: C_3  and  C_11
REMARK    2  A    between atoms: C_6  and  C_22
REMARK    3  A    between atoms: C_11  and  N_12
REMARK    4  A    between atoms: C_22  and  N_23
REMARK    5  A    between atoms: N_23  and  C_25
REMARK    6  A    between atoms: C_30  and  C_33
REMARK                            x       y       z     vdW  Elec       q    Type
REMARK                         _______ _______ _______ _____ _____    ______ ____
ROOT
ATOM      1  N   UNL     1      32.979 -22.103 -18.889  0.00  0.00    -0.261 N 
ATOM      2  N   UNL     1      35.174 -22.446 -18.948  0.00  0.00    -0.392 NA
ATOM      3  C   UNL     1      35.038 -19.746 -21.529  0.00  0.00    -0.017 C 
ATOM      4  C   UNL     1      33.462 -21.224 -19.824  0.00  0.00    +0.079 C 
ATOM      5  C   UNL     1      34.834 -21.457 -19.842  0.00  0.00    +0.128 C 
ATOM      6  C   UNL     1      34.039 -22.811 -18.395  0.00  0.00    +0.183 C 
ATOM      7  C   UNL     1      35.645 -20.707 -20.709  0.00  0.00    +0.084 C 
ATOM      8  C   UNL     1      33.658 -19.535 -21.488  0.00  0.00    -0.005 C 
ATOM      9  C   UNL     1      32.835 -20.272 -20.630  0.00  0.00    +0.017 C 
ATOM     10  C   UNL     1      31.595 -22.252 -18.499  0.00  0.00    +0.120 C 
ENDROOT
BRANCH   3  11
ATOM     11  C   UNL     1      35.881 -18.936 -22.458  0.00  0.00    +0.120 C 
BRANCH  11  12
ATOM     12  N   UNL     1      35.075 -18.277 -23.490  0.00  0.00    -0.260 N 
ATOM     13  N   UNL     1      33.898 -18.018 -25.335  0.00  0.00    -0.394 NA
ATOM     14  C   UNL     1      34.703 -16.969 -23.478  0.00  0.00    +0.079 C 
ATOM     15  C   UNL     1      34.582 -18.870 -24.604  0.00  0.00    +0.164 C 
ATOM     16  C   UNL     1      33.962 -16.827 -24.649  0.00  0.00    +0.128 C 
ATOM     17  C   UNL     1      34.932 -15.923 -22.584  0.00  0.00    +0.017 C 
ATOM     18  C   UNL     1      34.807 -20.296 -24.919  0.00  0.00    +0.084 C 
ATOM     19  C   UNL     1      33.411 -15.573 -24.961  0.00  0.00    +0.086 C 
ATOM     20  C   UNL     1      34.377 -14.682 -22.913  0.00  0.00    -0.003 C 
ATOM     21  C   UNL     1      33.629 -14.508 -24.079  0.00  0.00    -0.019 C 
ENDBRANCH  11  12
ENDBRANCH   3  11
BRANCH   6  22
ATOM     22  C   UNL     1      33.874 -23.853 -17.362  0.00  0.00    +0.164 C 
BRANCH  22  23
ATOM     23  N   UNL     1      33.499 -23.363 -16.040  0.00  0.00    -0.326 N 
ATOM     24  H   UNL     1      32.632 -22.906 -15.939  0.00  0.00    +0.147 HD
BRANCH  23  25
ATOM     25  C   UNL     1      34.298 -23.505 -14.927  0.00  0.00    +0.045 C 
ATOM     26  C   UNL     1      35.657 -23.125 -14.950  0.00  0.00    +0.014 C 
ATOM     27  C   UNL     1      33.786 -24.039 -13.725  0.00  0.00    +0.014 C 
ATOM     28  C   UNL     1      36.466 -23.271 -13.824  0.00  0.00    +0.004 C 
ATOM     29  C   UNL     1      34.595 -24.185 -12.599  0.00  0.00    +0.004 C 
ATOM     30  C   UNL     1      35.935 -23.802 -12.648  0.00  0.00    +0.031 C 
BRANCH  30  33
ATOM     31  N   UNL     1      38.169 -23.923 -11.571  0.00  0.00    -0.343 N 
ATOM     32  N   UNL     1      36.229 -24.133 -10.286  0.00  0.00    -0.285 NA
ATOM     33  C   UNL     1      36.780 -23.955 -11.474  0.00  0.00    +0.117 C 
ATOM     34  H   UNL     1      38.722 -24.029 -10.762  0.00  0.00    +0.144 HD
ATOM     35  H   UNL     1      38.599 -23.795 -12.447  0.00  0.00    +0.144 HD
ATOM     36  H   UNL     1      36.799 -24.237  -9.489  0.00  0.00    +0.188 HD
ENDBRANCH  30  33
ENDBRANCH  23  25
ENDBRANCH  22  23
ENDBRANCH   6  22
TORSDOF 6
ENDMDL
MODEL 9
REMARK VINA RESULT:     -10.9      2.103      3.002
REMARK  Name = 445756
REMARK  6 active torsions:
REMARK  status: ('A' for Active; 'I' for Inactive)
REMARK    1  A    between atoms: C_3  and  C_11
REMARK    2  A    between atoms: C_6  and  C_22
REMARK    3  A    between atoms: C_11  and  N_12
REMARK    4  A    between atoms: C_22  and  N_23
REMARK    5  A    between atoms: N_23  and  C_25
REMARK    6  A    between atoms: C_30  and  C_33
REMARK                            x       y       z     vdW  Elec       q    Type
REMARK                         _______ _______ _______ _____ _____    ______ ____
ROOT
ATOM      1  N   UNL     1      34.285 -15.754 -24.115  0.00  0.00    -0.261 N 
ATOM      2  N   UNL     1      34.423 -14.141 -22.592  0.00  0.00    -0.392 NA
ATOM      3  C   UNL     1      33.425 -11.992 -25.482  0.00  0.00    -0.017 C 
ATOM      4  C   UNL     1      33.962 -14.597 -24.776  0.00  0.00    +0.079 C 
ATOM      5  C   UNL     1      34.056 -13.605 -23.804  0.00  0.00    +0.128 C 
ATOM      6  C   UNL     1      34.552 -15.430 -22.814  0.00  0.00    +0.183 C 
ATOM      7  C   UNL     1      33.782 -12.273 -24.157  0.00  0.00    +0.084 C 
ATOM      8  C   UNL     1      33.339 -13.009 -26.435  0.00  0.00    -0.005 C 
ATOM      9  C   UNL     1      33.607 -14.341 -26.102  0.00  0.00    +0.017 C 
ATOM     10  C   UNL     1      34.332 -17.078 -24.693  0.00  0.00    +0.120 C 
ENDROOT
BRANCH   3  11
ATOM     11  C   UNL     1      33.129 -10.583 -25.879  0.00  0.00    +0.120 C 
BRANCH  11  12
ATOM     12  N   UNL     1      33.781  -9.618 -24.988  0.00  0.00    -0.260 N 
ATOM     13  N   UNL     1      35.372  -8.379 -24.100  0.00  0.00    -0.394 NA
ATOM     14  C   UNL     1      33.164  -8.935 -23.987  0.00  0.00    +0.079 C 
ATOM     15  C   UNL     1      35.089  -9.267 -25.028  0.00  0.00    +0.164 C 
ATOM     16  C   UNL     1      34.184  -8.160 -23.441  0.00  0.00    +0.128 C 
ATOM     17  C   UNL     1      31.851  -8.915 -23.516  0.00  0.00    +0.017 C 
ATOM     18  C   UNL     1      36.040  -9.831 -26.006  0.00  0.00    +0.084 C 
ATOM     19  C   UNL     1      33.894  -7.310 -22.361  0.00  0.00    +0.086 C 
ATOM     20  C   UNL     1      31.581  -8.063 -22.440  0.00  0.00    -0.003 C 
ATOM     21  C   UNL     1      32.583  -7.273 -21.871  0.00  0.00    -0.019 C 
ENDBRANCH  11  12
ENDBRANCH   3  11
BRANCH   6  22
ATOM     22  C   UNL     1      34.937 -16.447 -21.814  0.00  0.00    +0.164 C 
BRANCH  22  23
ATOM     23  N   UNL     1      35.124 -17.794 -22.340  0.00  0.00    -0.326 N 
ATOM     24  H   UNL     1      35.384 -17.896 -23.284  0.00  0.00    +0.147 HD
BRANCH  23  25
ATOM     25  C   UNL     1      34.952 -18.932 -21.581  0.00  0.00    +0.045 C 
ATOM     26  C   UNL     1      33.668 -19.473 -21.358  0.00  0.00    +0.014 C 
ATOM     27  C   UNL     1      36.054 -19.593 -20.999  0.00  0.00    +0.014 C 
ATOM     28  C   UNL     1      33.494 -20.623 -20.588  0.00  0.00    +0.004 C 
ATOM     29  C   UNL     1      35.880 -20.743 -20.229  0.00  0.00    +0.004 C 
ATOM     30  C   UNL     1      34.600 -21.258 -20.023  0.00  0.00    +0.031 C 
BRANCH  30  33
ATOM     31  N   UNL     1      33.453 -23.407 -19.543  0.00  0.00    -0.343 N 
ATOM     32  N   UNL     1      35.177 -22.657 -18.156  0.00  0.00    -0.285 NA
ATOM     33  C   UNL     1      34.419 -22.456 -19.220  0.00  0.00    +0.117 C 
ATOM     34  H   UNL     1      33.347 -24.212 -18.985  0.00  0.00    +0.144 HD
ATOM     35  H   UNL     1      32.876 -23.275 -20.330  0.00  0.00    +0.144 HD
ATOM     36  H   UNL     1      35.056 -23.468 -17.611  0.00  0.00    +0.188 HD
ENDBRANCH  30  33
ENDBRANCH  23  25
ENDBRANCH  22  23
ENDBRANCH   6  22
TORSDOF 6
ENDMDL
