MODEL 1
REMARK VINA RESULT:     -12.2      0.000      0.000
REMARK  Name = 11974440
REMARK  4 active torsions:
REMARK  status: ('A' for Active; 'I' for Inactive)
REMARK    1  A    between atoms: C_1  and  C_25
REMARK    2  A    between atoms: C_2  and  N_31
REMARK    3  A    between atoms: C_5  and  C_12
REMARK    4  A    between atoms: C_17  and  C_21
REMARK                            x       y       z     vdW  Elec       q    Type
REMARK                         _______ _______ _______ _____ _____    ______ ____
ROOT
ATOM      1  C   UNL     1      34.440 -19.953 -20.617  0.00  0.00    +0.009 C 
ATOM      2  C   UNL     1      35.507 -21.067 -20.456  0.00  0.00    -0.057 C 
ATOM      3  C   UNL     1      35.312 -21.812 -19.120  0.00  0.00    +0.009 C 
ATOM      4  C   UNL     1      33.016 -20.554 -20.559  0.00  0.00    +0.028 C 
ATOM      5  C   UNL     1      33.877 -22.149 -18.846  0.00  0.00    +0.025 C 
ATOM      6  C   UNL     1      32.843 -21.597 -19.494  0.00  0.00    -0.026 C 
ENDROOT
BRANCH   5  12
ATOM      7  O   UNL     1      32.590 -23.877 -17.980  0.00  0.00    -0.270 OA
ATOM      8  N   UNL     1      34.438 -23.242 -16.721  0.00  0.00    -0.267 N 
ATOM      9  N   UNL     1      36.671 -24.339 -15.535  0.00  0.00    -0.292 N 
ATOM     10  N   UNL     1      35.626 -25.931 -14.471  0.00  0.00    -0.132 NA
ATOM     11  N   UNL     1      36.989 -26.098 -14.298  0.00  0.00    -0.125 NA
ATOM     12  C   UNL     1      33.578 -23.160 -17.812  0.00  0.00    +0.245 C 
ATOM     13  C   UNL     1      35.585 -22.352 -16.449  0.00  0.00    +0.119 C 
ATOM     14  C   UNL     1      34.174 -24.248 -15.680  0.00  0.00    +0.160 C 
ATOM     15  C   UNL     1      36.870 -23.173 -16.369  0.00  0.00    +0.130 C 
ATOM     16  C   UNL     1      35.447 -24.865 -15.223  0.00  0.00    +0.164 A 
ATOM     17  C   UNL     1      37.599 -25.130 -14.946  0.00  0.00    +0.238 A 
BRANCH  17  21
ATOM     18  F   UNL     1      39.736 -25.924 -15.671  0.00  0.00    -0.163 F 
ATOM     19  F   UNL     1      39.402 -23.783 -15.755  0.00  0.00    -0.163 F 
ATOM     20  F   UNL     1      39.669 -24.765 -13.833  0.00  0.00    -0.163 F 
ATOM     21  C   UNL     1      39.051 -24.909 -15.050  0.00  0.00    +0.452 C 
ENDBRANCH  17  21
ENDBRANCH   5  12
BRANCH   1  25
ATOM     22  F   UNL     1      35.393 -17.280 -20.592  0.00  0.00    -0.204 F 
ATOM     23  F   UNL     1      34.112 -19.412 -25.462  0.00  0.00    -0.202 F 
ATOM     24  F   UNL     1      35.043 -16.848 -25.291  0.00  0.00    -0.202 F 
ATOM     25  C   UNL     1      34.605 -19.114 -21.875  0.00  0.00    +0.006 C 
ATOM     26  C   UNL     1      35.079 -17.810 -21.782  0.00  0.00    +0.138 C 
ATOM     27  C   UNL     1      34.277 -19.660 -23.113  0.00  0.00    +0.030 C 
ATOM     28  C   UNL     1      34.426 -18.893 -24.268  0.00  0.00    +0.167 C 
ATOM     29  C   UNL     1      35.228 -17.043 -22.937  0.00  0.00    +0.061 C 
ATOM     30  C   UNL     1      34.902 -17.585 -24.181  0.00  0.00    +0.170 C 
ENDBRANCH   1  25
BRANCH   2  31
ATOM     31  N   UNL     1      36.866 -20.520 -20.511  0.00  0.00    +0.382 N 
ATOM     32  H   UNL     1      36.819 -19.503 -20.588  0.00  0.00    -0.089 HD
ATOM     33  H   UNL     1      37.352 -20.900 -21.322  0.00  0.00    -0.089 HD
ATOM     34  H   UNL     1      37.369 -20.773 -19.661  0.00  0.00    -0.089 HD
ENDBRANCH   2  31
TORSDOF 4
ENDMDL
MODEL 2
REMARK VINA RESULT:     -11.6      3.810      4.736
REMARK  Name = 11974440
REMARK  4 active torsions:
REMARK  status: ('A' for Active; 'I' for Inactive)
REMARK    1  A    between atoms: C_1  and  C_25
REMARK    2  A    between atoms: C_2  and  N_31
REMARK    3  A    between atoms: C_5  and  C_12
REMARK    4  A    between atoms: C_17  and  C_21
REMARK                            x       y       z     vdW  Elec       q    Type
REMARK                         _______ _______ _______ _____ _____    ______ ____
ROOT
ATOM      1  C   UNL     1      34.981 -19.869 -21.802  0.00  0.00    +0.009 C 
ATOM      2  C   UNL     1      33.798 -20.015 -20.810  0.00  0.00    -0.057 C 
ATOM      3  C   UNL     1      34.022 -21.221 -19.876  0.00  0.00    +0.009 C 
ATOM      4  C   UNL     1      36.313 -19.694 -21.035  0.00  0.00    +0.028 C 
ATOM      5  C   UNL     1      35.420 -21.290 -19.340  0.00  0.00    +0.025 C 
ATOM      6  C   UNL     1      36.450 -20.600 -19.847  0.00  0.00    -0.026 C 
ENDROOT
BRANCH   5  12
ATOM      7  O   UNL     1      36.770 -22.038 -17.604  0.00  0.00    -0.270 OA
ATOM      8  N   UNL     1      34.680 -23.039 -17.785  0.00  0.00    -0.267 N 
ATOM      9  N   UNL     1      32.452 -23.580 -16.256  0.00  0.00    -0.292 N 
ATOM     10  N   UNL     1      33.515 -24.500 -14.589  0.00  0.00    -0.132 NA
ATOM     11  N   UNL     1      32.176 -24.392 -14.258  0.00  0.00    -0.125 NA
ATOM     12  C   UNL     1      35.683 -22.155 -18.172  0.00  0.00    +0.245 C 
ATOM     13  C   UNL     1      33.399 -23.261 -18.484  0.00  0.00    +0.119 C 
ATOM     14  C   UNL     1      34.907 -23.906 -16.617  0.00  0.00    +0.160 C 
ATOM     15  C   UNL     1      32.236 -22.955 -17.543  0.00  0.00    +0.130 C 
ATOM     16  C   UNL     1      33.670 -24.003 -15.799  0.00  0.00    +0.164 A 
ATOM     17  C   UNL     1      31.555 -23.836 -15.274  0.00  0.00    +0.238 A 
BRANCH  17  21
ATOM     18  F   UNL     1      29.805 -22.222 -15.028  0.00  0.00    -0.163 F 
ATOM     19  F   UNL     1      29.589 -23.671 -16.627  0.00  0.00    -0.163 F 
ATOM     20  F   UNL     1      29.333 -24.292 -14.559  0.00  0.00    -0.163 F 
ATOM     21  C   UNL     1      30.120 -23.514 -15.370  0.00  0.00    +0.452 C 
ENDBRANCH  17  21
ENDBRANCH   5  12
BRANCH   1  25
ATOM     22  F   UNL     1      34.389 -20.320 -24.540  0.00  0.00    -0.204 F 
ATOM     23  F   UNL     1      34.912 -15.117 -22.939  0.00  0.00    -0.202 F 
ATOM     24  F   UNL     1      34.341 -15.697 -25.548  0.00  0.00    -0.202 F 
ATOM     25  C   UNL     1      34.807 -18.746 -22.813  0.00  0.00    +0.006 C 
ATOM     26  C   UNL     1      34.517 -19.047 -24.140  0.00  0.00    +0.138 C 
ATOM     27  C   UNL     1      34.941 -17.423 -22.402  0.00  0.00    +0.030 C 
ATOM     28  C   UNL     1      34.783 -16.392 -23.328  0.00  0.00    +0.167 C 
ATOM     29  C   UNL     1      34.358 -18.016 -25.065  0.00  0.00    +0.061 C 
ATOM     30  C   UNL     1      34.491 -16.688 -24.659  0.00  0.00    +0.170 C 
ENDBRANCH   1  25
BRANCH   2  31
ATOM     31  N   UNL     1      32.524 -20.178 -21.515  0.00  0.00    +0.382 N 
ATOM     32  H   UNL     1      31.811 -19.602 -21.066  0.00  0.00    -0.089 HD
ATOM     33  H   UNL     1      32.240 -21.156 -21.482  0.00  0.00    -0.089 HD
ATOM     34  H   UNL     1      32.633 -19.886 -22.486  0.00  0.00    -0.089 HD
ENDBRANCH   2  31
TORSDOF 4
ENDMDL
MODEL 3
REMARK VINA RESULT:     -11.2      1.547      1.977
REMARK  Name = 11974440
REMARK  4 active torsions:
REMARK  status: ('A' for Active; 'I' for Inactive)
REMARK    1  A    between atoms: C_1  and  C_25
REMARK    2  A    between atoms: C_2  and  N_31
REMARK    3  A    between atoms: C_5  and  C_12
REMARK    4  A    between atoms: C_17  and  C_21
REMARK                            x       y       z     vdW  Elec       q    Type
REMARK                         _______ _______ _______ _____ _____    ______ ____
ROOT
ATOM      1  C   UNL     1      34.807 -21.334 -20.202  0.00  0.00    +0.009 C 
ATOM      2  C   UNL     1      33.420 -21.234 -19.514  0.00  0.00    -0.057 C 
ATOM      3  C   UNL     1      33.206 -22.422 -18.555  0.00  0.00    +0.009 C 
ATOM      4  C   UNL     1      35.936 -21.360 -19.145  0.00  0.00    +0.028 C 
ATOM      5  C   UNL     1      34.408 -22.708 -17.707  0.00  0.00    +0.025 C 
ATOM      6  C   UNL     1      35.633 -22.227 -17.958  0.00  0.00    -0.026 C 
ENDROOT
BRANCH   5  12
ATOM      7  O   UNL     1      33.175 -24.167 -16.386  0.00  0.00    -0.270 OA
ATOM      8  N   UNL     1      35.296 -23.620 -15.608  0.00  0.00    -0.267 N 
ATOM      9  N   UNL     1      37.615 -24.834 -14.747  0.00  0.00    -0.292 N 
ATOM     10  N   UNL     1      36.672 -26.166 -13.299  0.00  0.00    -0.132 NA
ATOM     11  N   UNL     1      38.020 -26.472 -13.375  0.00  0.00    -0.125 NA
ATOM     12  C   UNL     1      34.238 -23.557 -16.510  0.00  0.00    +0.245 C 
ATOM     13  C   UNL     1      36.551 -22.846 -15.684  0.00  0.00    +0.119 C 
ATOM     14  C   UNL     1      35.162 -24.467 -14.412  0.00  0.00    +0.160 C 
ATOM     15  C   UNL     1      37.743 -23.799 -15.749  0.00  0.00    +0.130 C 
ATOM     16  C   UNL     1      36.439 -25.175 -14.136  0.00  0.00    +0.164 A 
ATOM     17  C   UNL     1      38.568 -25.660 -14.252  0.00  0.00    +0.238 A 
BRANCH  17  21
ATOM     18  F   UNL     1      40.764 -26.595 -14.095  0.00  0.00    -0.163 F 
ATOM     19  F   UNL     1      40.177 -25.780 -16.017  0.00  0.00    -0.163 F 
ATOM     20  F   UNL     1      40.608 -24.443 -14.357  0.00  0.00    -0.163 F 
ATOM     21  C   UNL     1      39.981 -25.623 -14.667  0.00  0.00    +0.452 C 
ENDBRANCH  17  21
ENDBRANCH   5  12
BRANCH   1  25
ATOM     22  F   UNL     1      37.128 -19.703 -20.171  0.00  0.00    -0.204 F 
ATOM     23  F   UNL     1      33.495 -18.773 -24.152  0.00  0.00    -0.202 F 
ATOM     24  F   UNL     1      35.778 -17.277 -24.002  0.00  0.00    -0.202 F 
ATOM     25  C   UNL     1      35.071 -20.241 -21.226  0.00  0.00    +0.006 C 
ATOM     26  C   UNL     1      36.235 -19.482 -21.145  0.00  0.00    +0.138 C 
ATOM     27  C   UNL     1      34.144 -20.006 -22.237  0.00  0.00    +0.030 C 
ATOM     28  C   UNL     1      34.384 -19.004 -23.176  0.00  0.00    +0.167 C 
ATOM     29  C   UNL     1      36.474 -18.480 -22.085  0.00  0.00    +0.061 C 
ATOM     30  C   UNL     1      35.549 -18.241 -23.101  0.00  0.00    +0.170 C 
ENDBRANCH   1  25
BRANCH   2  31
ATOM     31  N   UNL     1      32.334 -21.204 -20.499  0.00  0.00    +0.382 N 
ATOM     32  H   UNL     1      31.496 -20.813 -20.068  0.00  0.00    -0.089 HD
ATOM     33  H   UNL     1      32.140 -22.152 -20.819  0.00  0.00    -0.089 HD
ATOM     34  H   UNL     1      32.610 -20.625 -21.292  0.00  0.00    -0.089 HD
ENDBRANCH   2  31
TORSDOF 4
ENDMDL
MODEL 4
REMARK VINA RESULT:     -11.1      3.552      4.327
REMARK  Name = 11974440
REMARK  4 active torsions:
REMARK  status: ('A' for Active; 'I' for Inactive)
REMARK    1  A    between atoms: C_1  and  C_25
REMARK    2  A    between atoms: C_2  and  N_31
REMARK    3  A    between atoms: C_5  and  C_12
REMARK    4  A    between atoms: C_17  and  C_21
REMARK                            x       y       z     vdW  Elec       q    Type
REMARK                         _______ _______ _______ _____ _____    ______ ____
ROOT
ATOM      1  C   UNL     1      34.882 -20.376 -21.338  0.00  0.00    +0.009 C 
ATOM      2  C   UNL     1      33.760 -20.443 -20.270  0.00  0.00    -0.057 C 
ATOM      3  C   UNL     1      34.014 -21.608 -19.292  0.00  0.00    +0.009 C 
ATOM      4  C   UNL     1      36.263 -20.199 -20.664  0.00  0.00    +0.028 C 
ATOM      5  C   UNL     1      35.440 -21.687 -18.840  0.00  0.00    +0.025 C 
ATOM      6  C   UNL     1      36.453 -21.050 -19.442  0.00  0.00    -0.026 C 
ENDROOT
BRANCH   5  12
ATOM      7  O   UNL     1      36.871 -22.369 -17.141  0.00  0.00    -0.270 OA
ATOM      8  N   UNL     1      34.767 -23.357 -17.172  0.00  0.00    -0.267 N 
ATOM      9  N   UNL     1      32.615 -23.808 -15.511  0.00  0.00    -0.292 N 
ATOM     10  N   UNL     1      33.754 -24.662 -13.859  0.00  0.00    -0.132 NA
ATOM     11  N   UNL     1      32.434 -24.527 -13.467  0.00  0.00    -0.125 NA
ATOM     12  C   UNL     1      35.756 -22.502 -17.648  0.00  0.00    +0.245 C 
ATOM     13  C   UNL     1      33.451 -23.598 -17.796  0.00  0.00    +0.119 C 
ATOM     14  C   UNL     1      35.046 -24.173 -15.979  0.00  0.00    +0.160 C 
ATOM     15  C   UNL     1      32.339 -23.240 -16.812  0.00  0.00    +0.130 C 
ATOM     16  C   UNL     1      33.851 -24.222 -15.096  0.00  0.00    +0.164 A 
ATOM     17  C   UNL     1      31.766 -24.011 -14.475  0.00  0.00    +0.238 A 
BRANCH  17  21
ATOM     18  F   UNL     1      30.057 -22.395 -14.911  0.00  0.00    -0.163 F 
ATOM     19  F   UNL     1      29.594 -24.464 -15.367  0.00  0.00    -0.163 F 
ATOM     20  F   UNL     1      29.710 -23.810 -13.297  0.00  0.00    -0.163 F 
ATOM     21  C   UNL     1      30.331 -23.680 -14.514  0.00  0.00    +0.452 C 
ENDBRANCH  17  21
ENDBRANCH   5  12
BRANCH   1  25
ATOM     22  F   UNL     1      35.866 -17.728 -21.076  0.00  0.00    -0.204 F 
ATOM     23  F   UNL     1      33.084 -18.901 -25.636  0.00  0.00    -0.202 F 
ATOM     24  F   UNL     1      34.090 -16.388 -25.252  0.00  0.00    -0.202 F 
ATOM     25  C   UNL     1      34.671 -19.300 -22.392  0.00  0.00    +0.006 C 
ATOM     26  C   UNL     1      35.185 -18.023 -22.192  0.00  0.00    +0.138 C 
ATOM     27  C   UNL     1      33.962 -19.602 -23.551  0.00  0.00    +0.030 C 
ATOM     28  C   UNL     1      33.766 -18.617 -24.518  0.00  0.00    +0.167 C 
ATOM     29  C   UNL     1      34.990 -17.038 -23.159  0.00  0.00    +0.061 C 
ATOM     30  C   UNL     1      34.280 -17.335 -24.323  0.00  0.00    +0.170 C 
ENDBRANCH   1  25
BRANCH   2  31
ATOM     31  N   UNL     1      32.441 -20.607 -20.887  0.00  0.00    +0.382 N 
ATOM     32  H   UNL     1      31.970 -21.411 -20.472  0.00  0.00    -0.089 HD
ATOM     33  H   UNL     1      32.551 -20.756 -21.889  0.00  0.00    -0.089 HD
ATOM     34  H   UNL     1      31.884 -19.767 -20.726  0.00  0.00    -0.089 HD
ENDBRANCH   2  31
TORSDOF 4
ENDMDL
MODEL 5
REMARK VINA RESULT:     -11.1      0.738      1.498
REMARK  Name = 11974440
REMARK  4 active torsions:
REMARK  status: ('A' for Active; 'I' for Inactive)
REMARK    1  A    between atoms: C_1  and  C_25
REMARK    2  A    between atoms: C_2  and  N_31
REMARK    3  A    between atoms: C_5  and  C_12
REMARK    4  A    between atoms: C_17  and  C_21
REMARK                            x       y       z     vdW  Elec       q    Type
REMARK                         _______ _______ _______ _____ _____    ______ ____
ROOT
ATOM      1  C   UNL     1      34.515 -19.821 -20.551  0.00  0.00    +0.009 C 
ATOM      2  C   UNL     1      35.620 -20.894 -20.371  0.00  0.00    -0.057 C 
ATOM      3  C   UNL     1      35.381 -21.705 -19.081  0.00  0.00    +0.009 C 
ATOM      4  C   UNL     1      33.119 -20.485 -20.605  0.00  0.00    +0.028 C 
ATOM      5  C   UNL     1      33.949 -22.114 -18.909  0.00  0.00    +0.025 C 
ATOM      6  C   UNL     1      32.931 -21.580 -19.596  0.00  0.00    -0.026 C 
ENDROOT
BRANCH   5  12
ATOM      7  O   UNL     1      32.679 -23.918 -18.183  0.00  0.00    -0.270 OA
ATOM      8  N   UNL     1      34.450 -23.291 -16.814  0.00  0.00    -0.267 N 
ATOM      9  N   UNL     1      36.661 -24.379 -15.580  0.00  0.00    -0.292 N 
ATOM     10  N   UNL     1      35.619 -26.049 -14.639  0.00  0.00    -0.132 NA
ATOM     11  N   UNL     1      36.978 -26.186 -14.412  0.00  0.00    -0.125 NA
ATOM     12  C   UNL     1      33.636 -23.182 -17.938  0.00  0.00    +0.245 C 
ATOM     13  C   UNL     1      35.555 -22.383 -16.449  0.00  0.00    +0.119 C 
ATOM     14  C   UNL     1      34.171 -24.352 -15.833  0.00  0.00    +0.160 C 
ATOM     15  C   UNL     1      36.860 -23.170 -16.349  0.00  0.00    +0.130 C 
ATOM     16  C   UNL     1      35.441 -24.954 -15.349  0.00  0.00    +0.164 A 
ATOM     17  C   UNL     1      37.585 -25.171 -14.986  0.00  0.00    +0.238 A 
BRANCH  17  21
ATOM     18  F   UNL     1      39.790 -25.933 -15.519  0.00  0.00    -0.163 F 
ATOM     19  F   UNL     1      39.392 -23.817 -15.774  0.00  0.00    -0.163 F 
ATOM     20  F   UNL     1      39.565 -24.654 -13.775  0.00  0.00    -0.163 F 
ATOM     21  C   UNL     1      39.034 -24.904 -15.015  0.00  0.00    +0.452 C 
ENDBRANCH  17  21
ENDBRANCH   5  12
BRANCH   1  25
ATOM     22  F   UNL     1      34.710 -20.806 -23.205  0.00  0.00    -0.204 F 
ATOM     23  F   UNL     1      35.093 -15.392 -22.533  0.00  0.00    -0.202 F 
ATOM     24  F   UNL     1      35.263 -16.478 -25.036  0.00  0.00    -0.202 F 
ATOM     25  C   UNL     1      34.715 -18.922 -21.762  0.00  0.00    +0.006 C 
ATOM     26  C   UNL     1      34.801 -19.480 -23.033  0.00  0.00    +0.138 C 
ATOM     27  C   UNL     1      34.813 -17.545 -21.587  0.00  0.00    +0.030 C 
ATOM     28  C   UNL     1      34.998 -16.718 -22.694  0.00  0.00    +0.167 C 
ATOM     29  C   UNL     1      34.985 -18.653 -24.141  0.00  0.00    +0.061 C 
ATOM     30  C   UNL     1      35.083 -17.272 -23.972  0.00  0.00    +0.170 C 
ENDBRANCH   1  25
BRANCH   2  31
ATOM     31  N   UNL     1      36.954 -20.287 -20.321  0.00  0.00    +0.382 N 
ATOM     32  H   UNL     1      36.868 -19.298 -20.084  0.00  0.00    -0.089 HD
ATOM     33  H   UNL     1      37.404 -20.381 -21.230  0.00  0.00    -0.089 HD
ATOM     34  H   UNL     1      37.515 -20.758 -19.612  0.00  0.00    -0.089 HD
ENDBRANCH   2  31
TORSDOF 4
ENDMDL
MODEL 6
REMARK VINA RESULT:     -10.2      4.071     10.241
REMARK  Name = 11974440
REMARK  4 active torsions:
REMARK  status: ('A' for Active; 'I' for Inactive)
REMARK    1  A    between atoms: C_1  and  C_25
REMARK    2  A    between atoms: C_2  and  N_31
REMARK    3  A    between atoms: C_5  and  C_12
REMARK    4  A    between atoms: C_17  and  C_21
REMARK                            x       y       z     vdW  Elec       q    Type
REMARK                         _______ _______ _______ _____ _____    ______ ____
ROOT
ATOM      1  C   UNL     1      34.819 -20.870 -19.597  0.00  0.00    +0.009 C 
ATOM      2  C   UNL     1      33.520 -21.092 -20.415  0.00  0.00    -0.057 C 
ATOM      3  C   UNL     1      33.415 -20.056 -21.552  0.00  0.00    +0.009 C 
ATOM      4  C   UNL     1      36.061 -20.975 -20.513  0.00  0.00    +0.028 C 
ATOM      5  C   UNL     1      34.706 -19.872 -22.292  0.00  0.00    +0.025 C 
ATOM      6  C   UNL     1      35.894 -20.291 -21.838  0.00  0.00    -0.026 C 
ENDROOT
BRANCH   5  12
ATOM      7  O   UNL     1      34.440 -19.901 -24.599  0.00  0.00    -0.270 OA
ATOM      8  N   UNL     1      34.893 -17.831 -23.643  0.00  0.00    -0.267 N 
ATOM      9  N   UNL     1      33.897 -15.262 -23.581  0.00  0.00    -0.292 N 
ATOM     10  N   UNL     1      33.748 -15.006 -25.742  0.00  0.00    -0.132 NA
ATOM     11  N   UNL     1      33.194 -13.899 -25.122  0.00  0.00    -0.125 NA
ATOM     12  C   UNL     1      34.672 -19.205 -23.609  0.00  0.00    +0.245 C 
ATOM     13  C   UNL     1      35.248 -16.980 -22.490  0.00  0.00    +0.119 C 
ATOM     14  C   UNL     1      34.854 -17.135 -24.939  0.00  0.00    +0.160 C 
ATOM     15  C   UNL     1      34.196 -15.887 -22.311  0.00  0.00    +0.130 C 
ATOM     16  C   UNL     1      34.168 -15.824 -24.799  0.00  0.00    +0.164 A 
ATOM     17  C   UNL     1      33.294 -14.074 -23.823  0.00  0.00    +0.238 A 
BRANCH  17  21
ATOM     18  F   UNL     1      33.527 -13.258 -21.586  0.00  0.00    -0.163 F 
ATOM     19  F   UNL     1      32.906 -11.830 -23.095  0.00  0.00    -0.163 F 
ATOM     20  F   UNL     1      31.518 -13.357 -22.412  0.00  0.00    -0.163 F 
ATOM     21  C   UNL     1      32.830 -13.160 -22.765  0.00  0.00    +0.452 C 
ENDBRANCH  17  21
ENDBRANCH   5  12
BRANCH   1  25
ATOM     22  F   UNL     1      37.156 -20.983 -17.991  0.00  0.00    -0.204 F 
ATOM     23  F   UNL     1      33.050 -24.331 -16.635  0.00  0.00    -0.202 F 
ATOM     24  F   UNL     1      35.360 -24.334 -15.175  0.00  0.00    -0.202 F 
ATOM     25  C   UNL     1      34.967 -21.802 -18.403  0.00  0.00    +0.006 C 
ATOM     26  C   UNL     1      36.145 -21.799 -17.663  0.00  0.00    +0.138 C 
ATOM     27  C   UNL     1      33.920 -22.653 -18.062  0.00  0.00    +0.030 C 
ATOM     28  C   UNL     1      34.053 -23.509 -16.969  0.00  0.00    +0.167 C 
ATOM     29  C   UNL     1      36.278 -22.655 -16.571  0.00  0.00    +0.061 C 
ATOM     30  C   UNL     1      35.232 -23.510 -16.223  0.00  0.00    +0.170 C 
ENDBRANCH   1  25
BRANCH   2  31
ATOM     31  N   UNL     1      32.329 -21.001 -19.565  0.00  0.00    +0.382 N 
ATOM     32  H   UNL     1      31.511 -20.815 -20.146  0.00  0.00    -0.089 HD
ATOM     33  H   UNL     1      32.448 -20.243 -18.893  0.00  0.00    -0.089 HD
ATOM     34  H   UNL     1      32.199 -21.881 -19.067  0.00  0.00    -0.089 HD
ENDBRANCH   2  31
TORSDOF 4
ENDMDL
MODEL 7
REMARK VINA RESULT:     -10.2      4.363     10.246
REMARK  Name = 11974440
REMARK  4 active torsions:
REMARK  status: ('A' for Active; 'I' for Inactive)
REMARK    1  A    between atoms: C_1  and  C_25
REMARK    2  A    between atoms: C_2  and  N_31
REMARK    3  A    between atoms: C_5  and  C_12
REMARK    4  A    between atoms: C_17  and  C_21
REMARK                            x       y       z     vdW  Elec       q    Type
REMARK                         _______ _______ _______ _____ _____    ______ ____
ROOT
ATOM      1  C   UNL     1      34.823 -21.194 -20.267  0.00  0.00    +0.009 C 
ATOM      2  C   UNL     1      36.038 -20.231 -20.284  0.00  0.00    -0.057 C 
ATOM      3  C   UNL     1      36.151 -19.528 -21.652  0.00  0.00    +0.009 C 
ATOM      4  C   UNL     1      33.515 -20.423 -20.566  0.00  0.00    +0.028 C 
ATOM      5  C   UNL     1      34.832 -19.028 -22.159  0.00  0.00    +0.025 C 
ATOM      6  C   UNL     1      33.647 -19.416 -21.671  0.00  0.00    -0.026 C 
ENDROOT
BRANCH   5  12
ATOM      7  O   UNL     1      34.825 -18.456 -24.411  0.00  0.00    -0.270 OA
ATOM      8  N   UNL     1      34.826 -16.688 -22.901  0.00  0.00    -0.267 N 
ATOM      9  N   UNL     1      33.419 -14.387 -22.334  0.00  0.00    -0.292 N 
ATOM     10  N   UNL     1      33.463 -13.569 -24.355  0.00  0.00    -0.132 NA
ATOM     11  N   UNL     1      32.671 -12.757 -23.562  0.00  0.00    -0.125 NA
ATOM     12  C   UNL     1      34.831 -18.035 -23.253  0.00  0.00    +0.245 C 
ATOM     13  C   UNL     1      34.909 -16.147 -21.530  0.00  0.00    +0.119 C 
ATOM     14  C   UNL     1      34.812 -15.674 -23.967  0.00  0.00    +0.160 C 
ATOM     15  C   UNL     1      33.678 -15.293 -21.235  0.00  0.00    +0.130 C 
ATOM     16  C   UNL     1      33.908 -14.552 -23.601  0.00  0.00    +0.164 A 
ATOM     17  C   UNL     1      32.658 -13.268 -22.351  0.00  0.00    +0.238 A 
BRANCH  17  21
ATOM     18  F   UNL     1      32.722 -12.038 -20.300  0.00  0.00    -0.163 F 
ATOM     19  F   UNL     1      30.907 -11.893 -21.477  0.00  0.00    -0.163 F 
ATOM     20  F   UNL     1      31.363 -13.731 -20.410  0.00  0.00    -0.163 F 
ATOM     21  C   UNL     1      31.938 -12.748 -21.175  0.00  0.00    +0.452 C 
ENDBRANCH  17  21
ENDBRANCH   5  12
BRANCH   1  25
ATOM     22  F   UNL     1      32.504 -22.693 -19.612  0.00  0.00    -0.204 F 
ATOM     23  F   UNL     1      36.592 -22.735 -15.981  0.00  0.00    -0.202 F 
ATOM     24  F   UNL     1      34.299 -24.136 -15.480  0.00  0.00    -0.202 F 
ATOM     25  C   UNL     1      34.679 -21.989 -18.978  0.00  0.00    +0.006 C 
ATOM     26  C   UNL     1      33.510 -22.700 -18.728  0.00  0.00    +0.138 C 
ATOM     27  C   UNL     1      35.722 -21.997 -18.056  0.00  0.00    +0.030 C 
ATOM     28  C   UNL     1      35.593 -22.724 -16.873  0.00  0.00    +0.167 C 
ATOM     29  C   UNL     1      33.382 -23.427 -17.545  0.00  0.00    +0.061 C 
ATOM     30  C   UNL     1      34.424 -23.440 -16.617  0.00  0.00    +0.170 C 
ENDBRANCH   1  25
BRANCH   2  31
ATOM     31  N   UNL     1      37.288 -20.940 -19.998  0.00  0.00    +0.382 N 
ATOM     32  H   UNL     1      37.080 -21.812 -19.511  0.00  0.00    -0.089 HD
ATOM     33  H   UNL     1      37.883 -20.356 -19.411  0.00  0.00    -0.089 HD
ATOM     34  H   UNL     1      37.769 -21.147 -20.873  0.00  0.00    -0.089 HD
ENDBRANCH   2  31
TORSDOF 4
ENDMDL
MODEL 8
REMARK VINA RESULT:     -10.2     10.228     16.035
REMARK  Name = 11974440
REMARK  4 active torsions:
REMARK  status: ('A' for Active; 'I' for Inactive)
REMARK    1  A    between atoms: C_1  and  C_25
REMARK    2  A    between atoms: C_2  and  N_31
REMARK    3  A    between atoms: C_5  and  C_12
REMARK    4  A    between atoms: C_17  and  C_21
REMARK                            x       y       z     vdW  Elec       q    Type
REMARK                         _______ _______ _______ _____ _____    ______ ____
ROOT
ATOM      1  C   UNL     1      32.882 -12.447 -23.738  0.00  0.00    +0.009 C 
ATOM      2  C   UNL     1      33.901 -11.290 -23.900  0.00  0.00    -0.057 C 
ATOM      3  C   UNL     1      33.174  -9.930 -23.927  0.00  0.00    +0.009 C 
ATOM      4  C   UNL     1      32.061 -12.270 -22.439  0.00  0.00    +0.028 C 
ATOM      5  C   UNL     1      32.119  -9.814 -22.868  0.00  0.00    +0.025 C 
ATOM      6  C   UNL     1      31.623 -10.856 -22.189  0.00  0.00    -0.026 C 
ENDROOT
BRANCH   5  12
ATOM      7  O   UNL     1      31.289  -8.250 -21.365  0.00  0.00    -0.270 OA
ATOM      8  N   UNL     1      31.512  -7.541 -23.568  0.00  0.00    -0.267 N 
ATOM      9  N   UNL     1      32.647  -5.500 -25.032  0.00  0.00    -0.292 N 
ATOM     10  N   UNL     1      31.807  -3.862 -23.861  0.00  0.00    -0.132 NA
ATOM     11  N   UNL     1      32.680  -3.339 -24.799  0.00  0.00    -0.125 NA
ATOM     12  C   UNL     1      31.602  -8.471 -22.536  0.00  0.00    +0.245 C 
ATOM     13  C   UNL     1      31.804  -7.792 -24.993  0.00  0.00    +0.119 C 
ATOM     14  C   UNL     1      31.012  -6.190 -23.267  0.00  0.00    +0.160 C 
ATOM     15  C   UNL     1      32.913  -6.854 -25.467  0.00  0.00    +0.130 C 
ATOM     16  C   UNL     1      31.798  -5.171 -24.010  0.00  0.00    +0.164 A 
ATOM     17  C   UNL     1      33.174  -4.341 -25.492  0.00  0.00    +0.238 A 
BRANCH  17  21
ATOM     18  F   UNL     1      35.228  -5.105 -26.452  0.00  0.00    -0.163 F 
ATOM     19  F   UNL     1      33.638  -4.573 -27.827  0.00  0.00    -0.163 F 
ATOM     20  F   UNL     1      34.701  -3.016 -26.745  0.00  0.00    -0.163 F 
ATOM     21  C   UNL     1      34.152  -4.264 -26.592  0.00  0.00    +0.452 C 
ENDBRANCH  17  21
ENDBRANCH   5  12
BRANCH   1  25
ATOM     22  F   UNL     1      33.021 -14.023 -26.094  0.00  0.00    -0.204 F 
ATOM     23  F   UNL     1      35.131 -16.184 -21.535  0.00  0.00    -0.202 F 
ATOM     24  F   UNL     1      35.197 -17.592 -23.877  0.00  0.00    -0.202 F 
ATOM     25  C   UNL     1      33.506 -13.834 -23.779  0.00  0.00    +0.006 C 
ATOM     26  C   UNL     1      33.538 -14.545 -24.973  0.00  0.00    +0.138 C 
ATOM     27  C   UNL     1      34.041 -14.381 -22.616  0.00  0.00    +0.030 C 
ATOM     28  C   UNL     1      34.614 -15.652 -22.650  0.00  0.00    +0.167 C 
ATOM     29  C   UNL     1      34.110 -15.816 -25.007  0.00  0.00    +0.061 C 
ATOM     30  C   UNL     1      34.649 -16.370 -23.845  0.00  0.00    +0.170 C 
ENDBRANCH   1  25
BRANCH   2  31
ATOM     31  N   UNL     1      34.694 -11.440 -25.123  0.00  0.00    +0.382 N 
ATOM     32  H   UNL     1      35.235 -12.303 -25.073  0.00  0.00    -0.089 HD
ATOM     33  H   UNL     1      35.326 -10.647 -25.218  0.00  0.00    -0.089 HD
ATOM     34  H   UNL     1      34.070 -11.477 -25.930  0.00  0.00    -0.089 HD
ENDBRANCH   2  31
TORSDOF 4
ENDMDL
MODEL 9
REMARK VINA RESULT:     -10.1      6.007     11.488
REMARK  Name = 11974440
REMARK  4 active torsions:
REMARK  status: ('A' for Active; 'I' for Inactive)
REMARK    1  A    between atoms: C_1  and  C_25
REMARK    2  A    between atoms: C_2  and  N_31
REMARK    3  A    between atoms: C_5  and  C_12
REMARK    4  A    between atoms: C_17  and  C_21
REMARK                            x       y       z     vdW  Elec       q    Type
REMARK                         _______ _______ _______ _____ _____    ______ ____
ROOT
ATOM      1  C   UNL     1      34.329 -18.449 -22.108  0.00  0.00    +0.009 C 
ATOM      2  C   UNL     1      34.915 -18.529 -23.541  0.00  0.00    -0.057 C 
ATOM      3  C   UNL     1      34.399 -17.359 -24.402  0.00  0.00    +0.009 C 
ATOM      4  C   UNL     1      34.710 -17.106 -21.441  0.00  0.00    +0.028 C 
ATOM      5  C   UNL     1      34.442 -16.045 -23.683  0.00  0.00    +0.025 C 
ATOM      6  C   UNL     1      34.593 -15.922 -22.357  0.00  0.00    -0.026 C 
ENDROOT
BRANCH   5  12
ATOM      7  O   UNL     1      34.303 -14.909 -25.704  0.00  0.00    -0.270 OA
ATOM      8  N   UNL     1      34.253 -13.600 -23.784  0.00  0.00    -0.267 N 
ATOM      9  N   UNL     1      32.726 -11.635 -22.599  0.00  0.00    -0.292 N 
ATOM     10  N   UNL     1      32.632 -10.318 -24.336  0.00  0.00    -0.132 NA
ATOM     11  N   UNL     1      31.823  -9.801 -23.339  0.00  0.00    -0.125 NA
ATOM     12  C   UNL     1      34.331 -14.804 -24.477  0.00  0.00    +0.245 C 
ATOM     13  C   UNL     1      34.359 -13.429 -22.321  0.00  0.00    +0.119 C 
ATOM     14  C   UNL     1      34.129 -12.347 -24.546  0.00  0.00    +0.160 C 
ATOM     15  C   UNL     1      33.089 -12.773 -21.784  0.00  0.00    +0.130 C 
ATOM     16  C   UNL     1      33.170 -11.428 -23.877  0.00  0.00    +0.164 A 
ATOM     17  C   UNL     1      31.894 -10.608 -22.304  0.00  0.00    +0.238 A 
BRANCH  17  21
ATOM     18  F   UNL     1      31.868 -10.992 -19.943  0.00  0.00    -0.163 F 
ATOM     19  F   UNL     1      30.937  -9.167 -20.653  0.00  0.00    -0.163 F 
ATOM     20  F   UNL     1      29.966 -11.082 -20.994  0.00  0.00    -0.163 F 
ATOM     21  C   UNL     1      31.192 -10.466 -21.016  0.00  0.00    +0.452 C 
ENDBRANCH  17  21
ENDBRANCH   5  12
BRANCH   1  25
ATOM     22  F   UNL     1      37.022 -19.054 -21.446  0.00  0.00    -0.204 F 
ATOM     23  F   UNL     1      33.158 -22.298 -19.334  0.00  0.00    -0.202 F 
ATOM     24  F   UNL     1      35.794 -22.765 -18.779  0.00  0.00    -0.202 F 
ATOM     25  C   UNL     1      34.727 -19.611 -21.210  0.00  0.00    +0.006 C 
ATOM     26  C   UNL     1      36.069 -19.844 -20.930  0.00  0.00    +0.138 C 
ATOM     27  C   UNL     1      33.741 -20.435 -20.675  0.00  0.00    +0.030 C 
ATOM     28  C   UNL     1      34.102 -21.501 -19.852  0.00  0.00    +0.167 C 
ATOM     29  C   UNL     1      36.431 -20.910 -20.107  0.00  0.00    +0.061 C 
ATOM     30  C   UNL     1      35.446 -21.739 -19.568  0.00  0.00    +0.170 C 
ENDBRANCH   1  25
BRANCH   2  31
ATOM     31  N   UNL     1      34.570 -19.797 -24.191  0.00  0.00    +0.382 N 
ATOM     32  H   UNL     1      33.811 -20.246 -23.678  0.00  0.00    -0.089 HD
ATOM     33  H   UNL     1      35.385 -20.409 -24.196  0.00  0.00    -0.089 HD
ATOM     34  H   UNL     1      34.272 -19.618 -25.150  0.00  0.00    -0.089 HD
ENDBRANCH   2  31
TORSDOF 4
ENDMDL
