MODEL 1
REMARK VINA RESULT:     -11.7      0.000      0.000
REMARK  Name = 154000
REMARK  7 active torsions:
REMARK  status: ('A' for Active; 'I' for Inactive)
REMARK    1  A    between atoms: O_1  and  C_5
REMARK    2  A    between atoms: O_1  and  C_17
REMARK    3  A    between atoms: C_2  and  C_8
REMARK    4  A    between atoms: C_8  and  C_13
REMARK    5  A    between atoms: C_17  and  C_18
REMARK    6  A    between atoms: C_18  and  C_21
REMARK    7  A    between atoms: C_23  and  C_25
REMARK                            x       y       z     vdW  Elec       q    Type
REMARK                         _______ _______ _______ _____ _____    ______ ____
ROOT
ATOM      1  O   UNL     1      32.380 -22.614 -18.769  0.00  0.00    -0.475 OA
ENDROOT
BRANCH   1   5
ATOM      2  C   UNL     1      34.619 -20.045 -21.109  0.00  0.00    -0.021 C 
ATOM      3  C   UNL     1      35.265 -20.988 -20.323  0.00  0.00    -0.001 C 
ATOM      4  C   UNL     1      33.236 -19.949 -21.124  0.00  0.00    -0.001 C 
ATOM      5  C   UNL     1      33.118 -21.769 -19.539  0.00  0.00    +0.139 C 
ATOM      6  C   UNL     1      34.510 -21.855 -19.534  0.00  0.00    +0.037 C 
ATOM      7  C   UNL     1      32.481 -20.816 -20.334  0.00  0.00    +0.037 C 
BRANCH   2   8
ATOM      8  C   UNL     1      35.436 -19.107 -21.962  0.00  0.00    +0.047 C 
BRANCH   8  13
ATOM      9  O   UNL     1      35.268 -16.042 -23.515  0.00  0.00    -0.346 OA
ATOM     10  O   UNL     1      34.609 -19.192 -24.872  0.00  0.00    -0.272 OA
ATOM     11  O   UNL     1      34.955 -16.190 -21.245  0.00  0.00    -0.247 OA
ATOM     12  N   UNL     1      35.164 -16.946 -24.593  0.00  0.00    -0.144 N 
ATOM     13  C   UNL     1      34.566 -18.108 -22.700  0.00  0.00    +0.184 C 
ATOM     14  C   UNL     1      34.770 -18.197 -24.182  0.00  0.00    +0.264 C 
ATOM     15  C   UNL     1      34.942 -16.691 -22.358  0.00  0.00    +0.348 C 
ATOM     16  H   UNL     1      35.353 -16.709 -25.529  0.00  0.00    +0.196 HD
ENDBRANCH   8  13
ENDBRANCH   2   8
ENDBRANCH   1   5
BRANCH   1  17
ATOM     17  C   UNL     1      33.068 -23.316 -17.734  0.00  0.00    +0.213 C 
BRANCH  17  18
ATOM     18  C   UNL     1      32.153 -23.474 -16.523  0.00  0.00    +0.105 C 
BRANCH  18  21
ATOM     19  O   UNL     1      33.421 -24.727 -13.338  0.00  0.00    -0.449 OA
ATOM     20  N   UNL     1      34.227 -23.730 -15.202  0.00  0.00    -0.373 NA
ATOM     21  C   UNL     1      32.888 -23.917 -15.290  0.00  0.00    +0.134 C 
ATOM     22  C   UNL     1      32.379 -24.513 -14.188  0.00  0.00    +0.216 C 
ATOM     23  C   UNL     1      34.492 -24.232 -14.016  0.00  0.00    +0.277 C 
ATOM     24  C   UNL     1      31.051 -24.945 -13.739  0.00  0.00    +0.055 C 
BRANCH  23  25
ATOM     25  C   UNL     1      35.751 -24.335 -13.330  0.00  0.00    +0.066 C 
ATOM     26  C   UNL     1      36.251 -23.247 -12.608  0.00  0.00    +0.006 C 
ATOM     27  C   UNL     1      36.485 -25.523 -13.384  0.00  0.00    +0.006 C 
ATOM     28  C   UNL     1      37.473 -23.348 -11.945  0.00  0.00    +0.000 C 
ATOM     29  C   UNL     1      37.707 -25.624 -12.720  0.00  0.00    +0.000 C 
ATOM     30  C   UNL     1      38.202 -24.536 -12.001  0.00  0.00    +0.000 C 
ENDBRANCH  23  25
ENDBRANCH  18  21
ENDBRANCH  17  18
ENDBRANCH   1  17
TORSDOF 7
ENDMDL
MODEL 2
REMARK VINA RESULT:     -11.5      1.684      4.391
REMARK  Name = 154000
REMARK  7 active torsions:
REMARK  status: ('A' for Active; 'I' for Inactive)
REMARK    1  A    between atoms: O_1  and  C_5
REMARK    2  A    between atoms: O_1  and  C_17
REMARK    3  A    between atoms: C_2  and  C_8
REMARK    4  A    between atoms: C_8  and  C_13
REMARK    5  A    between atoms: C_17  and  C_18
REMARK    6  A    between atoms: C_18  and  C_21
REMARK    7  A    between atoms: C_23  and  C_25
REMARK                            x       y       z     vdW  Elec       q    Type
REMARK                         _______ _______ _______ _____ _____    ______ ____
ROOT
ATOM      1  O   UNL     1      36.182 -22.845 -17.510  0.00  0.00    -0.475 OA
ENDROOT
BRANCH   1   5
ATOM      2  C   UNL     1      34.566 -20.646 -20.615  0.00  0.00    -0.021 C 
ATOM      3  C   UNL     1      33.736 -21.443 -19.841  0.00  0.00    -0.001 C 
ATOM      4  C   UNL     1      35.928 -20.574 -20.366  0.00  0.00    -0.001 C 
ATOM      5  C   UNL     1      35.649 -22.121 -18.532  0.00  0.00    +0.139 C 
ATOM      6  C   UNL     1      34.280 -22.185 -18.794  0.00  0.00    +0.037 C 
ATOM      7  C   UNL     1      36.473 -21.316 -19.319  0.00  0.00    +0.037 C 
BRANCH   2   8
ATOM      8  C   UNL     1      33.977 -19.845 -21.749  0.00  0.00    +0.047 C 
BRANCH   8  13
ATOM      9  O   UNL     1      34.667 -17.753 -24.392  0.00  0.00    -0.346 OA
ATOM     10  O   UNL     1      35.128 -17.153 -20.983  0.00  0.00    -0.272 OA
ATOM     11  O   UNL     1      34.691 -20.029 -24.701  0.00  0.00    -0.247 OA
ATOM     12  N   UNL     1      34.797 -16.902 -23.275  0.00  0.00    -0.144 N 
ATOM     13  C   UNL     1      35.034 -19.052 -22.493  0.00  0.00    +0.184 C 
ATOM     14  C   UNL     1      34.998 -17.603 -22.110  0.00  0.00    +0.264 C 
ATOM     15  C   UNL     1      34.779 -19.050 -23.977  0.00  0.00    +0.348 C 
ATOM     16  H   UNL     1      34.748 -15.920 -23.325  0.00  0.00    +0.196 HD
ENDBRANCH   8  13
ENDBRANCH   2   8
ENDBRANCH   1   5
BRANCH   1  17
ATOM     17  C   UNL     1      36.079 -22.290 -16.199  0.00  0.00    +0.213 C 
BRANCH  17  18
ATOM     18  C   UNL     1      36.072 -23.410 -15.164  0.00  0.00    +0.105 C 
BRANCH  18  21
ATOM     19  O   UNL     1      32.962 -24.406 -13.533  0.00  0.00    -0.449 OA
ATOM     20  N   UNL     1      33.642 -23.648 -15.553  0.00  0.00    -0.373 NA
ATOM     21  C   UNL     1      34.689 -23.768 -14.701  0.00  0.00    +0.134 C 
ATOM     22  C   UNL     1      34.311 -24.220 -13.483  0.00  0.00    +0.216 C 
ATOM     23  C   UNL     1      32.637 -24.043 -14.804  0.00  0.00    +0.277 C 
ATOM     24  C   UNL     1      34.982 -24.531 -12.217  0.00  0.00    +0.055 C 
BRANCH  23  25
ATOM     25  C   UNL     1      31.241 -24.145 -15.131  0.00  0.00    +0.066 C 
ATOM     26  C   UNL     1      30.645 -23.205 -15.976  0.00  0.00    +0.006 C 
ATOM     27  C   UNL     1      30.471 -25.185 -14.603  0.00  0.00    +0.006 C 
ATOM     28  C   UNL     1      29.290 -23.304 -16.290  0.00  0.00    +0.000 C 
ATOM     29  C   UNL     1      29.116 -25.285 -14.918  0.00  0.00    +0.000 C 
ATOM     30  C   UNL     1      28.525 -24.344 -15.762  0.00  0.00    +0.000 C 
ENDBRANCH  23  25
ENDBRANCH  18  21
ENDBRANCH  17  18
ENDBRANCH   1  17
TORSDOF 7
ENDMDL
MODEL 3
REMARK VINA RESULT:     -11.4      5.174     13.016
REMARK  Name = 154000
REMARK  7 active torsions:
REMARK  status: ('A' for Active; 'I' for Inactive)
REMARK    1  A    between atoms: O_1  and  C_5
REMARK    2  A    between atoms: O_1  and  C_17
REMARK    3  A    between atoms: C_2  and  C_8
REMARK    4  A    between atoms: C_8  and  C_13
REMARK    5  A    between atoms: C_17  and  C_18
REMARK    6  A    between atoms: C_18  and  C_21
REMARK    7  A    between atoms: C_23  and  C_25
REMARK                            x       y       z     vdW  Elec       q    Type
REMARK                         _______ _______ _______ _____ _____    ______ ____
ROOT
ATOM      1  O   UNL     1      35.037 -15.306 -23.711  0.00  0.00    -0.475 OA
ENDROOT
BRANCH   1   5
ATOM      2  C   UNL     1      34.928 -19.176 -22.264  0.00  0.00    -0.021 C 
ATOM      3  C   UNL     1      35.251 -18.137 -21.404  0.00  0.00    -0.001 C 
ATOM      4  C   UNL     1      34.641 -18.941 -23.600  0.00  0.00    -0.001 C 
ATOM      5  C   UNL     1      35.001 -16.580 -23.234  0.00  0.00    +0.139 C 
ATOM      6  C   UNL     1      35.288 -16.831 -21.892  0.00  0.00    +0.037 C 
ATOM      7  C   UNL     1      34.679 -17.635 -24.088  0.00  0.00    +0.037 C 
BRANCH   2   8
ATOM      8  C   UNL     1      34.889 -20.588 -21.736  0.00  0.00    +0.047 C 
BRANCH   8  13
ATOM      9  O   UNL     1      32.743 -22.172 -19.561  0.00  0.00    -0.346 OA
ATOM     10  O   UNL     1      36.207 -21.809 -19.300  0.00  0.00    -0.272 OA
ATOM     11  O   UNL     1      31.970 -20.463 -20.888  0.00  0.00    -0.247 OA
ATOM     12  N   UNL     1      34.014 -22.567 -19.093  0.00  0.00    -0.144 N 
ATOM     13  C   UNL     1      34.336 -20.652 -20.325  0.00  0.00    +0.184 C 
ATOM     14  C   UNL     1      35.010 -21.723 -19.522  0.00  0.00    +0.264 C 
ATOM     15  C   UNL     1      32.881 -21.044 -20.321  0.00  0.00    +0.348 C 
ATOM     16  H   UNL     1      34.169 -23.357 -18.526  0.00  0.00    +0.196 HD
ENDBRANCH   8  13
ENDBRANCH   2   8
ENDBRANCH   1   5
BRANCH   1  17
ATOM     17  C   UNL     1      33.819 -14.562 -23.669  0.00  0.00    +0.213 C 
BRANCH  17  18
ATOM     18  C   UNL     1      33.492 -14.030 -25.061  0.00  0.00    +0.105 C 
BRANCH  18  21
ATOM     19  O   UNL     1      34.002 -10.509 -25.879  0.00  0.00    -0.449 OA
ATOM     20  N   UNL     1      33.467 -11.763 -24.074  0.00  0.00    -0.373 NA
ATOM     21  C   UNL     1      33.652 -12.540 -25.168  0.00  0.00    +0.134 C 
ATOM     22  C   UNL     1      33.973 -11.816 -26.264  0.00  0.00    +0.216 C 
ATOM     23  C   UNL     1      33.689 -10.560 -24.555  0.00  0.00    +0.277 C 
ATOM     24  C   UNL     1      34.277 -12.105 -27.670  0.00  0.00    +0.055 C 
BRANCH  23  25
ATOM     25  C   UNL     1      33.647  -9.289 -23.887  0.00  0.00    +0.066 C 
ATOM     26  C   UNL     1      32.598  -8.985 -23.016  0.00  0.00    +0.006 C 
ATOM     27  C   UNL     1      34.656  -8.347 -24.108  0.00  0.00    +0.006 C 
ATOM     28  C   UNL     1      32.557  -7.750 -22.370  0.00  0.00    +0.000 C 
ATOM     29  C   UNL     1      34.616  -7.111 -23.461  0.00  0.00    +0.000 C 
ATOM     30  C   UNL     1      33.567  -6.812 -22.592  0.00  0.00    +0.000 C 
ENDBRANCH  23  25
ENDBRANCH  18  21
ENDBRANCH  17  18
ENDBRANCH   1  17
TORSDOF 7
ENDMDL
MODEL 4
REMARK VINA RESULT:     -11.3      2.729     11.229
REMARK  Name = 154000
REMARK  7 active torsions:
REMARK  status: ('A' for Active; 'I' for Inactive)
REMARK    1  A    between atoms: O_1  and  C_5
REMARK    2  A    between atoms: O_1  and  C_17
REMARK    3  A    between atoms: C_2  and  C_8
REMARK    4  A    between atoms: C_8  and  C_13
REMARK    5  A    between atoms: C_17  and  C_18
REMARK    6  A    between atoms: C_18  and  C_21
REMARK    7  A    between atoms: C_23  and  C_25
REMARK                            x       y       z     vdW  Elec       q    Type
REMARK                         _______ _______ _______ _____ _____    ______ ____
ROOT
ATOM      1  O   UNL     1      35.503 -21.280 -20.668  0.00  0.00    -0.475 OA
ENDROOT
BRANCH   1   5
ATOM      2  C   UNL     1      35.342 -22.829 -16.840  0.00  0.00    -0.021 C 
ATOM      3  C   UNL     1      34.237 -22.948 -17.670  0.00  0.00    -0.001 C 
ATOM      4  C   UNL     1      36.499 -22.199 -17.271  0.00  0.00    -0.001 C 
ATOM      5  C   UNL     1      35.449 -21.790 -19.408  0.00  0.00    +0.139 C 
ATOM      6  C   UNL     1      34.291 -22.426 -18.961  0.00  0.00    +0.037 C 
ATOM      7  C   UNL     1      36.553 -21.676 -18.563  0.00  0.00    +0.037 C 
BRANCH   2   8
ATOM      8  C   UNL     1      35.283 -23.393 -15.442  0.00  0.00    +0.047 C 
BRANCH   8  13
ATOM      9  O   UNL     1      37.006 -25.162 -13.046  0.00  0.00    -0.346 OA
ATOM     10  O   UNL     1      35.565 -26.355 -15.996  0.00  0.00    -0.272 OA
ATOM     11  O   UNL     1      37.438 -22.926 -13.346  0.00  0.00    -0.247 OA
ATOM     12  N   UNL     1      36.444 -26.180 -13.845  0.00  0.00    -0.144 N 
ATOM     13  C   UNL     1      36.477 -24.276 -15.136  0.00  0.00    +0.184 C 
ATOM     14  C   UNL     1      36.089 -25.724 -15.092  0.00  0.00    +0.264 C 
ATOM     15  C   UNL     1      37.030 -23.998 -13.763  0.00  0.00    +0.348 C 
ATOM     16  H   UNL     1      36.320 -27.109 -13.544  0.00  0.00    +0.196 HD
ENDBRANCH   8  13
ENDBRANCH   2   8
ENDBRANCH   1   5
BRANCH   1  17
ATOM     17  C   UNL     1      34.828 -20.042 -20.898  0.00  0.00    +0.213 C 
BRANCH  17  18
ATOM     18  C   UNL     1      35.814 -19.010 -21.436  0.00  0.00    +0.105 C 
BRANCH  18  21
ATOM     19  O   UNL     1      34.395 -17.525 -24.453  0.00  0.00    -0.449 OA
ATOM     20  N   UNL     1      35.105 -16.853 -22.414  0.00  0.00    -0.373 NA
ATOM     21  C   UNL     1      35.246 -18.192 -22.560  0.00  0.00    +0.134 C 
ATOM     22  C   UNL     1      34.828 -18.623 -23.772  0.00  0.00    +0.216 C 
ATOM     23  C   UNL     1      34.593 -16.506 -23.574  0.00  0.00    +0.277 C 
ATOM     24  C   UNL     1      34.747 -19.914 -24.465  0.00  0.00    +0.055 C 
BRANCH  23  25
ATOM     25  C   UNL     1      34.210 -15.205 -24.049  0.00  0.00    +0.066 C 
ATOM     26  C   UNL     1      34.351 -14.085 -23.225  0.00  0.00    +0.006 C 
ATOM     27  C   UNL     1      33.691 -15.053 -25.337  0.00  0.00    +0.006 C 
ATOM     28  C   UNL     1      33.976 -12.823 -23.686  0.00  0.00    +0.000 C 
ATOM     29  C   UNL     1      33.317 -13.791 -25.799  0.00  0.00    +0.000 C 
ATOM     30  C   UNL     1      33.459 -12.676 -24.974  0.00  0.00    +0.000 C 
ENDBRANCH  23  25
ENDBRANCH  18  21
ENDBRANCH  17  18
ENDBRANCH   1  17
TORSDOF 7
ENDMDL
MODEL 5
REMARK VINA RESULT:     -11.3      5.409     10.106
REMARK  Name = 154000
REMARK  7 active torsions:
REMARK  status: ('A' for Active; 'I' for Inactive)
REMARK    1  A    between atoms: O_1  and  C_5
REMARK    2  A    between atoms: O_1  and  C_17
REMARK    3  A    between atoms: C_2  and  C_8
REMARK    4  A    between atoms: C_8  and  C_13
REMARK    5  A    between atoms: C_17  and  C_18
REMARK    6  A    between atoms: C_18  and  C_21
REMARK    7  A    between atoms: C_23  and  C_25
REMARK                            x       y       z     vdW  Elec       q    Type
REMARK                         _______ _______ _______ _____ _____    ______ ____
ROOT
ATOM      1  O   UNL     1      33.762 -14.887 -26.206  0.00  0.00    -0.475 OA
ENDROOT
BRANCH   1   5
ATOM      2  C   UNL     1      33.535 -10.827 -25.464  0.00  0.00    -0.021 C 
ATOM      3  C   UNL     1      33.539 -11.280 -26.775  0.00  0.00    -0.001 C 
ATOM      4  C   UNL     1      33.607 -11.711 -24.398  0.00  0.00    -0.001 C 
ATOM      5  C   UNL     1      33.688 -13.550 -25.962  0.00  0.00    +0.139 C 
ATOM      6  C   UNL     1      33.615 -12.650 -27.026  0.00  0.00    +0.037 C 
ATOM      7  C   UNL     1      33.684 -13.081 -24.649  0.00  0.00    +0.037 C 
BRANCH   2   8
ATOM      8  C   UNL     1      33.454  -9.345 -25.193  0.00  0.00    +0.047 C 
BRANCH   8  13
ATOM      9  O   UNL     1      33.800  -6.893 -22.805  0.00  0.00    -0.346 OA
ATOM     10  O   UNL     1      31.286  -9.302 -23.082  0.00  0.00    -0.272 OA
ATOM     11  O   UNL     1      35.658  -7.710 -23.881  0.00  0.00    -0.247 OA
ATOM     12  N   UNL     1      32.495  -7.376 -22.573  0.00  0.00    -0.144 N 
ATOM     13  C   UNL     1      33.612  -9.028 -23.719  0.00  0.00    +0.184 C 
ATOM     14  C   UNL     1      32.305  -8.630 -23.102  0.00  0.00    +0.264 C 
ATOM     15  C   UNL     1      34.504  -7.833 -23.505  0.00  0.00    +0.348 C 
ATOM     16  H   UNL     1      31.802  -6.874 -22.088  0.00  0.00    +0.196 HD
ENDBRANCH   8  13
ENDBRANCH   2   8
ENDBRANCH   1   5
BRANCH   1  17
ATOM     17  C   UNL     1      33.549 -15.762 -25.098  0.00  0.00    +0.213 C 
BRANCH  17  18
ATOM     18  C   UNL     1      34.850 -16.478 -24.748  0.00  0.00    +0.105 C 
BRANCH  18  21
ATOM     19  O   UNL     1      34.780 -17.359 -21.207  0.00  0.00    -0.449 OA
ATOM     20  N   UNL     1      34.920 -18.409 -23.206  0.00  0.00    -0.373 NA
ATOM     21  C   UNL     1      34.839 -17.066 -23.367  0.00  0.00    +0.134 C 
ATOM     22  C   UNL     1      34.753 -16.412 -22.186  0.00  0.00    +0.216 C 
ATOM     23  C   UNL     1      34.881 -18.528 -21.897  0.00  0.00    +0.277 C 
ATOM     24  C   UNL     1      34.648 -15.012 -21.758  0.00  0.00    +0.055 C 
BRANCH  23  25
ATOM     25  C   UNL     1      34.929 -19.714 -21.088  0.00  0.00    +0.066 C 
ATOM     26  C   UNL     1      36.158 -20.236 -20.675  0.00  0.00    +0.006 C 
ATOM     27  C   UNL     1      33.745 -20.355 -20.711  0.00  0.00    +0.006 C 
ATOM     28  C   UNL     1      36.202 -21.389 -19.891  0.00  0.00    +0.000 C 
ATOM     29  C   UNL     1      33.790 -21.507 -19.927  0.00  0.00    +0.000 C 
ATOM     30  C   UNL     1      35.018 -22.025 -19.517  0.00  0.00    +0.000 C 
ENDBRANCH  23  25
ENDBRANCH  18  21
ENDBRANCH  17  18
ENDBRANCH   1  17
TORSDOF 7
ENDMDL
MODEL 6
REMARK VINA RESULT:     -11.2      1.435      2.010
REMARK  Name = 154000
REMARK  7 active torsions:
REMARK  status: ('A' for Active; 'I' for Inactive)
REMARK    1  A    between atoms: O_1  and  C_5
REMARK    2  A    between atoms: O_1  and  C_17
REMARK    3  A    between atoms: C_2  and  C_8
REMARK    4  A    between atoms: C_8  and  C_13
REMARK    5  A    between atoms: C_17  and  C_18
REMARK    6  A    between atoms: C_18  and  C_21
REMARK    7  A    between atoms: C_23  and  C_25
REMARK                            x       y       z     vdW  Elec       q    Type
REMARK                         _______ _______ _______ _____ _____    ______ ____
ROOT
ATOM      1  O   UNL     1      35.000 -22.031 -19.038  0.00  0.00    -0.475 OA
ENDROOT
BRANCH   1   5
ATOM      2  C   UNL     1      35.638 -19.058 -21.838  0.00  0.00    -0.021 C 
ATOM      3  C   UNL     1      34.357 -19.555 -21.653  0.00  0.00    -0.001 C 
ATOM      4  C   UNL     1      36.709 -19.540 -21.101  0.00  0.00    -0.001 C 
ATOM      5  C   UNL     1      35.209 -21.052 -19.960  0.00  0.00    +0.139 C 
ATOM      6  C   UNL     1      34.141 -20.559 -20.709  0.00  0.00    +0.037 C 
ATOM      7  C   UNL     1      36.493 -20.543 -20.157  0.00  0.00    +0.037 C 
BRANCH   2   8
ATOM      8  C   UNL     1      35.871 -17.974 -22.861  0.00  0.00    +0.047 C 
BRANCH   8  13
ATOM      9  O   UNL     1      34.424 -14.993 -23.787  0.00  0.00    -0.346 OA
ATOM     10  O   UNL     1      34.404 -18.032 -25.508  0.00  0.00    -0.272 OA
ATOM     11  O   UNL     1      34.747 -15.463 -21.562  0.00  0.00    -0.247 OA
ATOM     12  N   UNL     1      34.325 -15.769 -24.961  0.00  0.00    -0.144 N 
ATOM     13  C   UNL     1      34.589 -17.247 -23.218  0.00  0.00    +0.184 C 
ATOM     14  C   UNL     1      34.432 -17.114 -24.703  0.00  0.00    +0.264 C 
ATOM     15  C   UNL     1      34.604 -15.826 -22.718  0.00  0.00    +0.348 C 
ATOM     16  H   UNL     1      34.194 -15.390 -25.860  0.00  0.00    +0.196 HD
ENDBRANCH   8  13
ENDBRANCH   2   8
ENDBRANCH   1   5
BRANCH   1  17
ATOM     17  C   UNL     1      33.947 -22.958 -19.302  0.00  0.00    +0.213 C 
BRANCH  17  18
ATOM     18  C   UNL     1      32.837 -22.785 -18.270  0.00  0.00    +0.105 C 
BRANCH  18  21
ATOM     19  O   UNL     1      33.128 -24.108 -14.881  0.00  0.00    -0.449 OA
ATOM     20  N   UNL     1      34.399 -23.946 -16.745  0.00  0.00    -0.373 NA
ATOM     21  C   UNL     1      33.177 -23.393 -16.940  0.00  0.00    +0.134 C 
ATOM     22  C   UNL     1      32.395 -23.477 -15.840  0.00  0.00    +0.216 C 
ATOM     23  C   UNL     1      34.315 -24.356 -15.499  0.00  0.00    +0.277 C 
ATOM     24  C   UNL     1      31.033 -23.067 -15.478  0.00  0.00    +0.055 C 
BRANCH  23  25
ATOM     25  C   UNL     1      35.295 -25.031 -14.694  0.00  0.00    +0.066 C 
ATOM     26  C   UNL     1      35.475 -24.672 -13.355  0.00  0.00    +0.006 C 
ATOM     27  C   UNL     1      36.076 -26.051 -15.246  0.00  0.00    +0.006 C 
ATOM     28  C   UNL     1      36.428 -25.326 -12.576  0.00  0.00    +0.000 C 
ATOM     29  C   UNL     1      37.028 -26.706 -14.466  0.00  0.00    +0.000 C 
ATOM     30  C   UNL     1      37.205 -26.344 -13.130  0.00  0.00    +0.000 C 
ENDBRANCH  23  25
ENDBRANCH  18  21
ENDBRANCH  17  18
ENDBRANCH   1  17
TORSDOF 7
ENDMDL
MODEL 7
REMARK VINA RESULT:     -11.1      2.472     10.167
REMARK  Name = 154000
REMARK  7 active torsions:
REMARK  status: ('A' for Active; 'I' for Inactive)
REMARK    1  A    between atoms: O_1  and  C_5
REMARK    2  A    between atoms: O_1  and  C_17
REMARK    3  A    between atoms: C_2  and  C_8
REMARK    4  A    between atoms: C_8  and  C_13
REMARK    5  A    between atoms: C_17  and  C_18
REMARK    6  A    between atoms: C_18  and  C_21
REMARK    7  A    between atoms: C_23  and  C_25
REMARK                            x       y       z     vdW  Elec       q    Type
REMARK                         _______ _______ _______ _____ _____    ______ ____
ROOT
ATOM      1  O   UNL     1      33.302 -23.559 -17.298  0.00  0.00    -0.475 OA
ENDROOT
BRANCH   1   5
ATOM      2  C   UNL     1      36.082 -23.616 -14.240  0.00  0.00    -0.021 C 
ATOM      3  C   UNL     1      34.884 -24.298 -14.084  0.00  0.00    -0.001 C 
ATOM      4  C   UNL     1      36.363 -22.915 -15.402  0.00  0.00    -0.001 C 
ATOM      5  C   UNL     1      34.216 -23.578 -16.291  0.00  0.00    +0.139 C 
ATOM      6  C   UNL     1      33.945 -24.280 -15.116  0.00  0.00    +0.037 C 
ATOM      7  C   UNL     1      35.424 -22.896 -16.434  0.00  0.00    +0.037 C 
BRANCH   2   8
ATOM      8  C   UNL     1      37.095 -23.636 -13.123  0.00  0.00    +0.047 C 
BRANCH   8  13
ATOM      9  O   UNL     1      37.103 -27.022 -13.734  0.00  0.00    -0.346 OA
ATOM     10  O   UNL     1      39.121 -24.561 -15.172  0.00  0.00    -0.272 OA
ATOM     11  O   UNL     1      36.398 -26.231 -11.696  0.00  0.00    -0.247 OA
ATOM     12  N   UNL     1      37.916 -26.514 -14.768  0.00  0.00    -0.144 N 
ATOM     13  C   UNL     1      37.897 -24.923 -13.107  0.00  0.00    +0.184 C 
ATOM     14  C   UNL     1      38.408 -25.265 -14.474  0.00  0.00    +0.264 C 
ATOM     15  C   UNL     1      37.040 -26.102 -12.725  0.00  0.00    +0.348 C 
ATOM     16  H   UNL     1      38.109 -26.998 -15.603  0.00  0.00    +0.196 HD
ENDBRANCH   8  13
ENDBRANCH   2   8
ENDBRANCH   1   5
BRANCH   1  17
ATOM     17  C   UNL     1      33.780 -23.236 -18.604  0.00  0.00    +0.213 C 
BRANCH  17  18
ATOM     18  C   UNL     1      33.080 -21.980 -19.113  0.00  0.00    +0.105 C 
BRANCH  18  21
ATOM     19  O   UNL     1      35.652 -20.180 -20.975  0.00  0.00    -0.449 OA
ATOM     20  N   UNL     1      33.397 -20.345 -20.941  0.00  0.00    -0.373 NA
ATOM     21  C   UNL     1      33.957 -21.143 -20.000  0.00  0.00    +0.134 C 
ATOM     22  C   UNL     1      35.307 -21.064 -19.998  0.00  0.00    +0.216 C 
ATOM     23  C   UNL     1      34.454 -19.793 -21.492  0.00  0.00    +0.277 C 
ATOM     24  C   UNL     1      36.400 -21.675 -19.233  0.00  0.00    +0.055 C 
BRANCH  23  25
ATOM     25  C   UNL     1      34.530 -18.840 -22.565  0.00  0.00    +0.066 C 
ATOM     26  C   UNL     1      34.001 -19.150 -23.821  0.00  0.00    +0.006 C 
ATOM     27  C   UNL     1      35.137 -17.598 -22.360  0.00  0.00    +0.006 C 
ATOM     28  C   UNL     1      34.077 -18.226 -24.862  0.00  0.00    +0.000 C 
ATOM     29  C   UNL     1      35.213 -16.673 -23.401  0.00  0.00    +0.000 C 
ATOM     30  C   UNL     1      34.683 -16.987 -24.653  0.00  0.00    +0.000 C 
ENDBRANCH  23  25
ENDBRANCH  18  21
ENDBRANCH  17  18
ENDBRANCH   1  17
TORSDOF 7
ENDMDL
MODEL 8
REMARK VINA RESULT:     -11.1      6.271     14.069
REMARK  Name = 154000
REMARK  7 active torsions:
REMARK  status: ('A' for Active; 'I' for Inactive)
REMARK    1  A    between atoms: O_1  and  C_5
REMARK    2  A    between atoms: O_1  and  C_17
REMARK    3  A    between atoms: C_2  and  C_8
REMARK    4  A    between atoms: C_8  and  C_13
REMARK    5  A    between atoms: C_17  and  C_18
REMARK    6  A    between atoms: C_18  and  C_21
REMARK    7  A    between atoms: C_23  and  C_25
REMARK                            x       y       z     vdW  Elec       q    Type
REMARK                         _______ _______ _______ _____ _____    ______ ____
ROOT
ATOM      1  O   UNL     1      33.779 -14.633 -25.364  0.00  0.00    -0.475 OA
ENDROOT
BRANCH   1   5
ATOM      2  C   UNL     1      34.668 -18.214 -23.502  0.00  0.00    -0.021 C 
ATOM      3  C   UNL     1      35.055 -17.023 -22.906  0.00  0.00    -0.001 C 
ATOM      4  C   UNL     1      33.989 -18.226 -24.710  0.00  0.00    -0.001 C 
ATOM      5  C   UNL     1      34.072 -15.812 -24.750  0.00  0.00    +0.139 C 
ATOM      6  C   UNL     1      34.755 -15.814 -23.534  0.00  0.00    +0.037 C 
ATOM      7  C   UNL     1      33.689 -17.017 -25.338  0.00  0.00    +0.037 C 
BRANCH   2   8
ATOM      8  C   UNL     1      34.994 -19.521 -22.823  0.00  0.00    +0.047 C 
BRANCH   8  13
ATOM      9  O   UNL     1      35.032 -21.127 -19.779  0.00  0.00    -0.346 OA
ATOM     10  O   UNL     1      37.464 -19.024 -21.146  0.00  0.00    -0.272 OA
ATOM     11  O   UNL     1      33.027 -20.591 -20.763  0.00  0.00    -0.247 OA
ATOM     12  N   UNL     1      36.356 -20.653 -19.902  0.00  0.00    -0.144 N 
ATOM     13  C   UNL     1      35.067 -19.374 -21.315  0.00  0.00    +0.184 C 
ATOM     14  C   UNL     1      36.456 -19.625 -20.809  0.00  0.00    +0.264 C 
ATOM     15  C   UNL     1      34.225 -20.411 -20.618  0.00  0.00    +0.348 C 
ATOM     16  H   UNL     1      37.118 -21.017 -19.397  0.00  0.00    +0.196 HD
ENDBRANCH   8  13
ENDBRANCH   2   8
ENDBRANCH   1   5
BRANCH   1  17
ATOM     17  C   UNL     1      33.101 -13.646 -24.585  0.00  0.00    +0.213 C 
BRANCH  17  18
ATOM     18  C   UNL     1      34.082 -12.555 -24.169  0.00  0.00    +0.105 C 
BRANCH  18  21
ATOM     19  O   UNL     1      33.658  -9.750 -26.465  0.00  0.00    -0.449 OA
ATOM     20  N   UNL     1      33.644 -10.123 -24.234  0.00  0.00    -0.373 NA
ATOM     21  C   UNL     1      33.877 -11.269 -24.917  0.00  0.00    +0.134 C 
ATOM     22  C   UNL     1      33.890 -11.076 -26.256  0.00  0.00    +0.216 C 
ATOM     23  C   UNL     1      33.521  -9.248 -25.208  0.00  0.00    +0.277 C 
ATOM     24  C   UNL     1      34.087 -11.916 -27.443  0.00  0.00    +0.055 C 
BRANCH  23  25
ATOM     25  C   UNL     1      33.262  -7.836 -25.138  0.00  0.00    +0.066 C 
ATOM     26  C   UNL     1      34.296  -6.944 -24.839  0.00  0.00    +0.006 C 
ATOM     27  C   UNL     1      31.973  -7.347 -25.366  0.00  0.00    +0.006 C 
ATOM     28  C   UNL     1      34.043  -5.575 -24.769  0.00  0.00    +0.000 C 
ATOM     29  C   UNL     1      31.720  -5.977 -25.297  0.00  0.00    +0.000 C 
ATOM     30  C   UNL     1      32.754  -5.091 -24.998  0.00  0.00    +0.000 C 
ENDBRANCH  23  25
ENDBRANCH  18  21
ENDBRANCH  17  18
ENDBRANCH   1  17
TORSDOF 7
ENDMDL
MODEL 9
REMARK VINA RESULT:     -10.9      5.263     12.845
REMARK  Name = 154000
REMARK  7 active torsions:
REMARK  status: ('A' for Active; 'I' for Inactive)
REMARK    1  A    between atoms: O_1  and  C_5
REMARK    2  A    between atoms: O_1  and  C_17
REMARK    3  A    between atoms: C_2  and  C_8
REMARK    4  A    between atoms: C_8  and  C_13
REMARK    5  A    between atoms: C_17  and  C_18
REMARK    6  A    between atoms: C_18  and  C_21
REMARK    7  A    between atoms: C_23  and  C_25
REMARK                            x       y       z     vdW  Elec       q    Type
REMARK                         _______ _______ _______ _____ _____    ______ ____
ROOT
ATOM      1  O   UNL     1      34.926 -15.624 -23.961  0.00  0.00    -0.475 OA
ENDROOT
BRANCH   1   5
ATOM      2  C   UNL     1      34.980 -19.375 -22.225  0.00  0.00    -0.021 C 
ATOM      3  C   UNL     1      34.642 -19.250 -23.564  0.00  0.00    -0.001 C 
ATOM      4  C   UNL     1      35.300 -18.265 -21.458  0.00  0.00    -0.001 C 
ATOM      5  C   UNL     1      34.943 -16.859 -23.390  0.00  0.00    +0.139 C 
ATOM      6  C   UNL     1      34.623 -17.984 -24.150  0.00  0.00    +0.037 C 
ATOM      7  C   UNL     1      35.281 -17.000 -22.044  0.00  0.00    +0.037 C 
BRANCH   2   8
ATOM      8  C   UNL     1      34.999 -20.743 -21.591  0.00  0.00    +0.047 C 
BRANCH   8  13
ATOM      9  O   UNL     1      32.692 -22.184 -19.483  0.00  0.00    -0.346 OA
ATOM     10  O   UNL     1      36.146 -21.909 -19.045  0.00  0.00    -0.272 OA
ATOM     11  O   UNL     1      32.043 -20.505 -20.910  0.00  0.00    -0.247 OA
ATOM     12  N   UNL     1      33.923 -22.597 -18.932  0.00  0.00    -0.144 N 
ATOM     13  C   UNL     1      34.368 -20.739 -20.212  0.00  0.00    +0.184 C 
ATOM     14  C   UNL     1      34.966 -21.797 -19.335  0.00  0.00    +0.264 C 
ATOM     15  C   UNL     1      32.905 -21.089 -20.273  0.00  0.00    +0.348 C 
ATOM     16  H   UNL     1      34.023 -23.369 -18.329  0.00  0.00    +0.196 HD
ENDBRANCH   8  13
ENDBRANCH   2   8
ENDBRANCH   1   5
BRANCH   1  17
ATOM     17  C   UNL     1      34.254 -14.587 -23.245  0.00  0.00    +0.213 C 
BRANCH  17  18
ATOM     18  C   UNL     1      33.384 -13.779 -24.203  0.00  0.00    +0.105 C 
BRANCH  18  21
ATOM     19  O   UNL     1      32.497 -10.591 -22.665  0.00  0.00    -0.449 OA
ATOM     20  N   UNL     1      33.758 -11.342 -24.386  0.00  0.00    -0.373 NA
ATOM     21  C   UNL     1      33.158 -12.370 -23.738  0.00  0.00    +0.134 C 
ATOM     22  C   UNL     1      32.396 -11.949 -22.702  0.00  0.00    +0.216 C 
ATOM     23  C   UNL     1      33.328 -10.304 -23.704  0.00  0.00    +0.277 C 
ATOM     24  C   UNL     1      31.548 -12.584 -21.687  0.00  0.00    +0.055 C 
BRANCH  23  25
ATOM     25  C   UNL     1      33.610  -8.908 -23.894  0.00  0.00    +0.066 C 
ATOM     26  C   UNL     1      32.600  -7.956 -23.724  0.00  0.00    +0.006 C 
ATOM     27  C   UNL     1      34.895  -8.494 -24.253  0.00  0.00    +0.006 C 
ATOM     28  C   UNL     1      32.874  -6.602 -23.912  0.00  0.00    +0.000 C 
ATOM     29  C   UNL     1      35.170  -7.139 -24.440  0.00  0.00    +0.000 C 
ATOM     30  C   UNL     1      34.159  -6.193 -24.269  0.00  0.00    +0.000 C 
ENDBRANCH  23  25
ENDBRANCH  18  21
ENDBRANCH  17  18
ENDBRANCH   1  17
TORSDOF 7
ENDMDL
