MODEL 1
REMARK VINA RESULT:     -11.9      0.000      0.000
REMARK  Name = 446560
REMARK  8 active torsions:
REMARK  status: ('A' for Active; 'I' for Inactive)
REMARK    1  A    between atoms: C_1  and  C_19
REMARK    2  A    between atoms: C_2  and  C_9
REMARK    3  A    between atoms: N_8  and  CA_11
REMARK    4  A    between atoms: CA_11  and  CB_12
REMARK    5  A    between atoms: CA_11  and  C_16
REMARK    6  A    between atoms: C_16  and  O_17
REMARK    7  A    between atoms: C_19  and  C_20
REMARK    8  A    between atoms: C_20  and  C_26
REMARK                            x       y       z     vdW  Elec       q    Type
REMARK                         _______ _______ _______ _____ _____    ______ ____
ROOT
ATOM      1  C   UNL     1      35.142 -20.480 -20.604  0.00  0.00    -0.022 C 
ATOM      2  C   UNL     1      33.825 -22.269 -18.968  0.00  0.00    +0.053 C 
ATOM      3  C   UNL     1      33.748 -20.537 -20.611  0.00  0.00    -0.004 C 
ATOM      4  C   UNL     1      35.870 -21.329 -19.769  0.00  0.00    -0.004 C 
ATOM      5  C   UNL     1      33.082 -21.440 -19.784  0.00  0.00    +0.004 C 
ATOM      6  C   UNL     1      35.203 -22.234 -18.943  0.00  0.00    +0.004 C 
ENDROOT
BRANCH   2   9
ATOM      7  O   UNL     1      33.496 -24.400 -18.046  0.00  0.00    -0.270 OA
ATOM      8  N   UNL     1      32.070 -22.712 -17.341  0.00  0.00    -0.293 N 
ATOM      9  C   ACE A   0      33.117 -23.232 -18.086  0.00  0.00    +0.246 C 
ATOM     10  H   UNL     1      31.843 -21.760 -17.445  0.00  0.00    +0.150 HD
BRANCH   8  11
ATOM     11  CA  UNL     1      31.301 -23.517 -16.420  0.00  0.00    +0.171 C 
BRANCH  11  12
ATOM     12  CB  UNL     1      31.690 -23.179 -14.964  0.00  0.00    +0.029 C 
ATOM     13  CG1 UNL     1      33.018 -23.825 -14.555  0.00  0.00    +0.002 C 
ATOM     14  CG2 UNL     1      30.597 -23.527 -13.950  0.00  0.00    +0.002 C 
ENDBRANCH  11  12
BRANCH  11  16
ATOM     15  OXT UNL     1      29.272 -22.378 -17.116  0.00  0.00    -0.248 OA
ATOM     16  C   UNL     1      29.808 -23.404 -16.715  0.00  0.00    +0.332 C 
BRANCH  16  17
ATOM     17  O   UNL     1      29.094 -24.526 -16.449  0.00  0.00    -0.479 OA
ATOM     18  H   UNL     1      28.707 -25.011 -17.151  0.00  0.00    +0.295 HD
ENDBRANCH  16  17
ENDBRANCH  11  16
ENDBRANCH   8  11
ENDBRANCH   2   9
BRANCH   1  19
ATOM     19  C   UNL     1      35.853 -19.513 -21.489  0.00  0.00    +0.031 C 
BRANCH  19  20
ATOM     20  C   UNL     1      34.989 -18.958 -22.640  0.00  0.00    +0.033 C 
BRANCH  20  26
ATOM     21  O   UNL     1      34.102 -17.975 -25.531  0.00  0.00    -0.209 OA
ATOM     22  N   UNL     1      34.693 -15.401 -21.792  0.00  0.00    -0.300 N 
ATOM     23  N   UNL     1      34.007 -14.302 -23.825  0.00  0.00    -0.264 N 
ATOM     24  N   UNL     1      33.716 -15.707 -25.742  0.00  0.00    -0.302 NA
ATOM     25  N   UNL     1      33.352 -13.381 -25.838  0.00  0.00    -0.320 N 
ATOM     26  C   UNL     1      34.790 -17.471 -22.574  0.00  0.00    +0.007 C 
ATOM     27  C   UNL     1      34.397 -16.641 -23.630  0.00  0.00    +0.120 C 
ATOM     28  C   UNL     1      34.350 -15.378 -23.104  0.00  0.00    +0.115 C 
ATOM     29  C   UNL     1      34.969 -16.707 -21.452  0.00  0.00    +0.059 C 
ATOM     30  C   UNL     1      34.067 -16.857 -25.030  0.00  0.00    +0.209 C 
ATOM     31  C   UNL     1      33.694 -14.524 -25.161  0.00  0.00    +0.248 C 
ATOM     32  H   UNL     1      34.736 -14.623 -21.189  0.00  0.00    +0.153 HD
ATOM     33  H   UNL     1      33.979 -13.400 -23.429  0.00  0.00    +0.157 HD
ATOM     34  H   UNL     1      33.347 -12.515 -25.371  0.00  0.00    +0.146 HD
ATOM     35  H   UNL     1      33.111 -13.427 -26.792  0.00  0.00    +0.146 HD
ENDBRANCH  20  26
ENDBRANCH  19  20
ENDBRANCH   1  19
TORSDOF 8
ENDMDL
MODEL 2
REMARK VINA RESULT:     -11.7      1.776      2.502
REMARK  Name = 446560
REMARK  8 active torsions:
REMARK  status: ('A' for Active; 'I' for Inactive)
REMARK    1  A    between atoms: C_1  and  C_19
REMARK    2  A    between atoms: C_2  and  C_9
REMARK    3  A    between atoms: N_8  and  CA_11
REMARK    4  A    between atoms: CA_11  and  CB_12
REMARK    5  A    between atoms: CA_11  and  C_16
REMARK    6  A    between atoms: C_16  and  O_17
REMARK    7  A    between atoms: C_19  and  C_20
REMARK    8  A    between atoms: C_20  and  C_26
REMARK                            x       y       z     vdW  Elec       q    Type
REMARK                         _______ _______ _______ _____ _____    ______ ____
ROOT
ATOM      1  C   UNL     1      34.144 -20.051 -21.267  0.00  0.00    -0.022 C 
ATOM      2  C   UNL     1      34.037 -21.998 -19.314  0.00  0.00    +0.053 C 
ATOM      3  C   UNL     1      32.912 -20.459 -20.755  0.00  0.00    -0.004 C 
ATOM      4  C   UNL     1      35.322 -20.628 -20.792  0.00  0.00    -0.004 C 
ATOM      5  C   UNL     1      32.858 -21.442 -19.768  0.00  0.00    +0.004 C 
ATOM      6  C   UNL     1      35.267 -21.612 -19.805  0.00  0.00    +0.004 C 
ENDROOT
BRANCH   2   9
ATOM      7  O   UNL     1      33.388 -24.095 -18.493  0.00  0.00    -0.270 OA
ATOM      8  N   UNL     1      34.640 -22.749 -17.080  0.00  0.00    -0.293 N 
ATOM      9  C   ACE A   0      33.981 -23.044 -18.262  0.00  0.00    +0.246 C 
ATOM     10  H   UNL     1      35.087 -21.876 -16.992  0.00  0.00    +0.150 HD
BRANCH   8  11
ATOM     11  CA  UNL     1      34.696 -23.676 -15.972  0.00  0.00    +0.171 C 
BRANCH  11  12
ATOM     12  CB  UNL     1      36.111 -23.681 -15.353  0.00  0.00    +0.029 C 
ATOM     13  CG1 UNL     1      37.091 -22.806 -16.141  0.00  0.00    +0.002 C 
ATOM     14  CG2 UNL     1      36.686 -25.089 -15.173  0.00  0.00    +0.002 C 
ENDBRANCH  11  12
BRANCH  11  16
ATOM     15  OXT UNL     1      32.429 -23.115 -15.306  0.00  0.00    -0.248 OA
ATOM     16  C   UNL     1      33.574 -23.400 -14.976  0.00  0.00    +0.332 C 
BRANCH  16  17
ATOM     17  O   UNL     1      33.952 -23.441 -13.674  0.00  0.00    -0.479 OA
ATOM     18  H   UNL     1      33.653 -24.138 -13.123  0.00  0.00    +0.295 HD
ENDBRANCH  16  17
ENDBRANCH  11  16
ENDBRANCH   8  11
ENDBRANCH   2   9
BRANCH   1  19
ATOM     19  C   UNL     1      34.200 -18.999 -22.323  0.00  0.00    +0.031 C 
BRANCH  19  20
ATOM     20  C   UNL     1      35.285 -17.928 -22.089  0.00  0.00    +0.033 C 
BRANCH  20  26
ATOM     21  O   UNL     1      34.686 -17.537 -25.187  0.00  0.00    -0.209 OA
ATOM     22  N   UNL     1      34.162 -14.443 -21.854  0.00  0.00    -0.300 N 
ATOM     23  N   UNL     1      33.601 -13.786 -24.104  0.00  0.00    -0.264 N 
ATOM     24  N   UNL     1      33.898 -15.453 -25.799  0.00  0.00    -0.302 NA
ATOM     25  N   UNL     1      33.101 -13.293 -26.304  0.00  0.00    -0.320 N 
ATOM     26  C   UNL     1      34.788 -16.524 -22.283  0.00  0.00    +0.007 C 
ATOM     27  C   UNL     1      34.410 -15.940 -23.497  0.00  0.00    +0.120 C 
ATOM     28  C   UNL     1      34.032 -14.662 -23.187  0.00  0.00    +0.115 C 
ATOM     29  C   UNL     1      34.635 -15.603 -21.281  0.00  0.00    +0.059 C 
ATOM     30  C   UNL     1      34.353 -16.399 -24.876  0.00  0.00    +0.209 C 
ATOM     31  C   UNL     1      33.551 -14.239 -25.418  0.00  0.00    +0.248 C 
ATOM     32  H   UNL     1      33.956 -13.604 -21.380  0.00  0.00    +0.153 HD
ATOM     33  H   UNL     1      33.333 -12.870 -23.862  0.00  0.00    +0.157 HD
ATOM     34  H   UNL     1      32.851 -12.397 -25.983  0.00  0.00    +0.146 HD
ATOM     35  H   UNL     1      33.027 -13.512 -27.261  0.00  0.00    +0.146 HD
ENDBRANCH  20  26
ENDBRANCH  19  20
ENDBRANCH   1  19
TORSDOF 8
ENDMDL
MODEL 3
REMARK VINA RESULT:     -11.6      1.478      1.892
REMARK  Name = 446560
REMARK  8 active torsions:
REMARK  status: ('A' for Active; 'I' for Inactive)
REMARK    1  A    between atoms: C_1  and  C_19
REMARK    2  A    between atoms: C_2  and  C_9
REMARK    3  A    between atoms: N_8  and  CA_11
REMARK    4  A    between atoms: CA_11  and  CB_12
REMARK    5  A    between atoms: CA_11  and  C_16
REMARK    6  A    between atoms: C_16  and  O_17
REMARK    7  A    between atoms: C_19  and  C_20
REMARK    8  A    between atoms: C_20  and  C_26
REMARK                            x       y       z     vdW  Elec       q    Type
REMARK                         _______ _______ _______ _____ _____    ______ ____
ROOT
ATOM      1  C   UNL     1      35.076 -20.195 -20.882  0.00  0.00    -0.022 C 
ATOM      2  C   UNL     1      33.821 -22.078 -19.303  0.00  0.00    +0.053 C 
ATOM      3  C   UNL     1      33.683 -20.251 -20.836  0.00  0.00    -0.004 C 
ATOM      4  C   UNL     1      35.835 -21.093 -20.129  0.00  0.00    -0.004 C 
ATOM      5  C   UNL     1      33.048 -21.202 -20.038  0.00  0.00    +0.004 C 
ATOM      6  C   UNL     1      35.199 -22.044 -19.331  0.00  0.00    +0.004 C 
ENDROOT
BRANCH   2   9
ATOM      7  O   UNL     1      33.344 -24.284 -18.667  0.00  0.00    -0.270 OA
ATOM      8  N   UNL     1      32.342 -22.590 -17.439  0.00  0.00    -0.293 N 
ATOM      9  C   ACE A   0      33.146 -23.090 -18.451  0.00  0.00    +0.246 C 
ATOM     10  H   UNL     1      32.248 -21.615 -17.348  0.00  0.00    +0.150 HD
BRANCH   8  11
ATOM     11  CA  UNL     1      31.639 -23.449 -16.513  0.00  0.00    +0.171 C 
BRANCH  11  12
ATOM     12  CB  UNL     1      32.402 -23.524 -15.172  0.00  0.00    +0.029 C 
ATOM     13  CG1 UNL     1      33.891 -23.203 -15.335  0.00  0.00    +0.002 C 
ATOM     14  CG2 UNL     1      32.225 -24.863 -14.451  0.00  0.00    +0.002 C 
ENDBRANCH  11  12
BRANCH  11  16
ATOM     15  OXT UNL     1      29.491 -22.665 -17.331  0.00  0.00    -0.248 OA
ATOM     16  C   UNL     1      30.179 -23.028 -16.384  0.00  0.00    +0.332 C 
BRANCH  16  17
ATOM     17  O   UNL     1      29.700 -23.033 -15.115  0.00  0.00    -0.479 OA
ATOM     18  H   UNL     1      29.948 -22.354 -14.518  0.00  0.00    +0.295 HD
ENDBRANCH  16  17
ENDBRANCH  11  16
ENDBRANCH   8  11
ENDBRANCH   2   9
BRANCH   1  19
ATOM     19  C   UNL     1      35.754 -19.178 -21.736  0.00  0.00    +0.031 C 
BRANCH  19  20
ATOM     20  C   UNL     1      35.169 -17.757 -21.609  0.00  0.00    +0.033 C 
BRANCH  20  26
ATOM     21  O   UNL     1      34.460 -14.707 -21.056  0.00  0.00    -0.209 OA
ATOM     22  N   UNL     1      34.599 -16.826 -25.112  0.00  0.00    -0.300 N 
ATOM     23  N   UNL     1      34.020 -14.486 -25.078  0.00  0.00    -0.264 N 
ATOM     24  N   UNL     1      33.967 -13.439 -22.924  0.00  0.00    -0.302 NA
ATOM     25  N   UNL     1      33.481 -12.248 -24.899  0.00  0.00    -0.320 N 
ATOM     26  C   UNL     1      34.880 -17.110 -22.933  0.00  0.00    +0.007 C 
ATOM     27  C   UNL     1      34.527 -15.772 -23.141  0.00  0.00    +0.120 C 
ATOM     28  C   UNL     1      34.364 -15.641 -24.494  0.00  0.00    +0.115 C 
ATOM     29  C   UNL     1      34.923 -17.750 -24.143  0.00  0.00    +0.059 C 
ATOM     30  C   UNL     1      34.324 -14.623 -22.272  0.00  0.00    +0.209 C 
ATOM     31  C   UNL     1      33.830 -13.397 -24.235  0.00  0.00    +0.248 C 
ATOM     32  H   UNL     1      34.547 -16.996 -26.081  0.00  0.00    +0.153 HD
ATOM     33  H   UNL     1      33.907 -14.412 -26.054  0.00  0.00    +0.157 HD
ATOM     34  H   UNL     1      33.389 -12.254 -25.878  0.00  0.00    +0.146 HD
ATOM     35  H   UNL     1      33.324 -11.417 -24.395  0.00  0.00    +0.146 HD
ENDBRANCH  20  26
ENDBRANCH  19  20
ENDBRANCH   1  19
TORSDOF 8
ENDMDL
MODEL 4
REMARK VINA RESULT:     -11.5      3.175     10.804
REMARK  Name = 446560
REMARK  8 active torsions:
REMARK  status: ('A' for Active; 'I' for Inactive)
REMARK    1  A    between atoms: C_1  and  C_19
REMARK    2  A    between atoms: C_2  and  C_9
REMARK    3  A    between atoms: N_8  and  CA_11
REMARK    4  A    between atoms: CA_11  and  CB_12
REMARK    5  A    between atoms: CA_11  and  C_16
REMARK    6  A    between atoms: C_16  and  O_17
REMARK    7  A    between atoms: C_19  and  C_20
REMARK    8  A    between atoms: C_20  and  C_26
REMARK                            x       y       z     vdW  Elec       q    Type
REMARK                         _______ _______ _______ _____ _____    ______ ____
ROOT
ATOM      1  C   UNL     1      35.054 -17.839 -23.320  0.00  0.00    -0.022 C 
ATOM      2  C   UNL     1      34.056 -15.341 -23.938  0.00  0.00    +0.053 C 
ATOM      3  C   UNL     1      34.520 -17.594 -24.585  0.00  0.00    -0.004 C 
ATOM      4  C   UNL     1      35.082 -16.820 -22.366  0.00  0.00    -0.004 C 
ATOM      5  C   UNL     1      34.017 -16.332 -24.898  0.00  0.00    +0.004 C 
ATOM      6  C   UNL     1      34.577 -15.558 -22.680  0.00  0.00    +0.004 C 
ENDROOT
BRANCH   2   9
ATOM      7  O   UNL     1      32.735 -13.456 -23.497  0.00  0.00    -0.270 OA
ATOM      8  N   UNL     1      33.985 -13.436 -25.450  0.00  0.00    -0.293 N 
ATOM      9  C   ACE A   0      33.522 -13.996 -24.271  0.00  0.00    +0.246 C 
ATOM     10  H   UNL     1      34.616 -13.951 -26.003  0.00  0.00    +0.150 HD
BRANCH   8  11
ATOM     11  CA  UNL     1      33.577 -12.124 -25.897  0.00  0.00    +0.171 C 
BRANCH  11  12
ATOM     12  CB  UNL     1      34.437 -11.037 -25.216  0.00  0.00    +0.029 C 
ATOM     13  CG1 UNL     1      33.605 -10.120 -24.314  0.00  0.00    +0.002 C 
ATOM     14  CG2 UNL     1      35.254 -10.204 -26.208  0.00  0.00    +0.002 C 
ENDBRANCH  11  12
BRANCH  11  16
ATOM     15  OXT UNL     1      34.507 -12.375 -28.127  0.00  0.00    -0.248 OA
ATOM     16  C   UNL     1      33.559 -12.050 -27.421  0.00  0.00    +0.332 C 
BRANCH  16  17
ATOM     17  O   UNL     1      32.418 -11.542 -27.948  0.00  0.00    -0.479 OA
ATOM     18  H   UNL     1      32.018 -10.789 -27.559  0.00  0.00    +0.295 HD
ENDBRANCH  16  17
ENDBRANCH  11  16
ENDBRANCH   8  11
ENDBRANCH   2   9
BRANCH   1  19
ATOM     19  C   UNL     1      35.591 -19.189 -22.986  0.00  0.00    +0.031 C 
BRANCH  19  20
ATOM     20  C   UNL     1      35.647 -19.491 -21.475  0.00  0.00    +0.033 C 
BRANCH  20  26
ATOM     21  O   UNL     1      36.534 -21.568 -19.238  0.00  0.00    -0.209 OA
ATOM     22  N   UNL     1      32.276 -20.696 -20.671  0.00  0.00    -0.300 N 
ATOM     23  N   UNL     1      32.569 -22.348 -18.941  0.00  0.00    -0.264 N 
ATOM     24  N   UNL     1      34.823 -22.755 -18.238  0.00  0.00    -0.302 NA
ATOM     25  N   UNL     1      32.996 -23.905 -17.291  0.00  0.00    -0.320 N 
ATOM     26  C   UNL     1      34.405 -20.155 -20.952  0.00  0.00    +0.007 C 
ATOM     27  C   UNL     1      34.348 -21.136 -19.956  0.00  0.00    +0.120 C 
ATOM     28  C   UNL     1      33.021 -21.439 -19.815  0.00  0.00    +0.115 C 
ATOM     29  C   UNL     1      33.134 -19.890 -21.387  0.00  0.00    +0.059 C 
ATOM     30  C   UNL     1      35.338 -21.816 -19.135  0.00  0.00    +0.209 C 
ATOM     31  C   UNL     1      33.527 -22.988 -18.163  0.00  0.00    +0.248 C 
ATOM     32  H   UNL     1      31.295 -20.726 -20.766  0.00  0.00    +0.153 HD
ATOM     33  H   UNL     1      31.610 -22.553 -18.855  0.00  0.00    +0.157 HD
ATOM     34  H   UNL     1      32.024 -24.053 -17.263  0.00  0.00    +0.146 HD
ATOM     35  H   UNL     1      33.589 -24.415 -16.692  0.00  0.00    +0.146 HD
ENDBRANCH  20  26
ENDBRANCH  19  20
ENDBRANCH   1  19
TORSDOF 8
ENDMDL
MODEL 5
REMARK VINA RESULT:     -11.3      2.447      3.138
REMARK  Name = 446560
REMARK  8 active torsions:
REMARK  status: ('A' for Active; 'I' for Inactive)
REMARK    1  A    between atoms: C_1  and  C_19
REMARK    2  A    between atoms: C_2  and  C_9
REMARK    3  A    between atoms: N_8  and  CA_11
REMARK    4  A    between atoms: CA_11  and  CB_12
REMARK    5  A    between atoms: CA_11  and  C_16
REMARK    6  A    between atoms: C_16  and  O_17
REMARK    7  A    between atoms: C_19  and  C_20
REMARK    8  A    between atoms: C_20  and  C_26
REMARK                            x       y       z     vdW  Elec       q    Type
REMARK                         _______ _______ _______ _____ _____    ______ ____
ROOT
ATOM      1  C   UNL     1      34.644 -20.745 -20.566  0.00  0.00    -0.022 C 
ATOM      2  C   UNL     1      35.586 -22.015 -18.304  0.00  0.00    +0.053 C 
ATOM      3  C   UNL     1      33.777 -21.504 -19.779  0.00  0.00    -0.004 C 
ATOM      4  C   UNL     1      35.988 -20.630 -20.209  0.00  0.00    -0.004 C 
ATOM      5  C   UNL     1      34.252 -22.145 -18.636  0.00  0.00    +0.004 C 
ATOM      6  C   UNL     1      36.464 -21.272 -19.066  0.00  0.00    +0.004 C 
ENDROOT
BRANCH   2   9
ATOM      7  O   UNL     1      37.261 -22.524 -16.745  0.00  0.00    -0.270 OA
ATOM      8  N   UNL     1      35.174 -23.476 -16.403  0.00  0.00    -0.293 N 
ATOM      9  C   ACE A   0      36.093 -22.697 -17.086  0.00  0.00    +0.246 C 
ATOM     10  H   UNL     1      34.260 -23.552 -16.759  0.00  0.00    +0.150 HD
BRANCH   8  11
ATOM     11  CA  UNL     1      35.510 -24.182 -15.187  0.00  0.00    +0.171 C 
BRANCH  11  12
ATOM     12  CB  UNL     1      34.245 -24.394 -14.328  0.00  0.00    +0.029 C 
ATOM     13  CG1 UNL     1      33.059 -23.561 -14.827  0.00  0.00    +0.002 C 
ATOM     14  CG2 UNL     1      34.479 -24.140 -12.836  0.00  0.00    +0.002 C 
ENDBRANCH  11  12
BRANCH  11  16
ATOM     15  OXT UNL     1      35.745 -26.531 -15.761  0.00  0.00    -0.248 OA
ATOM     16  C   UNL     1      36.282 -25.461 -15.497  0.00  0.00    +0.332 C 
BRANCH  16  17
ATOM     17  O   UNL     1      37.630 -25.342 -15.409  0.00  0.00    -0.479 OA
ATOM     18  H   UNL     1      38.159 -26.105 -15.279  0.00  0.00    +0.295 HD
ENDBRANCH  16  17
ENDBRANCH  11  16
ENDBRANCH   8  11
ENDBRANCH   2   9
BRANCH   1  19
ATOM     19  C   UNL     1      34.134 -20.060 -21.788  0.00  0.00    +0.031 C 
BRANCH  19  20
ATOM     20  C   UNL     1      35.198 -19.233 -22.539  0.00  0.00    +0.033 C 
BRANCH  20  26
ATOM     21  O   UNL     1      34.235 -18.339 -25.434  0.00  0.00    -0.209 OA
ATOM     22  N   UNL     1      34.777 -15.675 -21.751  0.00  0.00    -0.300 N 
ATOM     23  N   UNL     1      34.023 -14.641 -23.793  0.00  0.00    -0.264 N 
ATOM     24  N   UNL     1      33.759 -16.092 -25.681  0.00  0.00    -0.302 NA
ATOM     25  N   UNL     1      33.306 -13.783 -25.814  0.00  0.00    -0.320 N 
ATOM     26  C   UNL     1      34.943 -17.754 -22.497  0.00  0.00    +0.007 C 
ATOM     27  C   UNL     1      34.505 -16.959 -23.562  0.00  0.00    +0.120 C 
ATOM     28  C   UNL     1      34.416 -15.689 -23.059  0.00  0.00    +0.115 C 
ATOM     29  C   UNL     1      35.108 -16.963 -21.391  0.00  0.00    +0.059 C 
ATOM     30  C   UNL     1      34.164 -17.214 -24.953  0.00  0.00    +0.209 C 
ATOM     31  C   UNL     1      33.700 -14.900 -25.121  0.00  0.00    +0.248 C 
ATOM     32  H   UNL     1      34.799 -14.885 -21.163  0.00  0.00    +0.153 HD
ATOM     33  H   UNL     1      33.965 -13.734 -23.414  0.00  0.00    +0.157 HD
ATOM     34  H   UNL     1      33.273 -12.909 -25.362  0.00  0.00    +0.146 HD
ATOM     35  H   UNL     1      33.054 -13.856 -26.763  0.00  0.00    +0.146 HD
ENDBRANCH  20  26
ENDBRANCH  19  20
ENDBRANCH   1  19
TORSDOF 8
ENDMDL
MODEL 6
REMARK VINA RESULT:     -11.3      3.413     11.030
REMARK  Name = 446560
REMARK  8 active torsions:
REMARK  status: ('A' for Active; 'I' for Inactive)
REMARK    1  A    between atoms: C_1  and  C_19
REMARK    2  A    between atoms: C_2  and  C_9
REMARK    3  A    between atoms: N_8  and  CA_11
REMARK    4  A    between atoms: CA_11  and  CB_12
REMARK    5  A    between atoms: CA_11  and  C_16
REMARK    6  A    between atoms: C_16  and  O_17
REMARK    7  A    between atoms: C_19  and  C_20
REMARK    8  A    between atoms: C_20  and  C_26
REMARK                            x       y       z     vdW  Elec       q    Type
REMARK                         _______ _______ _______ _____ _____    ______ ____
ROOT
ATOM      1  C   UNL     1      34.876 -16.539 -22.250  0.00  0.00    -0.022 C 
ATOM      2  C   UNL     1      34.161 -14.497 -23.962  0.00  0.00    +0.053 C 
ATOM      3  C   UNL     1      34.871 -16.754 -23.628  0.00  0.00    -0.004 C 
ATOM      4  C   UNL     1      34.518 -15.292 -21.737  0.00  0.00    -0.004 C 
ATOM      5  C   UNL     1      34.511 -15.722 -24.494  0.00  0.00    +0.004 C 
ATOM      6  C   UNL     1      34.156 -14.260 -22.603  0.00  0.00    +0.004 C 
ENDROOT
BRANCH   2   9
ATOM      7  O   UNL     1      33.122 -13.657 -25.888  0.00  0.00    -0.270 OA
ATOM      8  N   UNL     1      34.184 -12.126 -24.508  0.00  0.00    -0.293 N 
ATOM      9  C   ACE A   0      33.778 -13.397 -24.883  0.00  0.00    +0.246 C 
ATOM     10  H   UNL     1      34.708 -12.021 -23.681  0.00  0.00    +0.150 HD
BRANCH   8  11
ATOM     11  CA  UNL     1      33.867 -10.951 -25.287  0.00  0.00    +0.171 C 
BRANCH  11  12
ATOM     12  CB  UNL     1      33.460  -9.788 -24.356  0.00  0.00    +0.029 C 
ATOM     13  CG1 UNL     1      32.506 -10.242 -23.246  0.00  0.00    +0.002 C 
ATOM     14  CG2 UNL     1      32.869  -8.591 -25.106  0.00  0.00    +0.002 C 
ENDBRANCH  11  12
BRANCH  11  16
ATOM     15  OXT UNL     1      34.946 -10.825 -27.459  0.00  0.00    -0.248 OA
ATOM     16  C   UNL     1      35.000 -10.617 -26.253  0.00  0.00    +0.332 C 
BRANCH  16  17
ATOM     17  O   UNL     1      36.112 -10.112 -25.665  0.00  0.00    -0.479 OA
ATOM     18  H   UNL     1      36.081  -9.274 -25.247  0.00  0.00    +0.295 HD
ENDBRANCH  16  17
ENDBRANCH  11  16
ENDBRANCH   8  11
ENDBRANCH   2   9
BRANCH   1  19
ATOM     19  C   UNL     1      35.261 -17.644 -21.326  0.00  0.00    +0.031 C 
BRANCH  19  20
ATOM     20  C   UNL     1      34.859 -19.049 -21.819  0.00  0.00    +0.033 C 
BRANCH  20  26
ATOM     21  O   UNL     1      32.151 -20.310 -20.731  0.00  0.00    -0.209 OA
ATOM     22  N   UNL     1      36.418 -21.544 -19.627  0.00  0.00    -0.300 N 
ATOM     23  N   UNL     1      34.595 -22.737 -18.597  0.00  0.00    -0.264 N 
ATOM     24  N   UNL     1      32.388 -22.041 -19.219  0.00  0.00    -0.302 NA
ATOM     25  N   UNL     1      32.755 -23.793 -17.686  0.00  0.00    -0.320 N 
ATOM     26  C   UNL     1      35.221 -20.146 -20.858  0.00  0.00    +0.007 C 
ATOM     27  C   UNL     1      34.326 -20.957 -20.154  0.00  0.00    +0.120 C 
ATOM     28  C   UNL     1      35.104 -21.803 -19.410  0.00  0.00    +0.115 C 
ATOM     29  C   UNL     1      36.501 -20.509 -20.532  0.00  0.00    +0.059 C 
ATOM     30  C   UNL     1      32.876 -21.053 -20.079  0.00  0.00    +0.209 C 
ATOM     31  C   UNL     1      33.208 -22.816 -18.537  0.00  0.00    +0.248 C 
ATOM     32  H   UNL     1      37.179 -22.013 -19.212  0.00  0.00    +0.153 HD
ATOM     33  H   UNL     1      35.171 -23.336 -18.069  0.00  0.00    +0.157 HD
ATOM     34  H   UNL     1      33.396 -24.353 -17.193  0.00  0.00    +0.146 HD
ATOM     35  H   UNL     1      31.787 -23.935 -17.571  0.00  0.00    +0.146 HD
ENDBRANCH  20  26
ENDBRANCH  19  20
ENDBRANCH   1  19
TORSDOF 8
ENDMDL
MODEL 7
REMARK VINA RESULT:     -11.1      2.721     10.271
REMARK  Name = 446560
REMARK  8 active torsions:
REMARK  status: ('A' for Active; 'I' for Inactive)
REMARK    1  A    between atoms: C_1  and  C_19
REMARK    2  A    between atoms: C_2  and  C_9
REMARK    3  A    between atoms: N_8  and  CA_11
REMARK    4  A    between atoms: CA_11  and  CB_12
REMARK    5  A    between atoms: CA_11  and  C_16
REMARK    6  A    between atoms: C_16  and  O_17
REMARK    7  A    between atoms: C_19  and  C_20
REMARK    8  A    between atoms: C_20  and  C_26
REMARK                            x       y       z     vdW  Elec       q    Type
REMARK                         _______ _______ _______ _____ _____    ______ ____
ROOT
ATOM      1  C   UNL     1      33.884 -22.091 -19.367  0.00  0.00    -0.022 C 
ATOM      2  C   UNL     1      35.005 -20.103 -20.919  0.00  0.00    +0.053 C 
ATOM      3  C   UNL     1      33.064 -21.208 -20.070  0.00  0.00    -0.004 C 
ATOM      4  C   UNL     1      35.272 -21.968 -19.448  0.00  0.00    -0.004 C 
ATOM      5  C   UNL     1      33.630 -20.204 -20.854  0.00  0.00    +0.004 C 
ATOM      6  C   UNL     1      35.837 -20.962 -20.232  0.00  0.00    +0.004 C 
ENDROOT
BRANCH   2   9
ATOM      7  O   UNL     1      36.832 -18.944 -21.820  0.00  0.00    -0.270 OA
ATOM      8  N   UNL     1      34.715 -18.219 -22.431  0.00  0.00    -0.293 N 
ATOM      9  C   ACE A   0      35.608 -19.035 -21.755  0.00  0.00    +0.246 C 
ATOM     10  H   UNL     1      33.750 -18.373 -22.312  0.00  0.00    +0.150 HD
BRANCH   8  11
ATOM     11  CA  UNL     1      35.149 -17.151 -23.302  0.00  0.00    +0.171 C 
BRANCH  11  12
ATOM     12  CB  UNL     1      34.567 -17.350 -24.719  0.00  0.00    +0.029 C 
ATOM     13  CG1 UNL     1      33.699 -16.167 -25.159  0.00  0.00    +0.002 C 
ATOM     14  CG2 UNL     1      33.792 -18.662 -24.874  0.00  0.00    +0.002 C 
ENDBRANCH  11  12
BRANCH  11  16
ATOM     15  OXT UNL     1      34.929 -14.732 -23.299  0.00  0.00    -0.248 OA
ATOM     16  C   UNL     1      34.850 -15.789 -22.684  0.00  0.00    +0.332 C 
BRANCH  16  17
ATOM     17  O   UNL     1      34.533 -15.825 -21.365  0.00  0.00    -0.479 OA
ATOM     18  H   UNL     1      33.827 -16.365 -21.069  0.00  0.00    +0.295 HD
ENDBRANCH  16  17
ENDBRANCH  11  16
ENDBRANCH   8  11
ENDBRANCH   2   9
BRANCH   1  19
ATOM     19  C   UNL     1      33.278 -23.164 -18.527  0.00  0.00    +0.031 C 
BRANCH  19  20
ATOM     20  C   UNL     1      32.224 -22.658 -17.521  0.00  0.00    +0.033 C 
BRANCH  20  26
ATOM     21  O   UNL     1      35.027 -22.536 -16.025  0.00  0.00    -0.209 OA
ATOM     22  N   UNL     1      31.298 -24.857 -14.733  0.00  0.00    -0.300 N 
ATOM     23  N   UNL     1      33.258 -24.998 -13.337  0.00  0.00    -0.264 N 
ATOM     24  N   UNL     1      35.172 -23.759 -14.070  0.00  0.00    -0.302 NA
ATOM     25  N   UNL     1      35.203 -25.044 -12.095  0.00  0.00    -0.320 N 
ATOM     26  C   UNL     1      32.119 -23.509 -16.288  0.00  0.00    +0.007 C 
ATOM     27  C   UNL     1      33.130 -23.729 -15.346  0.00  0.00    +0.120 C 
ATOM     28  C   UNL     1      32.582 -24.562 -14.408  0.00  0.00    +0.115 C 
ATOM     29  C   UNL     1      31.000 -24.202 -15.908  0.00  0.00    +0.059 C 
ATOM     30  C   UNL     1      34.506 -23.280 -15.202  0.00  0.00    +0.209 C 
ATOM     31  C   UNL     1      34.571 -24.560 -13.213  0.00  0.00    +0.248 C 
ATOM     32  H   UNL     1      30.687 -25.435 -14.221  0.00  0.00    +0.153 HD
ATOM     33  H   UNL     1      32.846 -25.598 -12.673  0.00  0.00    +0.157 HD
ATOM     34  H   UNL     1      34.723 -25.639 -11.476  0.00  0.00    +0.146 HD
ATOM     35  H   UNL     1      36.138 -24.793 -11.911  0.00  0.00    +0.146 HD
ENDBRANCH  20  26
ENDBRANCH  19  20
ENDBRANCH   1  19
TORSDOF 8
ENDMDL
MODEL 8
REMARK VINA RESULT:     -10.8      3.713     10.392
REMARK  Name = 446560
REMARK  8 active torsions:
REMARK  status: ('A' for Active; 'I' for Inactive)
REMARK    1  A    between atoms: C_1  and  C_19
REMARK    2  A    between atoms: C_2  and  C_9
REMARK    3  A    between atoms: N_8  and  CA_11
REMARK    4  A    between atoms: CA_11  and  CB_12
REMARK    5  A    between atoms: CA_11  and  C_16
REMARK    6  A    between atoms: C_16  and  O_17
REMARK    7  A    between atoms: C_19  and  C_20
REMARK    8  A    between atoms: C_20  and  C_26
REMARK                            x       y       z     vdW  Elec       q    Type
REMARK                         _______ _______ _______ _____ _____    ______ ____
ROOT
ATOM      1  C   UNL     1      34.690 -22.000 -19.072  0.00  0.00    -0.022 C 
ATOM      2  C   UNL     1      35.510 -20.046 -20.838  0.00  0.00    +0.053 C 
ATOM      3  C   UNL     1      33.754 -21.347 -19.874  0.00  0.00    -0.004 C 
ATOM      4  C   UNL     1      36.042 -21.664 -19.163  0.00  0.00    -0.004 C 
ATOM      5  C   UNL     1      34.168 -20.360 -20.767  0.00  0.00    +0.004 C 
ATOM      6  C   UNL     1      36.455 -20.676 -20.056  0.00  0.00    +0.004 C 
ENDROOT
BRANCH   2   9
ATOM      7  O   UNL     1      37.154 -18.843 -22.000  0.00  0.00    -0.270 OA
ATOM      8  N   UNL     1      34.943 -18.266 -22.398  0.00  0.00    -0.293 N 
ATOM      9  C   ACE A   0      35.953 -18.995 -21.790  0.00  0.00    +0.246 C 
ATOM     10  H   UNL     1      34.008 -18.464 -22.161  0.00  0.00    +0.150 HD
BRANCH   8  11
ATOM     11  CA  UNL     1      35.213 -17.227 -23.365  0.00  0.00    +0.171 C 
BRANCH  11  12
ATOM     12  CB  UNL     1      34.505 -17.545 -24.700  0.00  0.00    +0.029 C 
ATOM     13  CG1 UNL     1      33.533 -16.437 -25.118  0.00  0.00    +0.002 C 
ATOM     14  CG2 UNL     1      33.794 -18.901 -24.698  0.00  0.00    +0.002 C 
ENDBRANCH  11  12
BRANCH  11  16
ATOM     15  OXT UNL     1      34.942 -14.814 -23.441  0.00  0.00    -0.248 OA
ATOM     16  C   UNL     1      34.886 -15.852 -22.791  0.00  0.00    +0.332 C 
BRANCH  16  17
ATOM     17  O   UNL     1      34.572 -15.851 -21.471  0.00  0.00    -0.479 OA
ATOM     18  H   UNL     1      34.498 -15.039 -21.009  0.00  0.00    +0.295 HD
ENDBRANCH  16  17
ENDBRANCH  11  16
ENDBRANCH   8  11
ENDBRANCH   2   9
BRANCH   1  19
ATOM     19  C   UNL     1      34.246 -23.056 -18.117  0.00  0.00    +0.031 C 
BRANCH  19  20
ATOM     20  C   UNL     1      34.550 -22.737 -16.638  0.00  0.00    +0.033 C 
BRANCH  20  26
ATOM     21  O   UNL     1      37.712 -22.493 -16.422  0.00  0.00    -0.209 OA
ATOM     22  N   UNL     1      35.070 -25.817 -14.713  0.00  0.00    -0.300 N 
ATOM     23  N   UNL     1      37.448 -25.963 -14.347  0.00  0.00    -0.264 N 
ATOM     24  N   UNL     1      38.771 -24.191 -15.267  0.00  0.00    -0.302 NA
ATOM     25  N   UNL     1      39.740 -25.976 -14.072  0.00  0.00    -0.320 N 
ATOM     26  C   UNL     1      35.046 -23.924 -15.862  0.00  0.00    +0.007 C 
ATOM     27  C   UNL     1      36.378 -24.202 -15.539  0.00  0.00    +0.120 C 
ATOM     28  C   UNL     1      36.346 -25.375 -14.832  0.00  0.00    +0.115 C 
ATOM     29  C   UNL     1      34.249 -24.915 -15.354  0.00  0.00    +0.059 C 
ATOM     30  C   UNL     1      37.650 -23.542 -15.791  0.00  0.00    +0.209 C 
ATOM     31  C   UNL     1      38.655 -25.320 -14.596  0.00  0.00    +0.248 C 
ATOM     32  H   UNL     1      34.780 -26.637 -14.251  0.00  0.00    +0.153 HD
ATOM     33  H   UNL     1      37.405 -26.807 -13.842  0.00  0.00    +0.157 HD
ATOM     34  H   UNL     1      39.615 -26.817 -13.577  0.00  0.00    +0.146 HD
ATOM     35  H   UNL     1      40.644 -25.605 -14.190  0.00  0.00    +0.146 HD
ENDBRANCH  20  26
ENDBRANCH  19  20
ENDBRANCH   1  19
TORSDOF 8
ENDMDL
MODEL 9
REMARK VINA RESULT:     -10.8      2.345     10.266
REMARK  Name = 446560
REMARK  8 active torsions:
REMARK  status: ('A' for Active; 'I' for Inactive)
REMARK    1  A    between atoms: C_1  and  C_19
REMARK    2  A    between atoms: C_2  and  C_9
REMARK    3  A    between atoms: N_8  and  CA_11
REMARK    4  A    between atoms: CA_11  and  CB_12
REMARK    5  A    between atoms: CA_11  and  C_16
REMARK    6  A    between atoms: C_16  and  O_17
REMARK    7  A    between atoms: C_19  and  C_20
REMARK    8  A    between atoms: C_20  and  C_26
REMARK                            x       y       z     vdW  Elec       q    Type
REMARK                         _______ _______ _______ _____ _____    ______ ____
ROOT
ATOM      1  C   UNL     1      34.592 -21.638 -19.920  0.00  0.00    -0.022 C 
ATOM      2  C   UNL     1      35.378 -19.429 -21.374  0.00  0.00    +0.053 C 
ATOM      3  C   UNL     1      35.940 -21.281 -19.974  0.00  0.00    -0.004 C 
ATOM      4  C   UNL     1      33.642 -20.878 -20.602  0.00  0.00    -0.004 C 
ATOM      5  C   UNL     1      36.337 -20.164 -20.708  0.00  0.00    +0.004 C 
ATOM      6  C   UNL     1      34.040 -19.761 -21.338  0.00  0.00    +0.004 C 
ENDROOT
BRANCH   2   9
ATOM      7  O   UNL     1      36.976 -18.128 -22.491  0.00  0.00    -0.270 OA
ATOM      8  N   UNL     1      34.797 -17.336 -22.471  0.00  0.00    -0.293 N 
ATOM      9  C   ACE A   0      35.800 -18.239 -22.156  0.00  0.00    +0.246 C 
ATOM     10  H   UNL     1      33.882 -17.515 -22.154  0.00  0.00    +0.150 HD
BRANCH   8  11
ATOM     11  CA  UNL     1      35.045 -16.142 -23.246  0.00  0.00    +0.171 C 
BRANCH  11  12
ATOM     12  CB  UNL     1      34.541 -16.333 -24.693  0.00  0.00    +0.029 C 
ATOM     13  CG1 UNL     1      33.455 -15.319 -25.067  0.00  0.00    +0.002 C 
ATOM     14  CG2 UNL     1      34.057 -17.757 -24.981  0.00  0.00    +0.002 C 
ENDBRANCH  11  12
BRANCH  11  16
ATOM     15  OXT UNL     1      33.743 -14.964 -21.568  0.00  0.00    -0.248 OA
ATOM     16  C   UNL     1      34.485 -14.910 -22.542  0.00  0.00    +0.332 C 
BRANCH  16  17
ATOM     17  O   UNL     1      34.831 -13.728 -23.111  0.00  0.00    -0.479 OA
ATOM     18  H   UNL     1      35.690 -13.615 -23.469  0.00  0.00    +0.295 HD
ENDBRANCH  16  17
ENDBRANCH  11  16
ENDBRANCH   8  11
ENDBRANCH   2   9
BRANCH   1  19
ATOM     19  C   UNL     1      34.169 -22.833 -19.134  0.00  0.00    +0.031 C 
BRANCH  19  20
ATOM     20  C   UNL     1      32.954 -22.587 -18.217  0.00  0.00    +0.033 C 
BRANCH  20  26
ATOM     21  O   UNL     1      30.027 -22.883 -17.010  0.00  0.00    -0.209 OA
ATOM     22  N   UNL     1      33.965 -24.179 -15.070  0.00  0.00    -0.300 N 
ATOM     23  N   UNL     1      31.923 -24.568 -13.851  0.00  0.00    -0.264 N 
ATOM     24  N   UNL     1      29.899 -23.867 -14.923  0.00  0.00    -0.302 NA
ATOM     25  N   UNL     1      29.893 -24.880 -12.796  0.00  0.00    -0.320 N 
ATOM     26  C   UNL     1      33.081 -23.240 -16.870  0.00  0.00    +0.007 C 
ATOM     27  C   UNL     1      32.030 -23.555 -16.001  0.00  0.00    +0.120 C 
ATOM     28  C   UNL     1      32.619 -24.131 -14.908  0.00  0.00    +0.115 C 
ATOM     29  C   UNL     1      34.263 -23.625 -16.295  0.00  0.00    +0.059 C 
ATOM     30  C   UNL     1      30.585 -23.396 -16.047  0.00  0.00    +0.209 C 
ATOM     31  C   UNL     1      30.543 -24.411 -13.910  0.00  0.00    +0.248 C 
ATOM     32  H   UNL     1      34.615 -24.546 -14.427  0.00  0.00    +0.153 HD
ATOM     33  H   UNL     1      32.365 -24.980 -13.073  0.00  0.00    +0.157 HD
ATOM     34  H   UNL     1      30.406 -25.280 -12.058  0.00  0.00    +0.146 HD
ATOM     35  H   UNL     1      28.912 -24.818 -12.736  0.00  0.00    +0.146 HD
ENDBRANCH  20  26
ENDBRANCH  19  20
ENDBRANCH   1  19
TORSDOF 8
ENDMDL
