MODEL 1
REMARK VINA RESULT:     -11.6      0.000      0.000
REMARK  Name = 9976892
REMARK  4 active torsions:
REMARK  status: ('A' for Active; 'I' for Inactive)
REMARK    1  A    between atoms: N_1  and  C_13
REMARK    2  A    between atoms: C_10  and  O_17
REMARK    3  A    between atoms: O_17  and  C_20
REMARK    4  A    between atoms: C_19  and  N_25
REMARK                            x       y       z     vdW  Elec       q    Type
REMARK                         _______ _______ _______ _____ _____    ______ ____
ROOT
ATOM      1  N   UNL     1      33.292  -6.273 -23.403  0.00  0.00    +0.389 N 
ATOM      2  C   UNL     1      32.271  -7.323 -23.529  0.00  0.00    -0.073 C 
ATOM      3  C   UNL     1      34.394  -6.413 -24.368  0.00  0.00    -0.073 C 
ATOM      4  C   UNL     1      32.751  -8.698 -23.053  0.00  0.00    +0.003 C 
ATOM      5  C   UNL     1      35.319  -7.597 -24.066  0.00  0.00    +0.003 C 
ATOM      6  C   UNL     1      33.568  -9.438 -24.083  0.00  0.00    -0.025 C 
ATOM      7  C   UNL     1      34.783  -8.916 -24.562  0.00  0.00    -0.028 C 
ATOM      8  C   UNL     1      33.116 -10.677 -24.563  0.00  0.00    +0.033 C 
ATOM      9  C   UNL     1      35.518  -9.648 -25.510  0.00  0.00    -0.002 C 
ATOM     10  C   UNL     1      33.853 -11.390 -25.508  0.00  0.00    +0.147 C 
ATOM     11  C   UNL     1      35.055 -10.875 -25.981  0.00  0.00    +0.037 C 
ATOM     12  H   UNL     1      33.698  -6.350 -22.470  0.00  0.00    -0.080 HD
ENDROOT
BRANCH   1  13
ATOM     13  C   UNL     1      32.657  -4.998 -23.616  0.00  0.00    -0.058 C 
ATOM     14  C   UNL     1      33.066  -4.399 -24.977  0.00  0.00    -0.021 C 
ATOM     15  C   UNL     1      31.244  -5.179 -24.207  0.00  0.00    -0.021 C 
ATOM     16  C   UNL     1      31.583  -4.023 -25.171  0.00  0.00    -0.004 C 
ENDBRANCH   1  13
BRANCH  10  17
ATOM     17  O   UNL     1      33.398 -12.589 -25.964  0.00  0.00    -0.436 OA
BRANCH  17  20
ATOM     18  N   UNL     1      33.592 -14.899 -25.868  0.00  0.00    -0.209 NA
ATOM     19  C   UNL     1      34.353 -15.957 -23.831  0.00  0.00    +0.073 C 
ATOM     20  C   UNL     1      33.724 -13.720 -25.234  0.00  0.00    +0.230 C 
ATOM     21  C   UNL     1      34.472 -14.712 -23.222  0.00  0.00    +0.021 C 
ATOM     22  C   UNL     1      33.913 -15.996 -25.144  0.00  0.00    +0.117 C 
ATOM     23  C   UNL     1      34.152 -13.562 -23.933  0.00  0.00    +0.059 C 
BRANCH  19  25
ATOM     24  O   UNL     1      34.123 -18.882 -24.679  0.00  0.00    -0.275 OA
ATOM     25  N   UNL     1      34.674 -17.154 -23.127  0.00  0.00    -0.257 N 
ATOM     26  C   UNL     1      35.728 -18.521 -21.552  0.00  0.00    +0.031 C 
ATOM     27  C   UNL     1      35.130 -17.144 -21.750  0.00  0.00    +0.099 C 
ATOM     28  C   UNL     1      34.898 -19.400 -22.466  0.00  0.00    +0.087 C 
ATOM     29  C   UNL     1      34.527 -18.472 -23.600  0.00  0.00    +0.229 C 
ENDBRANCH  19  25
ENDBRANCH  17  20
ENDBRANCH  10  17
TORSDOF 4
ENDMDL
MODEL 2
REMARK VINA RESULT:     -11.5      7.584     15.122
REMARK  Name = 9976892
REMARK  4 active torsions:
REMARK  status: ('A' for Active; 'I' for Inactive)
REMARK    1  A    between atoms: N_1  and  C_13
REMARK    2  A    between atoms: C_10  and  O_17
REMARK    3  A    between atoms: O_17  and  C_20
REMARK    4  A    between atoms: C_19  and  N_25
REMARK                            x       y       z     vdW  Elec       q    Type
REMARK                         _______ _______ _______ _____ _____    ______ ____
ROOT
ATOM      1  N   UNL     1      37.526 -24.268 -13.924  0.00  0.00    +0.389 N 
ATOM      2  C   UNL     1      37.611 -24.059 -15.376  0.00  0.00    -0.073 C 
ATOM      3  C   UNL     1      36.201 -24.727 -13.478  0.00  0.00    -0.073 C 
ATOM      4  C   UNL     1      36.825 -22.837 -15.862  0.00  0.00    +0.003 C 
ATOM      5  C   UNL     1      35.121 -23.644 -13.566  0.00  0.00    +0.003 C 
ATOM      6  C   UNL     1      35.351 -23.103 -16.037  0.00  0.00    -0.025 C 
ATOM      7  C   UNL     1      34.545 -23.485 -14.950  0.00  0.00    -0.028 C 
ATOM      8  C   UNL     1      34.768 -22.953 -17.305  0.00  0.00    +0.033 C 
ATOM      9  C   UNL     1      33.173 -23.707 -15.156  0.00  0.00    -0.002 C 
ATOM     10  C   UNL     1      33.405 -23.181 -17.497  0.00  0.00    +0.147 C 
ATOM     11  C   UNL     1      32.608 -23.557 -16.422  0.00  0.00    +0.037 C 
ATOM     12  H   UNL     1      37.699 -23.368 -13.474  0.00  0.00    -0.080 HD
ENDROOT
BRANCH   1  13
ATOM     13  C   UNL     1      38.503 -25.259 -13.551  0.00  0.00    -0.058 C 
ATOM     14  C   UNL     1      38.557 -26.397 -14.591  0.00  0.00    -0.021 C 
ATOM     15  C   UNL     1      39.910 -24.852 -14.036  0.00  0.00    -0.021 C 
ATOM     16  C   UNL     1      40.095 -26.317 -14.485  0.00  0.00    -0.004 C 
ENDBRANCH   1  13
BRANCH  10  17
ATOM     17  O   UNL     1      32.857 -23.032 -18.733  0.00  0.00    -0.436 OA
BRANCH  17  20
ATOM     18  N   UNL     1      32.412 -21.193 -20.076  0.00  0.00    -0.209 NA
ATOM     19  C   UNL     1      34.239 -19.980 -21.096  0.00  0.00    +0.073 C 
ATOM     20  C   UNL     1      33.335 -22.004 -19.530  0.00  0.00    +0.230 C 
ATOM     21  C   UNL     1      35.152 -20.847 -20.506  0.00  0.00    +0.021 C 
ATOM     22  C   UNL     1      32.892 -20.194 -20.852  0.00  0.00    +0.117 C 
ATOM     23  C   UNL     1      34.698 -21.887 -19.703  0.00  0.00    +0.059 C 
BRANCH  19  25
ATOM     24  O   UNL     1      34.632 -19.839 -24.122  0.00  0.00    -0.275 OA
ATOM     25  N   UNL     1      34.675 -18.906 -21.925  0.00  0.00    -0.257 N 
ATOM     26  C   UNL     1      35.074 -16.695 -22.570  0.00  0.00    +0.031 C 
ATOM     27  C   UNL     1      35.102 -17.631 -21.380  0.00  0.00    +0.099 C 
ATOM     28  C   UNL     1      35.412 -17.601 -23.738  0.00  0.00    +0.087 C 
ATOM     29  C   UNL     1      34.834 -18.935 -23.324  0.00  0.00    +0.229 C 
ENDBRANCH  19  25
ENDBRANCH  17  20
ENDBRANCH  10  17
TORSDOF 4
ENDMDL
MODEL 3
REMARK VINA RESULT:     -11.4      6.278     14.311
REMARK  Name = 9976892
REMARK  4 active torsions:
REMARK  status: ('A' for Active; 'I' for Inactive)
REMARK    1  A    between atoms: N_1  and  C_13
REMARK    2  A    between atoms: C_10  and  O_17
REMARK    3  A    between atoms: O_17  and  C_20
REMARK    4  A    between atoms: C_19  and  N_25
REMARK                            x       y       z     vdW  Elec       q    Type
REMARK                         _______ _______ _______ _____ _____    ______ ____
ROOT
ATOM      1  N   UNL     1      35.748 -24.143 -14.292  0.00  0.00    +0.389 N 
ATOM      2  C   UNL     1      36.874 -23.704 -15.129  0.00  0.00    -0.073 C 
ATOM      3  C   UNL     1      34.550 -24.502 -15.069  0.00  0.00    -0.073 C 
ATOM      4  C   UNL     1      36.656 -22.328 -15.769  0.00  0.00    +0.003 C 
ATOM      5  C   UNL     1      33.847 -23.293 -15.694  0.00  0.00    +0.003 C 
ATOM      6  C   UNL     1      35.811 -22.375 -17.017  0.00  0.00    -0.025 C 
ATOM      7  C   UNL     1      34.481 -22.831 -16.981  0.00  0.00    -0.028 C 
ATOM      8  C   UNL     1      36.355 -21.941 -18.236  0.00  0.00    +0.033 C 
ATOM      9  C   UNL     1      33.726 -22.842 -18.167  0.00  0.00    -0.002 C 
ATOM     10  C   UNL     1      35.596 -21.961 -19.406  0.00  0.00    +0.147 C 
ATOM     11  C   UNL     1      34.282 -22.411 -19.371  0.00  0.00    +0.037 C 
ATOM     12  H   UNL     1      35.491 -23.361 -13.689  0.00  0.00    -0.080 HD
ENDROOT
BRANCH   1  13
ATOM     13  C   UNL     1      36.167 -25.296 -13.539  0.00  0.00    -0.058 C 
ATOM     14  C   UNL     1      37.457 -25.901 -14.130  0.00  0.00    -0.021 C 
ATOM     15  C   UNL     1      37.013 -24.878 -12.319  0.00  0.00    -0.021 C 
ATOM     16  C   UNL     1      37.967 -26.036 -12.680  0.00  0.00    -0.004 C 
ENDBRANCH   1  13
BRANCH  10  17
ATOM     17  O   UNL     1      36.141 -21.538 -20.579  0.00  0.00    -0.436 OA
BRANCH  17  20
ATOM     18  N   UNL     1      36.614 -19.271 -20.729  0.00  0.00    -0.209 NA
ATOM     19  C   UNL     1      35.107 -17.807 -21.927  0.00  0.00    +0.073 C 
ATOM     20  C   UNL     1      35.782 -20.282 -21.039  0.00  0.00    +0.230 C 
ATOM     21  C   UNL     1      34.282 -18.887 -22.221  0.00  0.00    +0.021 C 
ATOM     22  C   UNL     1      36.252 -18.050 -21.184  0.00  0.00    +0.117 C 
ATOM     23  C   UNL     1      34.620 -20.158 -21.771  0.00  0.00    +0.059 C 
BRANCH  19  25
ATOM     24  O   UNL     1      35.032 -16.632 -24.746  0.00  0.00    -0.275 OA
ATOM     25  N   UNL     1      34.786 -16.492 -22.375  0.00  0.00    -0.257 N 
ATOM     26  C   UNL     1      33.828 -14.362 -22.321  0.00  0.00    +0.031 C 
ATOM     27  C   UNL     1      34.494 -15.411 -21.455  0.00  0.00    +0.099 C 
ATOM     28  C   UNL     1      34.483 -14.555 -23.674  0.00  0.00    +0.087 C 
ATOM     29  C   UNL     1      34.786 -16.036 -23.708  0.00  0.00    +0.229 C 
ENDBRANCH  19  25
ENDBRANCH  17  20
ENDBRANCH  10  17
TORSDOF 4
ENDMDL
MODEL 4
REMARK VINA RESULT:     -11.3      3.221      6.036
REMARK  Name = 9976892
REMARK  4 active torsions:
REMARK  status: ('A' for Active; 'I' for Inactive)
REMARK    1  A    between atoms: N_1  and  C_13
REMARK    2  A    between atoms: C_10  and  O_17
REMARK    3  A    between atoms: O_17  and  C_20
REMARK    4  A    between atoms: C_19  and  N_25
REMARK                            x       y       z     vdW  Elec       q    Type
REMARK                         _______ _______ _______ _____ _____    ______ ____
ROOT
ATOM      1  N   UNL     1      33.323 -11.703 -25.411  0.00  0.00    +0.389 N 
ATOM      2  C   UNL     1      33.890 -12.836 -26.156  0.00  0.00    -0.073 C 
ATOM      3  C   UNL     1      33.707 -11.689 -23.990  0.00  0.00    -0.073 C 
ATOM      4  C   UNL     1      33.260 -14.184 -25.787  0.00  0.00    +0.003 C 
ATOM      5  C   UNL     1      33.037 -12.796 -23.169  0.00  0.00    +0.003 C 
ATOM      6  C   UNL     1      33.832 -14.788 -24.529  0.00  0.00    -0.025 C 
ATOM      7  C   UNL     1      33.726 -14.131 -23.290  0.00  0.00    -0.028 C 
ATOM      8  C   UNL     1      34.469 -16.037 -24.591  0.00  0.00    +0.033 C 
ATOM      9  C   UNL     1      34.260 -14.740 -22.142  0.00  0.00    -0.002 C 
ATOM     10  C   UNL     1      34.999 -16.628 -23.444  0.00  0.00    +0.147 C 
ATOM     11  C   UNL     1      34.893 -15.979 -22.220  0.00  0.00    +0.037 C 
ATOM     12  H   UNL     1      32.307 -11.791 -25.447  0.00  0.00    -0.080 HD
ENDROOT
BRANCH   1  13
ATOM     13  C   UNL     1      33.785 -10.484 -26.022  0.00  0.00    -0.058 C 
ATOM     14  C   UNL     1      34.799  -9.761 -25.112  0.00  0.00    -0.021 C 
ATOM     15  C   UNL     1      34.960 -10.761 -26.983  0.00  0.00    -0.021 C 
ATOM     16  C   UNL     1      35.646  -9.518 -26.379  0.00  0.00    -0.004 C 
ENDBRANCH   1  13
BRANCH  10  17
ATOM     17  O   UNL     1      35.615 -17.839 -23.524  0.00  0.00    -0.436 OA
BRANCH  17  20
ATOM     18  N   UNL     1      34.098 -19.259 -22.491  0.00  0.00    -0.209 NA
ATOM     19  C   UNL     1      34.793 -20.578 -20.588  0.00  0.00    +0.073 C 
ATOM     20  C   UNL     1      35.348 -18.764 -22.528  0.00  0.00    +0.230 C 
ATOM     21  C   UNL     1      36.070 -20.036 -20.670  0.00  0.00    +0.021 C 
ATOM     22  C   UNL     1      33.851 -20.161 -21.514  0.00  0.00    +0.117 C 
ATOM     23  C   UNL     1      36.364 -19.105 -21.660  0.00  0.00    +0.059 C 
BRANCH  19  25
ATOM     24  O   UNL     1      36.473 -21.729 -18.311  0.00  0.00    -0.275 OA
ATOM     25  N   UNL     1      34.463 -21.534 -19.582  0.00  0.00    -0.257 N 
ATOM     26  C   UNL     1      33.106 -22.784 -18.148  0.00  0.00    +0.031 C 
ATOM     27  C   UNL     1      33.179 -22.208 -19.547  0.00  0.00    +0.099 C 
ATOM     28  C   UNL     1      34.553 -23.083 -17.814  0.00  0.00    +0.087 C 
ATOM     29  C   UNL     1      35.313 -22.015 -18.568  0.00  0.00    +0.229 C 
ENDBRANCH  19  25
ENDBRANCH  17  20
ENDBRANCH  10  17
TORSDOF 4
ENDMDL
MODEL 5
REMARK VINA RESULT:     -11.2      2.143      4.319
REMARK  Name = 9976892
REMARK  4 active torsions:
REMARK  status: ('A' for Active; 'I' for Inactive)
REMARK    1  A    between atoms: N_1  and  C_13
REMARK    2  A    between atoms: C_10  and  O_17
REMARK    3  A    between atoms: O_17  and  C_20
REMARK    4  A    between atoms: C_19  and  N_25
REMARK                            x       y       z     vdW  Elec       q    Type
REMARK                         _______ _______ _______ _____ _____    ______ ____
ROOT
ATOM      1  N   UNL     1      33.703  -9.762 -25.365  0.00  0.00    +0.389 N 
ATOM      2  C   UNL     1      34.292 -10.752 -26.278  0.00  0.00    -0.073 C 
ATOM      3  C   UNL     1      33.806 -10.142 -23.947  0.00  0.00    -0.073 C 
ATOM      4  C   UNL     1      33.477 -12.046 -26.380  0.00  0.00    +0.003 C 
ATOM      5  C   UNL     1      32.889 -11.307 -23.563  0.00  0.00    +0.003 C 
ATOM      6  C   UNL     1      33.737 -13.008 -25.248  0.00  0.00    -0.025 C 
ATOM      7  C   UNL     1      33.458 -12.658 -23.915  0.00  0.00    -0.028 C 
ATOM      8  C   UNL     1      34.252 -14.283 -25.530  0.00  0.00    +0.033 C 
ATOM      9  C   UNL     1      33.701 -13.593 -22.894  0.00  0.00    -0.002 C 
ATOM     10  C   UNL     1      34.493 -15.200 -24.506  0.00  0.00    +0.147 C 
ATOM     11  C   UNL     1      34.216 -14.854 -23.189  0.00  0.00    +0.037 C 
ATOM     12  H   UNL     1      32.709  -9.695 -25.586  0.00  0.00    -0.080 HD
ENDROOT
BRANCH   1  13
ATOM     13  C   UNL     1      34.388  -8.509 -25.554  0.00  0.00    -0.058 C 
ATOM     14  C   UNL     1      33.485  -7.323 -25.159  0.00  0.00    -0.021 C 
ATOM     15  C   UNL     1      35.252  -8.163 -24.324  0.00  0.00    -0.021 C 
ATOM     16  C   UNL     1      34.717  -6.721 -24.450  0.00  0.00    -0.004 C 
ENDBRANCH   1  13
BRANCH  10  17
ATOM     17  O   UNL     1      34.995 -16.430 -24.798  0.00  0.00    -0.436 OA
BRANCH  17  20
ATOM     18  N   UNL     1      35.495 -17.236 -22.681  0.00  0.00    -0.209 NA
ATOM     19  C   UNL     1      34.591 -19.360 -21.960  0.00  0.00    +0.073 C 
ATOM     20  C   UNL     1      34.852 -17.426 -23.846  0.00  0.00    +0.230 C 
ATOM     21  C   UNL     1      33.946 -19.508 -23.183  0.00  0.00    +0.021 C 
ATOM     22  C   UNL     1      35.347 -18.216 -21.760  0.00  0.00    +0.117 C 
ATOM     23  C   UNL     1      34.075 -18.523 -24.155  0.00  0.00    +0.059 C 
BRANCH  19  25
ATOM     24  O   UNL     1      32.122 -20.607 -20.664  0.00  0.00    -0.275 OA
ATOM     25  N   UNL     1      34.479 -20.354 -20.944  0.00  0.00    -0.257 N 
ATOM     26  C   UNL     1      35.112 -22.165 -19.610  0.00  0.00    +0.031 C 
ATOM     27  C   UNL     1      35.639 -20.910 -20.273  0.00  0.00    +0.099 C 
ATOM     28  C   UNL     1      33.673 -21.816 -19.287  0.00  0.00    +0.087 C 
ATOM     29  C   UNL     1      33.286 -20.867 -20.399  0.00  0.00    +0.229 C 
ENDBRANCH  19  25
ENDBRANCH  17  20
ENDBRANCH  10  17
TORSDOF 4
ENDMDL
MODEL 6
REMARK VINA RESULT:     -11.1      4.464      6.806
REMARK  Name = 9976892
REMARK  4 active torsions:
REMARK  status: ('A' for Active; 'I' for Inactive)
REMARK    1  A    between atoms: N_1  and  C_13
REMARK    2  A    between atoms: C_10  and  O_17
REMARK    3  A    between atoms: O_17  and  C_20
REMARK    4  A    between atoms: C_19  and  N_25
REMARK                            x       y       z     vdW  Elec       q    Type
REMARK                         _______ _______ _______ _____ _____    ______ ____
ROOT
ATOM      1  N   UNL     1      32.467 -12.818 -21.761  0.00  0.00    +0.389 N 
ATOM      2  C   UNL     1      33.101 -13.855 -20.936  0.00  0.00    -0.073 C 
ATOM      3  C   UNL     1      32.063 -13.298 -23.092  0.00  0.00    -0.073 C 
ATOM      4  C   UNL     1      34.502 -14.245 -21.419  0.00  0.00    +0.003 C 
ATOM      5  C   UNL     1      33.247 -13.570 -24.026  0.00  0.00    +0.003 C 
ATOM      6  C   UNL     1      34.490 -15.231 -22.560  0.00  0.00    -0.025 C 
ATOM      7  C   UNL     1      33.896 -14.911 -23.794  0.00  0.00    -0.028 C 
ATOM      8  C   UNL     1      35.096 -16.486 -22.395  0.00  0.00    +0.033 C 
ATOM      9  C   UNL     1      33.922 -15.855 -24.835  0.00  0.00    -0.002 C 
ATOM     10  C   UNL     1      35.111 -17.416 -23.435  0.00  0.00    +0.147 C 
ATOM     11  C   UNL     1      34.525 -17.099 -24.655  0.00  0.00    +0.037 C 
ATOM     12  H   UNL     1      33.155 -12.078 -21.906  0.00  0.00    -0.080 HD
ENDROOT
BRANCH   1  13
ATOM     13  C   UNL     1      31.296 -12.343 -21.070  0.00  0.00    -0.058 C 
ATOM     14  C   UNL     1      31.685 -11.427 -19.892  0.00  0.00    -0.021 C 
ATOM     15  C   UNL     1      30.722 -11.087 -21.758  0.00  0.00    -0.021 C 
ATOM     16  C   UNL     1      30.547 -10.488 -20.347  0.00  0.00    -0.004 C 
ENDBRANCH   1  13
BRANCH  10  17
ATOM     17  O   UNL     1      35.701 -18.629 -23.256  0.00  0.00    -0.436 OA
BRANCH  17  20
ATOM     18  N   UNL     1      36.162 -19.987 -21.432  0.00  0.00    -0.209 NA
ATOM     19  C   UNL     1      34.344 -20.999 -20.199  0.00  0.00    +0.073 C 
ATOM     20  C   UNL     1      35.231 -19.427 -22.226  0.00  0.00    +0.230 C 
ATOM     21  C   UNL     1      33.423 -20.396 -21.049  0.00  0.00    +0.021 C 
ATOM     22  C   UNL     1      35.690 -20.765 -20.431  0.00  0.00    +0.117 C 
ATOM     23  C   UNL     1      33.869 -19.590 -22.090  0.00  0.00    +0.059 C 
BRANCH  19  25
ATOM     24  O   UNL     1      35.948 -22.370 -17.990  0.00  0.00    -0.275 OA
ATOM     25  N   UNL     1      33.917 -21.831 -19.123  0.00  0.00    -0.257 N 
ATOM     26  C   UNL     1      32.464 -22.733 -17.531  0.00  0.00    +0.031 C 
ATOM     27  C   UNL     1      32.534 -22.237 -18.960  0.00  0.00    +0.099 C 
ATOM     28  C   UNL     1      33.848 -23.298 -17.286  0.00  0.00    +0.087 C 
ATOM     29  C   UNL     1      34.737 -22.431 -18.148  0.00  0.00    +0.229 C 
ENDBRANCH  19  25
ENDBRANCH  17  20
ENDBRANCH  10  17
TORSDOF 4
ENDMDL
MODEL 7
REMARK VINA RESULT:     -10.5      5.873     13.319
REMARK  Name = 9976892
REMARK  4 active torsions:
REMARK  status: ('A' for Active; 'I' for Inactive)
REMARK    1  A    between atoms: N_1  and  C_13
REMARK    2  A    between atoms: C_10  and  O_17
REMARK    3  A    between atoms: O_17  and  C_20
REMARK    4  A    between atoms: C_19  and  N_25
REMARK                            x       y       z     vdW  Elec       q    Type
REMARK                         _______ _______ _______ _____ _____    ______ ____
ROOT
ATOM      1  N   UNL     1      31.791 -23.431 -15.872  0.00  0.00    +0.389 N 
ATOM      2  C   UNL     1      31.794 -23.122 -17.310  0.00  0.00    -0.073 C 
ATOM      3  C   UNL     1      32.893 -22.791 -15.136  0.00  0.00    -0.073 C 
ATOM      4  C   UNL     1      32.937 -23.797 -18.075  0.00  0.00    +0.003 C 
ATOM      5  C   UNL     1      34.264 -23.398 -15.447  0.00  0.00    +0.003 C 
ATOM      6  C   UNL     1      34.249 -23.061 -17.964  0.00  0.00    -0.025 C 
ATOM      7  C   UNL     1      34.877 -22.873 -16.720  0.00  0.00    -0.028 C 
ATOM      8  C   UNL     1      34.864 -22.567 -19.125  0.00  0.00    +0.033 C 
ATOM      9  C   UNL     1      36.107 -22.195 -16.667  0.00  0.00    -0.002 C 
ATOM     10  C   UNL     1      36.083 -21.892 -19.058  0.00  0.00    +0.147 C 
ATOM     11  C   UNL     1      36.704 -21.707 -17.828  0.00  0.00    +0.037 C 
ATOM     12  H   UNL     1      31.912 -24.440 -15.776  0.00  0.00    -0.080 HD
ENDROOT
BRANCH   1  13
ATOM     13  C   UNL     1      30.543 -22.978 -15.315  0.00  0.00    -0.058 C 
ATOM     14  C   UNL     1      29.512 -22.699 -16.428  0.00  0.00    -0.021 C 
ATOM     15  C   UNL     1      29.659 -24.172 -14.901  0.00  0.00    -0.021 C 
ATOM     16  C   UNL     1      28.474 -23.419 -15.541  0.00  0.00    -0.004 C 
ENDBRANCH   1  13
BRANCH  10  17
ATOM     17  O   UNL     1      36.663 -21.419 -20.194  0.00  0.00    -0.436 OA
BRANCH  17  20
ATOM     18  N   UNL     1      37.097 -19.223 -20.805  0.00  0.00    -0.209 NA
ATOM     19  C   UNL     1      35.315 -17.850 -21.696  0.00  0.00    +0.073 C 
ATOM     20  C   UNL     1      36.197 -20.218 -20.702  0.00  0.00    +0.230 C 
ATOM     21  C   UNL     1      34.426 -18.912 -21.569  0.00  0.00    +0.021 C 
ATOM     22  C   UNL     1      36.629 -18.055 -21.303  0.00  0.00    +0.117 C 
ATOM     23  C   UNL     1      34.869 -20.127 -21.061  0.00  0.00    +0.059 C 
BRANCH  19  25
ATOM     24  O   UNL     1      35.078 -16.864 -24.577  0.00  0.00    -0.275 OA
ATOM     25  N   UNL     1      34.890 -16.592 -22.213  0.00  0.00    -0.257 N 
ATOM     26  C   UNL     1      33.786 -14.533 -22.257  0.00  0.00    +0.031 C 
ATOM     27  C   UNL     1      34.549 -15.476 -21.351  0.00  0.00    +0.099 C 
ATOM     28  C   UNL     1      34.415 -14.765 -23.616  0.00  0.00    +0.087 C 
ATOM     29  C   UNL     1      34.820 -16.221 -23.570  0.00  0.00    +0.229 C 
ENDBRANCH  19  25
ENDBRANCH  17  20
ENDBRANCH  10  17
TORSDOF 4
ENDMDL
MODEL 8
REMARK VINA RESULT:     -10.2      2.467      3.785
REMARK  Name = 9976892
REMARK  4 active torsions:
REMARK  status: ('A' for Active; 'I' for Inactive)
REMARK    1  A    between atoms: N_1  and  C_13
REMARK    2  A    between atoms: C_10  and  O_17
REMARK    3  A    between atoms: O_17  and  C_20
REMARK    4  A    between atoms: C_19  and  N_25
REMARK                            x       y       z     vdW  Elec       q    Type
REMARK                         _______ _______ _______ _____ _____    ______ ____
ROOT
ATOM      1  N   UNL     1      32.586  -5.326 -25.384  0.00  0.00    +0.389 N 
ATOM      2  C   UNL     1      31.905  -6.616 -25.574  0.00  0.00    -0.073 C 
ATOM      3  C   UNL     1      33.488  -5.309 -24.222  0.00  0.00    -0.073 C 
ATOM      4  C   UNL     1      30.837  -6.901 -24.513  0.00  0.00    +0.003 C 
ATOM      5  C   UNL     1      32.749  -5.320 -22.879  0.00  0.00    +0.003 C 
ATOM      6  C   UNL     1      31.401  -7.445 -23.225  0.00  0.00    -0.025 C 
ATOM      7  C   UNL     1      32.306  -6.696 -22.452  0.00  0.00    -0.028 C 
ATOM      8  C   UNL     1      31.006  -8.716 -22.779  0.00  0.00    +0.033 C 
ATOM      9  C   UNL     1      32.794  -7.236 -21.249  0.00  0.00    -0.002 C 
ATOM     10  C   UNL     1      31.501  -9.242 -21.586  0.00  0.00    +0.147 C 
ATOM     11  C   UNL     1      32.395  -8.501 -20.822  0.00  0.00    +0.037 C 
ATOM     12  H   UNL     1      31.866  -4.622 -25.216  0.00  0.00    -0.080 HD
ENDROOT
BRANCH   1  13
ATOM     13  C   UNL     1      33.357  -5.044 -26.567  0.00  0.00    -0.058 C 
ATOM     14  C   UNL     1      33.576  -3.527 -26.733  0.00  0.00    -0.021 C 
ATOM     15  C   UNL     1      34.868  -5.153 -26.277  0.00  0.00    -0.021 C 
ATOM     16  C   UNL     1      35.040  -3.855 -27.093  0.00  0.00    -0.004 C 
ENDBRANCH   1  13
BRANCH  10  17
ATOM     17  O   UNL     1      31.108 -10.476 -21.171  0.00  0.00    -0.436 OA
BRANCH  17  20
ATOM     18  N   UNL     1      32.368 -11.394 -22.889  0.00  0.00    -0.209 NA
ATOM     19  C   UNL     1      33.069 -13.706 -22.762  0.00  0.00    +0.073 C 
ATOM     20  C   UNL     1      31.768 -11.574 -21.699  0.00  0.00    +0.230 C 
ATOM     21  C   UNL     1      32.432 -13.838 -21.533  0.00  0.00    +0.021 C 
ATOM     22  C   UNL     1      33.008 -12.474 -23.394  0.00  0.00    +0.117 C 
ATOM     23  C   UNL     1      31.763 -12.751 -20.982  0.00  0.00    +0.059 C 
BRANCH  19  25
ATOM     24  O   UNL     1      33.104 -14.713 -25.645  0.00  0.00    -0.275 OA
ATOM     25  N   UNL     1      33.763 -14.802 -23.353  0.00  0.00    -0.257 N 
ATOM     26  C   UNL     1      35.416 -16.434 -23.603  0.00  0.00    +0.031 C 
ATOM     27  C   UNL     1      34.568 -15.721 -22.571  0.00  0.00    +0.099 C 
ATOM     28  C   UNL     1      34.525 -16.467 -24.829  0.00  0.00    +0.087 C 
ATOM     29  C   UNL     1      33.712 -15.199 -24.703  0.00  0.00    +0.229 C 
ENDBRANCH  19  25
ENDBRANCH  17  20
ENDBRANCH  10  17
TORSDOF 4
ENDMDL
MODEL 9
REMARK VINA RESULT:      -9.9      1.981     10.256
REMARK  Name = 9976892
REMARK  4 active torsions:
REMARK  status: ('A' for Active; 'I' for Inactive)
REMARK    1  A    between atoms: N_1  and  C_13
REMARK    2  A    between atoms: C_10  and  O_17
REMARK    3  A    between atoms: O_17  and  C_20
REMARK    4  A    between atoms: C_19  and  N_25
REMARK                            x       y       z     vdW  Elec       q    Type
REMARK                         _______ _______ _______ _____ _____    ______ ____
ROOT
ATOM      1  N   UNL     1      34.898 -19.708 -22.107  0.00  0.00    +0.389 N 
ATOM      2  C   UNL     1      34.288 -19.490 -23.426  0.00  0.00    -0.073 C 
ATOM      3  C   UNL     1      34.734 -18.567 -21.192  0.00  0.00    -0.073 C 
ATOM      4  C   UNL     1      35.040 -18.464 -24.282  0.00  0.00    +0.003 C 
ATOM      5  C   UNL     1      35.580 -17.350 -21.581  0.00  0.00    +0.003 C 
ATOM      6  C   UNL     1      34.699 -17.035 -23.942  0.00  0.00    -0.025 C 
ATOM      7  C   UNL     1      34.955 -16.508 -22.663  0.00  0.00    -0.028 C 
ATOM      8  C   UNL     1      34.129 -16.209 -24.924  0.00  0.00    +0.033 C 
ATOM      9  C   UNL     1      34.635 -15.166 -22.397  0.00  0.00    -0.002 C 
ATOM     10  C   UNL     1      33.812 -14.880 -24.644  0.00  0.00    +0.147 C 
ATOM     11  C   UNL     1      34.066 -14.359 -23.381  0.00  0.00    +0.037 C 
ATOM     12  H   UNL     1      35.901 -19.836 -22.251  0.00  0.00    -0.080 HD
ENDROOT
BRANCH   1  13
ATOM     13  C   UNL     1      34.283 -20.866 -21.511  0.00  0.00    -0.058 C 
ATOM     14  C   UNL     1      34.930 -21.194 -20.150  0.00  0.00    -0.021 C 
ATOM     15  C   UNL     1      33.014 -20.472 -20.726  0.00  0.00    -0.021 C 
ATOM     16  C   UNL     1      33.502 -21.421 -19.612  0.00  0.00    -0.004 C 
ENDBRANCH   1  13
BRANCH  10  17
ATOM     17  O   UNL     1      33.259 -14.094 -25.607  0.00  0.00    -0.436 OA
BRANCH  17  20
ATOM     18  N   UNL     1      33.311 -12.192 -24.281  0.00  0.00    -0.209 NA
ATOM     19  C   UNL     1      33.805 -10.045 -25.279  0.00  0.00    +0.073 C 
ATOM     20  C   UNL     1      33.446 -12.725 -25.508  0.00  0.00    +0.230 C 
ATOM     21  C   UNL     1      33.933 -10.647 -26.526  0.00  0.00    +0.021 C 
ATOM     22  C   UNL     1      33.495 -10.854 -24.197  0.00  0.00    +0.117 C 
ATOM     23  C   UNL     1      33.750 -12.019 -26.652  0.00  0.00    +0.059 C 
BRANCH  19  25
ATOM     24  O   UNL     1      31.834  -7.736 -25.620  0.00  0.00    -0.275 OA
ATOM     25  N   UNL     1      33.985  -8.639 -25.118  0.00  0.00    -0.257 N 
ATOM     26  C   UNL     1      34.943  -6.657 -24.335  0.00  0.00    +0.031 C 
ATOM     27  C   UNL     1      35.277  -8.055 -24.811  0.00  0.00    +0.099 C 
ATOM     28  C   UNL     1      33.697  -6.305 -25.122  0.00  0.00    +0.087 C 
ATOM     29  C   UNL     1      33.011  -7.640 -25.306  0.00  0.00    +0.229 C 
ENDBRANCH  19  25
ENDBRANCH  17  20
ENDBRANCH  10  17
TORSDOF 4
ENDMDL
