MODEL 1
REMARK VINA RESULT:     -11.8      0.000      0.000
REMARK  Name = 3815
REMARK  0 active torsions:
REMARK  status: ('A' for Active; 'I' for Inactive)
REMARK                            x       y       z     vdW  Elec       q    Type
REMARK                         _______ _______ _______ _____ _____    ______ ____
ROOT
ATOM      1  O   UNL     1      31.007 -22.889 -17.336  0.00  0.00    -0.270 OA
ATOM      2  N   UNL     1      37.388 -23.555 -15.978  0.00  0.00    -0.352 N 
ATOM      3  N   UNL     1      36.380 -22.199 -18.195  0.00  0.00    -0.352 N 
ATOM      4  N   UNL     1      31.420 -24.106 -15.372  0.00  0.00    -0.297 N 
ATOM      5  C   UNL     1      33.700 -24.007 -15.425  0.00  0.00    +0.003 A 
ATOM      6  C   UNL     1      35.089 -24.039 -15.308  0.00  0.00    +0.016 A 
ATOM      7  C   UNL     1      34.121 -22.744 -17.426  0.00  0.00    +0.022 A 
ATOM      8  C   UNL     1      36.055 -23.460 -16.191  0.00  0.00    +0.072 A 
ATOM      9  C   UNL     1      33.211 -23.322 -16.541  0.00  0.00    +0.053 A 
ATOM     10  C   UNL     1      35.549 -22.781 -17.301  0.00  0.00    +0.073 A 
ATOM     11  C   UNL     1      32.573 -24.549 -14.611  0.00  0.00    +0.117 C 
ATOM     12  C   UNL     1      36.077 -24.594 -14.376  0.00  0.00    +0.017 A 
ATOM     13  C   UNL     1      34.123 -21.965 -18.675  0.00  0.00    +0.017 A 
ATOM     14  C   UNL     1      37.413 -24.291 -14.801  0.00  0.00    +0.057 A 
ATOM     15  C   UNL     1      35.465 -21.666 -19.091  0.00  0.00    +0.057 A 
ATOM     16  C   UNL     1      31.755 -23.382 -16.514  0.00  0.00    +0.246 C 
ATOM     17  C   UNL     1      35.920 -25.343 -13.186  0.00  0.00    +0.001 C 
ATOM     18  C   UNL     1      33.073 -21.483 -19.493  0.00  0.00    +0.001 C 
ATOM     19  C   UNL     1      38.530 -24.717 -14.068  0.00  0.00    +0.017 C 
ATOM     20  C   UNL     1      35.731 -20.932 -20.257  0.00  0.00    +0.017 C 
ATOM     21  C   UNL     1      37.042 -25.763 -12.463  0.00  0.00    +0.000 C 
ATOM     22  C   UNL     1      33.349 -20.753 -20.654  0.00  0.00    +0.000 C 
ATOM     23  C   UNL     1      38.324 -25.454 -12.900  0.00  0.00    +0.001 C 
ATOM     24  C   UNL     1      34.659 -20.482 -21.028  0.00  0.00    +0.001 C 
ATOM     25  H   UNL     1      38.137 -23.201 -16.511  0.00  0.00    +0.166 HD
ATOM     26  H   UNL     1      37.363 -22.162 -18.207  0.00  0.00    +0.166 HD
ATOM     27  H   UNL     1      30.491 -24.298 -15.107  0.00  0.00    +0.150 HD
ENDROOT
TORSDOF 0
ENDMDL
MODEL 2
REMARK VINA RESULT:     -11.7      2.212      4.753
REMARK  Name = 3815
REMARK  0 active torsions:
REMARK  status: ('A' for Active; 'I' for Inactive)
REMARK                            x       y       z     vdW  Elec       q    Type
REMARK                         _______ _______ _______ _____ _____    ______ ____
ROOT
ATOM      1  O   UNL     1      37.356 -22.688 -16.829  0.00  0.00    -0.270 OA
ATOM      2  N   UNL     1      30.844 -23.172 -17.431  0.00  0.00    -0.352 N 
ATOM      3  N   UNL     1      32.504 -21.857 -19.245  0.00  0.00    -0.352 N 
ATOM      4  N   UNL     1      36.345 -23.879 -15.078  0.00  0.00    -0.297 N 
ATOM      5  C   UNL     1      34.187 -23.720 -15.807  0.00  0.00    +0.003 A 
ATOM      6  C   UNL     1      32.826 -23.715 -16.109  0.00  0.00    +0.016 A 
ATOM      7  C   UNL     1      34.415 -22.458 -17.841  0.00  0.00    +0.022 A 
ATOM      8  C   UNL     1      32.182 -23.115 -17.238  0.00  0.00    +0.072 A 
ATOM      9  C   UNL     1      35.005 -23.056 -16.727  0.00  0.00    +0.053 A 
ATOM     10  C   UNL     1      33.014 -22.456 -18.146  0.00  0.00    +0.073 A 
ATOM     11  C   UNL     1      35.006 -24.285 -14.696  0.00  0.00    +0.117 C 
ATOM     12  C   UNL     1      31.591 -24.236 -15.514  0.00  0.00    +0.017 A 
ATOM     13  C   UNL     1      34.806 -21.685 -19.030  0.00  0.00    +0.017 A 
ATOM     14  C   UNL     1      30.451 -23.899 -16.315  0.00  0.00    +0.057 A 
ATOM     15  C   UNL     1      33.657 -21.352 -19.826  0.00  0.00    +0.057 A 
ATOM     16  C   UNL     1      36.385 -23.154 -16.267  0.00  0.00    +0.246 C 
ATOM     17  C   UNL     1      31.366 -24.981 -14.332  0.00  0.00    +0.001 C 
ATOM     18  C   UNL     1      36.065 -21.237 -19.498  0.00  0.00    +0.001 C 
ATOM     19  C   UNL     1      29.155 -24.290 -15.949  0.00  0.00    +0.017 C 
ATOM     20  C   UNL     1      33.770 -20.616 -21.015  0.00  0.00    +0.017 C 
ATOM     21  C   UNL     1      30.069 -25.365 -13.976  0.00  0.00    +0.000 C 
ATOM     22  C   UNL     1      36.166 -20.502 -20.685  0.00  0.00    +0.000 C 
ATOM     23  C   UNL     1      28.983 -25.024 -14.773  0.00  0.00    +0.001 C 
ATOM     24  C   UNL     1      35.035 -20.198 -21.430  0.00  0.00    +0.001 C 
ATOM     25  H   UNL     1      30.298 -22.801 -18.162  0.00  0.00    +0.166 HD
ATOM     26  H   UNL     1      31.570 -21.795 -19.549  0.00  0.00    +0.166 HD
ATOM     27  H   UNL     1      37.148 -24.094 -14.549  0.00  0.00    +0.150 HD
ENDROOT
TORSDOF 0
ENDMDL
MODEL 3
REMARK VINA RESULT:     -11.5      2.094      6.437
REMARK  Name = 3815
REMARK  0 active torsions:
REMARK  status: ('A' for Active; 'I' for Inactive)
REMARK                            x       y       z     vdW  Elec       q    Type
REMARK                         _______ _______ _______ _____ _____    ______ ____
ROOT
ATOM      1  O   UNL     1      34.882 -24.777 -13.915  0.00  0.00    -0.270 OA
ATOM      2  N   UNL     1      32.477 -21.807 -19.244  0.00  0.00    -0.352 N 
ATOM      3  N   UNL     1      30.930 -23.144 -17.349  0.00  0.00    -0.352 N 
ATOM      4  N   UNL     1      36.533 -23.774 -15.247  0.00  0.00    -0.297 N 
ATOM      5  C   UNL     1      35.156 -22.945 -16.868  0.00  0.00    +0.003 A 
ATOM      6  C   UNL     1      34.460 -22.375 -17.934  0.00  0.00    +0.016 A 
ATOM      7  C   UNL     1      32.984 -23.654 -16.120  0.00  0.00    +0.022 A 
ATOM      8  C   UNL     1      33.048 -22.397 -18.168  0.00  0.00    +0.072 A 
ATOM      9  C   UNL     1      34.365 -23.610 -15.927  0.00  0.00    +0.053 A 
ATOM     10  C   UNL     1      32.273 -23.067 -17.218  0.00  0.00    +0.073 A 
ATOM     11  C   UNL     1      36.595 -23.013 -16.482  0.00  0.00    +0.117 C 
ATOM     12  C   UNL     1      34.782 -21.603 -19.138  0.00  0.00    +0.017 A 
ATOM     13  C   UNL     1      31.782 -24.195 -15.466  0.00  0.00    +0.017 A 
ATOM     14  C   UNL     1      33.597 -21.288 -19.881  0.00  0.00    +0.057 A 
ATOM     15  C   UNL     1      30.600 -23.874 -16.217  0.00  0.00    +0.057 A 
ATOM     16  C   UNL     1      35.239 -24.143 -14.889  0.00  0.00    +0.246 C 
ATOM     17  C   UNL     1      36.020 -21.146 -19.651  0.00  0.00    +0.001 C 
ATOM     18  C   UNL     1      31.605 -24.942 -14.276  0.00  0.00    +0.001 C 
ATOM     19  C   UNL     1      33.652 -20.554 -21.074  0.00  0.00    +0.017 C 
ATOM     20  C   UNL     1      29.325 -24.281 -15.798  0.00  0.00    +0.017 C 
ATOM     21  C   UNL     1      36.063 -20.414 -20.842  0.00  0.00    +0.000 C 
ATOM     22  C   UNL     1      30.329 -25.343 -13.867  0.00  0.00    +0.000 C 
ATOM     23  C   UNL     1      34.897 -20.125 -21.540  0.00  0.00    +0.001 C 
ATOM     24  C   UNL     1      29.207 -25.016 -14.618  0.00  0.00    +0.001 C 
ATOM     25  H   UNL     1      31.529 -21.758 -19.505  0.00  0.00    +0.166 HD
ATOM     26  H   UNL     1      30.346 -22.781 -18.053  0.00  0.00    +0.166 HD
ATOM     27  H   UNL     1      37.328 -24.006 -14.715  0.00  0.00    +0.150 HD
ENDROOT
TORSDOF 0
ENDMDL
MODEL 4
REMARK VINA RESULT:     -10.7      1.731      4.480
REMARK  Name = 3815
REMARK  0 active torsions:
REMARK  status: ('A' for Active; 'I' for Inactive)
REMARK                            x       y       z     vdW  Elec       q    Type
REMARK                         _______ _______ _______ _____ _____    ______ ____
ROOT
ATOM      1  O   UNL     1      32.329 -22.100 -19.002  0.00  0.00    -0.270 OA
ATOM      2  N   UNL     1      34.414 -25.072 -13.542  0.00  0.00    -0.352 N 
ATOM      3  N   UNL     1      31.734 -24.743 -14.234  0.00  0.00    -0.352 N 
ATOM      4  N   UNL     1      34.667 -22.158 -18.808  0.00  0.00    -0.297 N 
ATOM      5  C   UNL     1      34.780 -23.259 -16.811  0.00  0.00    +0.003 A 
ATOM      6  C   UNL     1      35.024 -23.920 -15.608  0.00  0.00    +0.016 A 
ATOM      7  C   UNL     1      32.462 -23.603 -16.273  0.00  0.00    +0.022 A 
ATOM      8  C   UNL     1      34.062 -24.446 -14.688  0.00  0.00    +0.072 A 
ATOM      9  C   UNL     1      33.431 -23.103 -17.144  0.00  0.00    +0.053 A 
ATOM     10  C   UNL     1      32.719 -24.281 -15.036  0.00  0.00    +0.073 A 
ATOM     11  C   UNL     1      35.649 -22.659 -17.865  0.00  0.00    +0.117 C 
ATOM     12  C   UNL     1      36.194 -24.328 -14.824  0.00  0.00    +0.017 A 
ATOM     13  C   UNL     1      30.998 -23.691 -16.165  0.00  0.00    +0.017 A 
ATOM     14  C   UNL     1      35.799 -25.001 -13.620  0.00  0.00    +0.057 A 
ATOM     15  C   UNL     1      30.612 -24.365 -14.957  0.00  0.00    +0.057 A 
ATOM     16  C   UNL     1      33.352 -22.400 -18.419  0.00  0.00    +0.246 C 
ATOM     17  C   UNL     1      37.580 -24.168 -15.062  0.00  0.00    +0.001 C 
ATOM     18  C   UNL     1      29.956 -23.243 -17.013  0.00  0.00    +0.001 C 
ATOM     19  C   UNL     1      36.745 -25.486 -12.706  0.00  0.00    +0.017 C 
ATOM     20  C   UNL     1      29.265 -24.574 -14.625  0.00  0.00    +0.017 C 
ATOM     21  C   UNL     1      38.515 -24.657 -14.143  0.00  0.00    +0.000 C 
ATOM     22  C   UNL     1      28.616 -23.456 -16.672  0.00  0.00    +0.000 C 
ATOM     23  C   UNL     1      38.101 -25.304 -12.985  0.00  0.00    +0.001 C 
ATOM     24  C   UNL     1      28.278 -24.112 -15.495  0.00  0.00    +0.001 C 
ATOM     25  H   UNL     1      33.846 -25.470 -12.842  0.00  0.00    +0.166 HD
ATOM     26  H   UNL     1      31.795 -25.218 -13.374  0.00  0.00    +0.166 HD
ATOM     27  H   UNL     1      34.906 -21.693 -19.643  0.00  0.00    +0.150 HD
ENDROOT
TORSDOF 0
ENDMDL
MODEL 5
REMARK VINA RESULT:     -10.3      2.074      6.382
REMARK  Name = 3815
REMARK  0 active torsions:
REMARK  status: ('A' for Active; 'I' for Inactive)
REMARK                            x       y       z     vdW  Elec       q    Type
REMARK                         _______ _______ _______ _____ _____    ______ ____
ROOT
ATOM      1  O   UNL     1      36.550 -22.417 -18.046  0.00  0.00    -0.270 OA
ATOM      2  N   UNL     1      31.786 -24.907 -14.289  0.00  0.00    -0.352 N 
ATOM      3  N   UNL     1      34.509 -25.107 -13.724  0.00  0.00    -0.352 N 
ATOM      4  N   UNL     1      34.396 -22.024 -18.891  0.00  0.00    -0.297 N 
ATOM      5  C   UNL     1      33.224 -23.072 -17.236  0.00  0.00    +0.003 A 
ATOM      6  C   UNL     1      32.362 -23.666 -16.314  0.00  0.00    +0.016 A 
ATOM      7  C   UNL     1      34.966 -23.855 -15.777  0.00  0.00    +0.022 A 
ATOM      8  C   UNL     1      32.712 -24.366 -15.115  0.00  0.00    +0.072 A 
ATOM      9  C   UNL     1      34.585 -23.181 -16.937  0.00  0.00    +0.053 A 
ATOM     10  C   UNL     1      34.076 -24.466 -14.832  0.00  0.00    +0.073 A 
ATOM     11  C   UNL     1      33.028 -22.321 -18.510  0.00  0.00    +0.117 C 
ATOM     12  C   UNL     1      30.915 -23.839 -16.151  0.00  0.00    +0.017 A 
ATOM     13  C   UNL     1      36.193 -24.227 -15.054  0.00  0.00    +0.017 A 
ATOM     14  C   UNL     1      30.615 -24.570 -14.954  0.00  0.00    +0.057 A 
ATOM     15  C   UNL     1      35.881 -24.958 -13.857  0.00  0.00    +0.057 A 
ATOM     16  C   UNL     1      35.340 -22.513 -17.990  0.00  0.00    +0.246 C 
ATOM     17  C   UNL     1      29.828 -23.415 -16.952  0.00  0.00    +0.001 C 
ATOM     18  C   UNL     1      37.562 -23.994 -15.327  0.00  0.00    +0.001 C 
ATOM     19  C   UNL     1      29.294 -24.859 -14.583  0.00  0.00    +0.017 C 
ATOM     20  C   UNL     1      36.885 -25.425 -12.994  0.00  0.00    +0.017 C 
ATOM     21  C   UNL     1      28.515 -23.710 -16.572  0.00  0.00    +0.000 C 
ATOM     22  C   UNL     1      38.555 -24.464 -14.461  0.00  0.00    +0.000 C 
ATOM     23  C   UNL     1      28.255 -24.420 -15.407  0.00  0.00    +0.001 C 
ATOM     24  C   UNL     1      38.219 -25.168 -13.312  0.00  0.00    +0.001 C 
ATOM     25  H   UNL     1      31.909 -25.404 -13.448  0.00  0.00    +0.166 HD
ATOM     26  H   UNL     1      33.993 -25.555 -13.017  0.00  0.00    +0.166 HD
ATOM     27  H   UNL     1      34.635 -21.524 -19.705  0.00  0.00    +0.150 HD
ENDROOT
TORSDOF 0
ENDMDL
MODEL 6
REMARK VINA RESULT:      -9.5     13.207     17.606
REMARK  Name = 3815
REMARK  0 active torsions:
REMARK  status: ('A' for Active; 'I' for Inactive)
REMARK                            x       y       z     vdW  Elec       q    Type
REMARK                         _______ _______ _______ _____ _____    ______ ____
ROOT
ATOM      1  O   UNL     1      34.564 -12.194 -25.236  0.00  0.00    -0.270 OA
ATOM      2  N   UNL     1      31.984  -6.537 -23.153  0.00  0.00    -0.352 N 
ATOM      3  N   UNL     1      31.529  -9.014 -21.958  0.00  0.00    -0.352 N 
ATOM      4  N   UNL     1      35.206 -10.345 -26.531  0.00  0.00    -0.297 N 
ATOM      5  C   UNL     1      34.052  -8.749 -25.376  0.00  0.00    +0.003 A 
ATOM      6  C   UNL     1      33.414  -7.659 -24.786  0.00  0.00    +0.016 A 
ATOM      7  C   UNL     1      32.981 -10.029 -23.646  0.00  0.00    +0.022 A 
ATOM      8  C   UNL     1      32.554  -7.663 -23.642  0.00  0.00    +0.072 A 
ATOM      9  C   UNL     1      33.814  -9.983 -24.764  0.00  0.00    +0.053 A 
ATOM     10  C   UNL     1      32.326  -8.904 -23.043  0.00  0.00    +0.073 A 
ATOM     11  C   UNL     1      34.961  -8.915 -26.547  0.00  0.00    +0.117 C 
ATOM     12  C   UNL     1      33.325  -6.212 -25.014  0.00  0.00    +0.017 A 
ATOM     13  C   UNL     1      32.441 -11.014 -22.696  0.00  0.00    +0.017 A 
ATOM     14  C   UNL     1      32.479  -5.588 -24.038  0.00  0.00    +0.057 A 
ATOM     15  C   UNL     1      31.596 -10.379 -21.723  0.00  0.00    +0.057 A 
ATOM     16  C   UNL     1      34.548 -11.007 -25.497  0.00  0.00    +0.246 C 
ATOM     17  C   UNL     1      33.916  -5.384 -25.998  0.00  0.00    +0.001 C 
ATOM     18  C   UNL     1      32.609 -12.416 -22.585  0.00  0.00    +0.001 C 
ATOM     19  C   UNL     1      32.241  -4.207 -24.050  0.00  0.00    +0.017 C 
ATOM     20  C   UNL     1      30.961 -11.109 -20.707  0.00  0.00    +0.017 C 
ATOM     21  C   UNL     1      33.671  -4.007 -26.000  0.00  0.00    +0.000 C 
ATOM     22  C   UNL     1      31.970 -13.134 -21.569  0.00  0.00    +0.000 C 
ATOM     23  C   UNL     1      32.847  -3.431 -25.041  0.00  0.00    +0.001 C 
ATOM     24  C   UNL     1      31.159 -12.488 -20.644  0.00  0.00    +0.001 C 
ATOM     25  H   UNL     1      31.383  -6.420 -22.382  0.00  0.00    +0.166 HD
ATOM     26  H   UNL     1      31.037  -8.317 -21.467  0.00  0.00    +0.166 HD
ATOM     27  H   UNL     1      35.781 -10.803 -27.186  0.00  0.00    +0.150 HD
ENDROOT
TORSDOF 0
ENDMDL
MODEL 7
REMARK VINA RESULT:      -9.1     13.306     16.951
REMARK  Name = 3815
REMARK  0 active torsions:
REMARK  status: ('A' for Active; 'I' for Inactive)
REMARK                            x       y       z     vdW  Elec       q    Type
REMARK                         _______ _______ _______ _____ _____    ______ ____
ROOT
ATOM      1  O   UNL     1      35.509  -8.154 -27.162  0.00  0.00    -0.270 OA
ATOM      2  N   UNL     1      31.568  -9.180 -22.023  0.00  0.00    -0.352 N 
ATOM      3  N   UNL     1      32.015  -6.691 -23.197  0.00  0.00    -0.352 N 
ATOM      4  N   UNL     1      35.422 -10.401 -26.490  0.00  0.00    -0.297 N 
ATOM      5  C   UNL     1      33.965 -10.142 -24.751  0.00  0.00    +0.003 A 
ATOM      6  C   UNL     1      33.090 -10.158 -23.665  0.00  0.00    +0.016 A 
ATOM      7  C   UNL     1      33.520  -7.780 -24.791  0.00  0.00    +0.022 A 
ATOM      8  C   UNL     1      32.398  -9.048 -23.084  0.00  0.00    +0.072 A 
ATOM      9  C   UNL     1      34.177  -8.887 -25.328  0.00  0.00    +0.053 A 
ATOM     10  C   UNL     1      32.622  -7.801 -23.673  0.00  0.00    +0.073 A 
ATOM     11  C   UNL     1      34.754 -11.185 -25.467  0.00  0.00    +0.117 C 
ATOM     12  C   UNL     1      32.544 -11.154 -22.738  0.00  0.00    +0.017 A 
ATOM     13  C   UNL     1      33.410  -6.330 -25.014  0.00  0.00    +0.017 A 
ATOM     14  C   UNL     1      31.657 -10.546 -21.790  0.00  0.00    +0.057 A 
ATOM     15  C   UNL     1      32.519  -5.729 -24.060  0.00  0.00    +0.057 A 
ATOM     16  C   UNL     1      35.107  -9.045 -26.440  0.00  0.00    +0.246 C 
ATOM     17  C   UNL     1      32.750 -12.552 -22.643  0.00  0.00    +0.001 C 
ATOM     18  C   UNL     1      34.006  -5.469 -25.968  0.00  0.00    +0.001 C 
ATOM     19  C   UNL     1      31.010 -11.300 -20.801  0.00  0.00    +0.017 C 
ATOM     20  C   UNL     1      32.248  -4.353 -24.066  0.00  0.00    +0.017 C 
ATOM     21  C   UNL     1      32.099 -13.294 -21.652  0.00  0.00    +0.000 C 
ATOM     22  C   UNL     1      33.730  -4.098 -25.964  0.00  0.00    +0.000 C 
ATOM     23  C   UNL     1      31.245 -12.676 -20.747  0.00  0.00    +0.001 C 
ATOM     24  C   UNL     1      32.863  -3.550 -25.027  0.00  0.00    +0.001 C 
ATOM     25  H   UNL     1      31.045  -8.496 -21.545  0.00  0.00    +0.166 HD
ATOM     26  H   UNL     1      31.387  -6.592 -22.446  0.00  0.00    +0.166 HD
ATOM     27  H   UNL     1      36.036 -10.789 -27.154  0.00  0.00    +0.150 HD
ENDROOT
TORSDOF 0
ENDMDL
MODEL 8
REMARK VINA RESULT:      -9.0     12.355     16.479
REMARK  Name = 3815
REMARK  0 active torsions:
REMARK  status: ('A' for Active; 'I' for Inactive)
REMARK                            x       y       z     vdW  Elec       q    Type
REMARK                         _______ _______ _______ _____ _____    ______ ____
ROOT
ATOM      1  O   UNL     1      31.584 -11.736 -20.465  0.00  0.00    -0.270 OA
ATOM      2  N   UNL     1      33.649  -8.078 -25.501  0.00  0.00    -0.352 N 
ATOM      3  N   UNL     1      33.793 -10.861 -25.407  0.00  0.00    -0.352 N 
ATOM      4  N   UNL     1      31.277  -9.433 -20.131  0.00  0.00    -0.297 N 
ATOM      5  C   UNL     1      32.141  -8.719 -22.120  0.00  0.00    +0.003 A 
ATOM      6  C   UNL     1      32.632  -8.119 -23.279  0.00  0.00    +0.016 A 
ATOM      7  C   UNL     1      32.769 -10.780 -23.186  0.00  0.00    +0.022 A 
ATOM      8  C   UNL     1      33.201  -8.764 -24.424  0.00  0.00    +0.072 A 
ATOM      9  C   UNL     1      32.220 -10.114 -22.090  0.00  0.00    +0.053 A 
ATOM     10  C   UNL     1      33.273 -10.158 -24.376  0.00  0.00    +0.073 A 
ATOM     11  C   UNL     1      31.529  -8.205 -20.860  0.00  0.00    +0.117 C 
ATOM     12  C   UNL     1      32.783  -6.759 -23.805  0.00  0.00    +0.017 A 
ATOM     13  C   UNL     1      33.064 -12.153 -23.626  0.00  0.00    +0.017 A 
ATOM     14  C   UNL     1      33.382  -6.773 -25.108  0.00  0.00    +0.057 A 
ATOM     15  C   UNL     1      33.663 -12.157 -24.931  0.00  0.00    +0.057 A 
ATOM     16  C   UNL     1      31.670 -10.577 -20.821  0.00  0.00    +0.246 C 
ATOM     17  C   UNL     1      32.445  -5.501 -23.251  0.00  0.00    +0.001 C 
ATOM     18  C   UNL     1      32.864 -13.410 -23.006  0.00  0.00    +0.001 C 
ATOM     19  C   UNL     1      33.627  -5.588 -25.816  0.00  0.00    +0.017 C 
ATOM     20  C   UNL     1      34.037 -13.349 -25.569  0.00  0.00    +0.017 C 
ATOM     21  C   UNL     1      32.694  -4.325 -23.966  0.00  0.00    +0.000 C 
ATOM     22  C   UNL     1      33.242 -14.593 -23.650  0.00  0.00    +0.000 C 
ATOM     23  C   UNL     1      33.276  -4.371 -25.227  0.00  0.00    +0.001 C 
ATOM     24  C   UNL     1      33.819 -14.560 -24.913  0.00  0.00    +0.001 C 
ATOM     25  H   UNL     1      34.054  -8.411 -26.334  0.00  0.00    +0.166 HD
ATOM     26  H   UNL     1      34.163 -10.541 -26.261  0.00  0.00    +0.166 HD
ATOM     27  H   UNL     1      30.868  -9.457 -19.235  0.00  0.00    +0.150 HD
ENDROOT
TORSDOF 0
ENDMDL
