MODEL 1
REMARK VINA RESULT:     -12.0      0.000      0.000
REMARK  Name = 56842109
REMARK  7 active torsions:
REMARK  status: ('A' for Active; 'I' for Inactive)
REMARK    1  A    between atoms: C_1  and  C_24
REMARK    2  A    between atoms: C_3  and  C_9
REMARK    3  A    between atoms: C_5  and  O_22
REMARK    4  A    between atoms: N_8  and  C_11
REMARK    5  A    between atoms: C_11  and  C_12
REMARK    6  A    between atoms: C_15  and  C_21
REMARK    7  A    between atoms: C_24  and  C_29
REMARK                            x       y       z     vdW  Elec       q    Type
REMARK                         _______ _______ _______ _____ _____    ______ ____
ROOT
ATOM      1  C   UNL     1      35.258 -23.722 -14.126  0.00  0.00    -0.018 C 
ATOM      2  C   UNL     1      34.651 -23.393 -15.338  0.00  0.00    +0.003 C 
ATOM      3  C   UNL     1      33.291 -23.640 -15.526  0.00  0.00    +0.087 C 
ATOM      4  C   UNL     1      34.506 -24.298 -13.103  0.00  0.00    -0.001 C 
ATOM      5  C   UNL     1      32.538 -24.216 -14.503  0.00  0.00    +0.143 C 
ATOM      6  C   UNL     1      33.146 -24.545 -13.291  0.00  0.00    +0.037 C 
ENDROOT
BRANCH   3   9
ATOM      7  O   UNL     1      31.459 -23.045 -16.863  0.00  0.00    -0.270 OA
ATOM      8  N   UNL     1      33.520 -23.216 -17.912  0.00  0.00    -0.297 N 
ATOM      9  C   UNL     1      32.676 -23.287 -16.799  0.00  0.00    +0.249 C 
ATOM     10  H   UNL     1      34.475 -23.422 -17.788  0.00  0.00    +0.150 HD
BRANCH   8  11
ATOM     11  C   UNL     1      33.065 -22.857 -19.236  0.00  0.00    +0.117 C 
BRANCH  11  12
ATOM     12  C   UNL     1      33.913 -21.782 -19.850  0.00  0.00    -0.003 C 
ATOM     13  C   UNL     1      33.316 -20.758 -20.587  0.00  0.00    -0.003 C 
ATOM     14  C   UNL     1      35.298 -21.805 -19.684  0.00  0.00    -0.003 C 
ATOM     15  C   UNL     1      35.488 -19.782 -20.991  0.00  0.00    +0.071 C 
ATOM     16  C   UNL     1      34.103 -19.758 -21.158  0.00  0.00    +0.004 C 
ATOM     17  C   UNL     1      36.085 -20.806 -20.255  0.00  0.00    +0.004 C 
BRANCH  15  21
ATOM     18  F   UNL     1      35.813 -17.463 -21.404  0.00  0.00    -0.166 F 
ATOM     19  F   UNL     1      37.600 -18.664 -21.098  0.00  0.00    -0.166 F 
ATOM     20  F   UNL     1      36.485 -18.838 -22.950  0.00  0.00    -0.166 F 
ATOM     21  C   UNL     1      36.330 -18.712 -21.599  0.00  0.00    +0.419 C 
ENDBRANCH  15  21
ENDBRANCH  11  12
ENDBRANCH   8  11
ENDBRANCH   3   9
BRANCH   5  22
ATOM     22  O   UNL     1      31.208 -24.463 -14.667  0.00  0.00    -0.471 OA
ATOM     23  C   UNL     1      30.438 -24.672 -13.484  0.00  0.00    +0.252 C 
ENDBRANCH   5  22
BRANCH   1  24
ATOM     24  C   UNL     1      36.729 -23.453 -13.922  0.00  0.00    +0.080 C 
BRANCH  24  29
ATOM     25  O   UNL     1      37.184 -25.266 -15.451  0.00  0.00    -0.428 OA
ATOM     26  O   UNL     1      37.496 -25.705 -12.001  0.00  0.00    -0.271 OA
ATOM     27  O   UNL     1      36.370 -27.290 -16.135  0.00  0.00    -0.226 OA
ATOM     28  N   UNL     1      36.850 -26.841 -13.920  0.00  0.00    -0.218 N 
ATOM     29  C   UNL     1      37.574 -24.678 -14.199  0.00  0.00    +0.250 C 
ATOM     30  C   UNL     1      37.319 -25.778 -13.207  0.00  0.00    +0.271 C 
ATOM     31  C   UNL     1      36.761 -26.550 -15.244  0.00  0.00    +0.408 C 
ATOM     32  H   UNL     1      36.607 -27.710 -13.526  0.00  0.00    +0.161 HD
ENDBRANCH  24  29
ENDBRANCH   1  24
TORSDOF 7
ENDMDL
MODEL 2
REMARK VINA RESULT:     -11.9      2.029      2.552
REMARK  Name = 56842109
REMARK  7 active torsions:
REMARK  status: ('A' for Active; 'I' for Inactive)
REMARK    1  A    between atoms: C_1  and  C_24
REMARK    2  A    between atoms: C_3  and  C_9
REMARK    3  A    between atoms: C_5  and  O_22
REMARK    4  A    between atoms: N_8  and  C_11
REMARK    5  A    between atoms: C_11  and  C_12
REMARK    6  A    between atoms: C_15  and  C_21
REMARK    7  A    between atoms: C_24  and  C_29
REMARK                            x       y       z     vdW  Elec       q    Type
REMARK                         _______ _______ _______ _____ _____    ______ ____
ROOT
ATOM      1  C   UNL     1      33.563 -24.166 -14.262  0.00  0.00    -0.018 C 
ATOM      2  C   UNL     1      33.721 -24.065 -15.644  0.00  0.00    +0.003 C 
ATOM      3  C   UNL     1      32.677 -23.582 -16.432  0.00  0.00    +0.087 C 
ATOM      4  C   UNL     1      32.360 -23.784 -13.669  0.00  0.00    -0.001 C 
ATOM      5  C   UNL     1      31.474 -23.200 -15.839  0.00  0.00    +0.143 C 
ATOM      6  C   UNL     1      31.315 -23.301 -14.457  0.00  0.00    +0.037 C 
ENDROOT
BRANCH   3   9
ATOM      7  O   UNL     1      33.412 -24.404 -18.501  0.00  0.00    -0.270 OA
ATOM      8  N   UNL     1      32.383 -22.326 -18.498  0.00  0.00    -0.297 N 
ATOM      9  C   UNL     1      32.864 -23.482 -17.874  0.00  0.00    +0.249 C 
ATOM     10  H   UNL     1      31.960 -21.636 -17.937  0.00  0.00    +0.150 HD
BRANCH   8  11
ATOM     11  C   UNL     1      32.473 -22.092 -19.920  0.00  0.00    +0.117 C 
BRANCH  11  12
ATOM     12  C   UNL     1      33.660 -21.245 -20.276  0.00  0.00    -0.003 C 
ATOM     13  C   UNL     1      33.487 -20.079 -21.021  0.00  0.00    -0.003 C 
ATOM     14  C   UNL     1      34.937 -21.624 -19.862  0.00  0.00    -0.003 C 
ATOM     15  C   UNL     1      35.865 -19.670 -20.937  0.00  0.00    +0.071 C 
ATOM     16  C   UNL     1      34.589 -19.290 -21.352  0.00  0.00    +0.004 C 
ATOM     17  C   UNL     1      36.040 -20.837 -20.193  0.00  0.00    +0.004 C 
BRANCH  15  21
ATOM     18  F   UNL     1      36.692 -17.671 -21.924  0.00  0.00    -0.166 F 
ATOM     19  F   UNL     1      37.781 -18.438 -20.206  0.00  0.00    -0.166 F 
ATOM     20  F   UNL     1      37.933 -19.446 -22.120  0.00  0.00    -0.166 F 
ATOM     21  C   UNL     1      37.044 -18.826 -21.289  0.00  0.00    +0.419 C 
ENDBRANCH  15  21
ENDBRANCH  11  12
ENDBRANCH   8  11
ENDBRANCH   3   9
BRANCH   5  22
ATOM     22  O   UNL     1      30.443 -22.723 -16.592  0.00  0.00    -0.471 OA
ATOM     23  C   UNL     1      29.165 -23.323 -16.394  0.00  0.00    +0.252 C 
ENDBRANCH   5  22
BRANCH   1  24
ATOM     24  C   UNL     1      34.693 -24.688 -13.410  0.00  0.00    +0.080 C 
BRANCH  24  29
ATOM     25  O   UNL     1      36.106 -22.851 -12.729  0.00  0.00    -0.428 OA
ATOM     26  O   UNL     1      35.114 -25.297 -10.443  0.00  0.00    -0.271 OA
ATOM     27  O   UNL     1      38.237 -22.376 -12.051  0.00  0.00    -0.226 OA
ATOM     28  N   UNL     1      36.917 -23.931 -10.966  0.00  0.00    -0.218 N 
ATOM     29  C   UNL     1      35.054 -23.729 -12.295  0.00  0.00    +0.250 C 
ATOM     30  C   UNL     1      35.660 -24.436 -11.115  0.00  0.00    +0.271 C 
ATOM     31  C   UNL     1      37.194 -23.000 -11.915  0.00  0.00    +0.408 C 
ATOM     32  H   UNL     1      37.546 -24.206 -10.260  0.00  0.00    +0.161 HD
ENDBRANCH  24  29
ENDBRANCH   1  24
TORSDOF 7
ENDMDL
MODEL 3
REMARK VINA RESULT:     -11.7      5.406      9.594
REMARK  Name = 56842109
REMARK  7 active torsions:
REMARK  status: ('A' for Active; 'I' for Inactive)
REMARK    1  A    between atoms: C_1  and  C_24
REMARK    2  A    between atoms: C_3  and  C_9
REMARK    3  A    between atoms: C_5  and  O_22
REMARK    4  A    between atoms: N_8  and  C_11
REMARK    5  A    between atoms: C_11  and  C_12
REMARK    6  A    between atoms: C_15  and  C_21
REMARK    7  A    between atoms: C_24  and  C_29
REMARK                            x       y       z     vdW  Elec       q    Type
REMARK                         _______ _______ _______ _____ _____    ______ ____
ROOT
ATOM      1  C   UNL     1      34.704 -19.958 -21.241  0.00  0.00    -0.018 C 
ATOM      2  C   UNL     1      34.016 -20.976 -20.582  0.00  0.00    +0.003 C 
ATOM      3  C   UNL     1      34.669 -21.752 -19.624  0.00  0.00    +0.087 C 
ATOM      4  C   UNL     1      36.044 -19.715 -20.943  0.00  0.00    -0.001 C 
ATOM      5  C   UNL     1      36.009 -21.510 -19.325  0.00  0.00    +0.143 C 
ATOM      6  C   UNL     1      36.697 -20.491 -19.985  0.00  0.00    +0.037 C 
ENDROOT
BRANCH   3   9
ATOM      7  O   UNL     1      33.536 -23.804 -19.577  0.00  0.00    -0.270 OA
ATOM      8  N   UNL     1      33.719 -22.654 -17.572  0.00  0.00    -0.297 N 
ATOM      9  C   UNL     1      33.931 -22.810 -18.946  0.00  0.00    +0.249 C 
ATOM     10  H   UNL     1      34.060 -21.839 -17.137  0.00  0.00    +0.150 HD
BRANCH   8  11
ATOM     11  C   UNL     1      33.026 -23.626 -16.757  0.00  0.00    +0.117 C 
BRANCH  11  12
ATOM     12  C   UNL     1      33.805 -23.983 -15.525  0.00  0.00    -0.003 C 
ATOM     13  C   UNL     1      33.171 -24.006 -14.282  0.00  0.00    -0.003 C 
ATOM     14  C   UNL     1      35.162 -24.293 -15.621  0.00  0.00    -0.003 C 
ATOM     15  C   UNL     1      35.249 -24.649 -13.233  0.00  0.00    +0.071 C 
ATOM     16  C   UNL     1      33.893 -24.338 -13.136  0.00  0.00    +0.004 C 
ATOM     17  C   UNL     1      35.884 -24.625 -14.475  0.00  0.00    +0.004 C 
BRANCH  15  21
ATOM     18  F   UNL     1      36.988 -24.090 -11.710  0.00  0.00    -0.166 F 
ATOM     19  F   UNL     1      35.250 -25.104 -10.884  0.00  0.00    -0.166 F 
ATOM     20  F   UNL     1      36.669 -26.206 -12.100  0.00  0.00    -0.166 F 
ATOM     21  C   UNL     1      36.021 -25.007 -12.008  0.00  0.00    +0.419 C 
ENDBRANCH  15  21
ENDBRANCH  11  12
ENDBRANCH   8  11
ENDBRANCH   3   9
BRANCH   5  22
ATOM     22  O   UNL     1      36.664 -22.255 -18.391  0.00  0.00    -0.471 OA
ATOM     23  C   UNL     1      37.080 -21.584 -17.203  0.00  0.00    +0.252 C 
ENDBRANCH   5  22
BRANCH   1  24
ATOM     24  C   UNL     1      33.997 -19.118 -22.276  0.00  0.00    +0.080 C 
BRANCH  24  29
ATOM     25  O   UNL     1      35.185 -17.033 -22.547  0.00  0.00    -0.428 OA
ATOM     26  O   UNL     1      34.047 -18.826 -25.319  0.00  0.00    -0.271 OA
ATOM     27  O   UNL     1      34.887 -14.864 -23.205  0.00  0.00    -0.226 OA
ATOM     28  N   UNL     1      34.355 -16.649 -24.571  0.00  0.00    -0.218 N 
ATOM     29  C   UNL     1      34.968 -18.330 -23.129  0.00  0.00    +0.250 C 
ATOM     30  C   UNL     1      34.400 -18.009 -24.483  0.00  0.00    +0.271 C 
ATOM     31  C   UNL     1      34.810 -16.063 -23.434  0.00  0.00    +0.408 C 
ATOM     32  H   UNL     1      34.034 -16.155 -25.360  0.00  0.00    +0.161 HD
ENDBRANCH  24  29
ENDBRANCH   1  24
TORSDOF 7
ENDMDL
MODEL 4
REMARK VINA RESULT:     -11.4      2.298      5.303
REMARK  Name = 56842109
REMARK  7 active torsions:
REMARK  status: ('A' for Active; 'I' for Inactive)
REMARK    1  A    between atoms: C_1  and  C_24
REMARK    2  A    between atoms: C_3  and  C_9
REMARK    3  A    between atoms: C_5  and  O_22
REMARK    4  A    between atoms: N_8  and  C_11
REMARK    5  A    between atoms: C_11  and  C_12
REMARK    6  A    between atoms: C_15  and  C_21
REMARK    7  A    between atoms: C_24  and  C_29
REMARK                            x       y       z     vdW  Elec       q    Type
REMARK                         _______ _______ _______ _____ _____    ______ ____
ROOT
ATOM      1  C   UNL     1      32.202 -23.424 -14.952  0.00  0.00    -0.018 C 
ATOM      2  C   UNL     1      33.312 -22.846 -15.570  0.00  0.00    +0.003 C 
ATOM      3  C   UNL     1      34.574 -23.418 -15.411  0.00  0.00    +0.087 C 
ATOM      4  C   UNL     1      32.355 -24.573 -14.178  0.00  0.00    -0.001 C 
ATOM      5  C   UNL     1      34.727 -24.567 -14.637  0.00  0.00    +0.143 C 
ATOM      6  C   UNL     1      33.618 -25.145 -14.019  0.00  0.00    +0.037 C 
ENDROOT
BRANCH   3   9
ATOM      7  O   UNL     1      36.766 -22.587 -15.432  0.00  0.00    -0.270 OA
ATOM      8  N   UNL     1      35.582 -22.489 -17.423  0.00  0.00    -0.297 N 
ATOM      9  C   UNL     1      35.719 -22.800 -16.066  0.00  0.00    +0.249 C 
ATOM     10  H   UNL     1      34.722 -22.685 -17.862  0.00  0.00    +0.150 HD
BRANCH   8  11
ATOM     11  C   UNL     1      36.634 -21.895 -18.215  0.00  0.00    +0.117 C 
BRANCH  11  12
ATOM     12  C   UNL     1      36.094 -21.167 -19.412  0.00  0.00    -0.003 C 
ATOM     13  C   UNL     1      36.905 -20.268 -20.105  0.00  0.00    -0.003 C 
ATOM     14  C   UNL     1      34.782 -21.388 -19.831  0.00  0.00    -0.003 C 
ATOM     15  C   UNL     1      35.093 -19.813 -21.636  0.00  0.00    +0.071 C 
ATOM     16  C   UNL     1      36.405 -19.591 -21.218  0.00  0.00    +0.004 C 
ATOM     17  C   UNL     1      34.282 -20.711 -20.942  0.00  0.00    +0.004 C 
BRANCH  15  21
ATOM     18  F   UNL     1      33.239 -19.358 -23.053  0.00  0.00    -0.166 F 
ATOM     19  F   UNL     1      34.645 -17.731 -22.727  0.00  0.00    -0.166 F 
ATOM     20  F   UNL     1      35.201 -19.404 -23.990  0.00  0.00    -0.166 F 
ATOM     21  C   UNL     1      34.559 -19.091 -22.827  0.00  0.00    +0.419 C 
ENDBRANCH  15  21
ENDBRANCH  11  12
ENDBRANCH   8  11
ENDBRANCH   3   9
BRANCH   5  22
ATOM     22  O   UNL     1      35.952 -25.143 -14.473  0.00  0.00    -0.471 OA
ATOM     23  C   UNL     1      36.216 -26.327 -15.222  0.00  0.00    +0.252 C 
ENDBRANCH   5  22
BRANCH   1  24
ATOM     24  C   UNL     1      30.837 -22.806 -15.125  0.00  0.00    +0.080 C 
BRANCH  24  29
ATOM     25  O   UNL     1      29.344 -22.443 -16.989  0.00  0.00    -0.428 OA
ATOM     26  O   UNL     1      29.122 -25.336 -15.046  0.00  0.00    -0.271 OA
ATOM     27  O   UNL     1      27.154 -22.010 -17.482  0.00  0.00    -0.226 OA
ATOM     28  N   UNL     1      27.793 -23.830 -16.211  0.00  0.00    -0.218 N 
ATOM     29  C   UNL     1      30.059 -23.450 -16.253  0.00  0.00    +0.250 C 
ATOM     30  C   UNL     1      28.966 -24.347 -15.745  0.00  0.00    +0.271 C 
ATOM     31  C   UNL     1      28.003 -22.704 -16.941  0.00  0.00    +0.408 C 
ATOM     32  H   UNL     1      26.907 -24.223 -16.040  0.00  0.00    +0.161 HD
ENDBRANCH  24  29
ENDBRANCH   1  24
TORSDOF 7
ENDMDL
MODEL 5
REMARK VINA RESULT:     -11.2      4.471      7.316
REMARK  Name = 56842109
REMARK  7 active torsions:
REMARK  status: ('A' for Active; 'I' for Inactive)
REMARK    1  A    between atoms: C_1  and  C_24
REMARK    2  A    between atoms: C_3  and  C_9
REMARK    3  A    between atoms: C_5  and  O_22
REMARK    4  A    between atoms: N_8  and  C_11
REMARK    5  A    between atoms: C_11  and  C_12
REMARK    6  A    between atoms: C_15  and  C_21
REMARK    7  A    between atoms: C_24  and  C_29
REMARK                            x       y       z     vdW  Elec       q    Type
REMARK                         _______ _______ _______ _____ _____    ______ ____
ROOT
ATOM      1  C   UNL     1      36.631 -22.583 -16.114  0.00  0.00    -0.018 C 
ATOM      2  C   UNL     1      35.495 -22.887 -15.363  0.00  0.00    +0.003 C 
ATOM      3  C   UNL     1      35.515 -23.961 -14.473  0.00  0.00    +0.087 C 
ATOM      4  C   UNL     1      37.785 -23.352 -15.974  0.00  0.00    -0.001 C 
ATOM      5  C   UNL     1      36.670 -24.729 -14.332  0.00  0.00    +0.143 C 
ATOM      6  C   UNL     1      37.805 -24.425 -15.083  0.00  0.00    +0.037 C 
ENDROOT
BRANCH   3   9
ATOM      7  O   UNL     1      34.241 -23.917 -12.505  0.00  0.00    -0.270 OA
ATOM      8  N   UNL     1      33.280 -24.919 -14.362  0.00  0.00    -0.297 N 
ATOM      9  C   UNL     1      34.319 -24.260 -13.697  0.00  0.00    +0.249 C 
ATOM     10  H   UNL     1      33.412 -25.162 -15.308  0.00  0.00    +0.150 HD
BRANCH   8  11
ATOM     11  C   UNL     1      32.024 -25.264 -13.736  0.00  0.00    +0.117 C 
BRANCH  11  12
ATOM     12  C   UNL     1      30.852 -24.681 -14.470  0.00  0.00    -0.003 C 
ATOM     13  C   UNL     1      29.836 -25.517 -14.937  0.00  0.00    -0.003 C 
ATOM     14  C   UNL     1      30.776 -23.305 -14.686  0.00  0.00    -0.003 C 
ATOM     15  C   UNL     1      28.671 -23.601 -15.834  0.00  0.00    +0.071 C 
ATOM     16  C   UNL     1      28.746 -24.977 -15.619  0.00  0.00    +0.004 C 
ATOM     17  C   UNL     1      29.686 -22.765 -15.367  0.00  0.00    +0.004 C 
BRANCH  15  21
ATOM     18  F   UNL     1      26.981 -23.882 -17.482  0.00  0.00    -0.166 F 
ATOM     19  F   UNL     1      26.463 -22.685 -15.742  0.00  0.00    -0.166 F 
ATOM     20  F   UNL     1      27.799 -21.881 -17.249  0.00  0.00    -0.166 F 
ATOM     21  C   UNL     1      27.504 -23.022 -16.560  0.00  0.00    +0.419 C 
ENDBRANCH  15  21
ENDBRANCH  11  12
ENDBRANCH   8  11
ENDBRANCH   3   9
BRANCH   5  22
ATOM     22  O   UNL     1      36.710 -25.780 -13.465  0.00  0.00    -0.471 OA
ATOM     23  C   UNL     1      37.731 -25.758 -12.469  0.00  0.00    +0.252 C 
ENDBRANCH   5  22
BRANCH   1  24
ATOM     24  C   UNL     1      36.609 -21.421 -17.077  0.00  0.00    +0.080 C 
BRANCH  24  29
ATOM     25  O   UNL     1      36.813 -20.794 -19.400  0.00  0.00    -0.428 OA
ATOM     26  O   UNL     1      34.367 -23.057 -18.359  0.00  0.00    -0.271 OA
ATOM     27  O   UNL     1      35.741 -19.631 -21.051  0.00  0.00    -0.226 OA
ATOM     28  N   UNL     1      34.719 -21.347 -19.890  0.00  0.00    -0.218 N 
ATOM     29  C   UNL     1      36.482 -21.877 -18.515  0.00  0.00    +0.250 C 
ATOM     30  C   UNL     1      35.061 -22.200 -18.883  0.00  0.00    +0.271 C 
ATOM     31  C   UNL     1      35.742 -20.510 -20.200  0.00  0.00    +0.408 C 
ATOM     32  H   UNL     1      33.841 -21.340 -20.336  0.00  0.00    +0.161 HD
ENDBRANCH  24  29
ENDBRANCH   1  24
TORSDOF 7
ENDMDL
MODEL 6
REMARK VINA RESULT:     -10.9      1.363      1.964
REMARK  Name = 56842109
REMARK  7 active torsions:
REMARK  status: ('A' for Active; 'I' for Inactive)
REMARK    1  A    between atoms: C_1  and  C_24
REMARK    2  A    between atoms: C_3  and  C_9
REMARK    3  A    between atoms: C_5  and  O_22
REMARK    4  A    between atoms: N_8  and  C_11
REMARK    5  A    between atoms: C_11  and  C_12
REMARK    6  A    between atoms: C_15  and  C_21
REMARK    7  A    between atoms: C_24  and  C_29
REMARK                            x       y       z     vdW  Elec       q    Type
REMARK                         _______ _______ _______ _____ _____    ______ ____
ROOT
ATOM      1  C   UNL     1      34.753 -23.638 -14.998  0.00  0.00    -0.018 C 
ATOM      2  C   UNL     1      34.572 -23.418 -16.364  0.00  0.00    +0.003 C 
ATOM      3  C   UNL     1      33.284 -23.363 -16.897  0.00  0.00    +0.087 C 
ATOM      4  C   UNL     1      33.646 -23.801 -14.166  0.00  0.00    -0.001 C 
ATOM      5  C   UNL     1      32.177 -23.527 -16.065  0.00  0.00    +0.143 C 
ATOM      6  C   UNL     1      32.358 -23.746 -14.699  0.00  0.00    +0.037 C 
ENDROOT
BRANCH   3   9
ATOM      7  O   UNL     1      33.446 -24.004 -19.146  0.00  0.00    -0.270 OA
ATOM      8  N   UNL     1      32.559 -21.907 -18.708  0.00  0.00    -0.297 N 
ATOM      9  C   UNL     1      33.118 -23.131 -18.325  0.00  0.00    +0.249 C 
ATOM     10  H   UNL     1      32.324 -21.261 -18.003  0.00  0.00    +0.150 HD
BRANCH   8  11
ATOM     11  C   UNL     1      32.311 -21.539 -20.083  0.00  0.00    +0.117 C 
BRANCH  11  12
ATOM     12  C   UNL     1      33.450 -20.758 -20.671  0.00  0.00    -0.003 C 
ATOM     13  C   UNL     1      33.209 -19.830 -21.684  0.00  0.00    -0.003 C 
ATOM     14  C   UNL     1      34.749 -20.960 -20.205  0.00  0.00    -0.003 C 
ATOM     15  C   UNL     1      35.565 -19.306 -21.764  0.00  0.00    +0.071 C 
ATOM     16  C   UNL     1      34.267 -19.104 -22.232  0.00  0.00    +0.004 C 
ATOM     17  C   UNL     1      35.806 -20.234 -20.752  0.00  0.00    +0.004 C 
BRANCH  15  21
ATOM     18  F   UNL     1      37.720 -18.346 -21.462  0.00  0.00    -0.166 F 
ATOM     19  F   UNL     1      37.260 -19.118 -23.443  0.00  0.00    -0.166 F 
ATOM     20  F   UNL     1      36.343 -17.275 -22.760  0.00  0.00    -0.166 F 
ATOM     21  C   UNL     1      36.696 -18.527 -22.347  0.00  0.00    +0.419 C 
ENDBRANCH  15  21
ENDBRANCH  11  12
ENDBRANCH   8  11
ENDBRANCH   3   9
BRANCH   5  22
ATOM     22  O   UNL     1      30.911 -23.473 -16.566  0.00  0.00    -0.471 OA
ATOM     23  C   UNL     1      29.906 -24.203 -15.865  0.00  0.00    +0.252 C 
ENDBRANCH   5  22
BRANCH   1  24
ATOM     24  C   UNL     1      36.146 -23.697 -14.422  0.00  0.00    +0.080 C 
BRANCH  24  29
ATOM     25  O   UNL     1      36.172 -25.922 -13.484  0.00  0.00    -0.428 OA
ATOM     26  O   UNL     1      39.073 -24.493 -14.800  0.00  0.00    -0.271 OA
ATOM     27  O   UNL     1      36.972 -27.115 -11.706  0.00  0.00    -0.226 OA
ATOM     28  N   UNL     1      38.358 -25.894 -13.092  0.00  0.00    -0.218 N 
ATOM     29  C   UNL     1      36.739 -25.087 -14.508  0.00  0.00    +0.250 C 
ATOM     30  C   UNL     1      38.207 -25.097 -14.188  0.00  0.00    +0.271 C 
ATOM     31  C   UNL     1      37.165 -26.382 -12.664  0.00  0.00    +0.408 C 
ATOM     32  H   UNL     1      39.223 -26.091 -12.664  0.00  0.00    +0.161 HD
ENDBRANCH  24  29
ENDBRANCH   1  24
TORSDOF 7
ENDMDL
MODEL 7
REMARK VINA RESULT:     -10.9     11.287     14.948
REMARK  Name = 56842109
REMARK  7 active torsions:
REMARK  status: ('A' for Active; 'I' for Inactive)
REMARK    1  A    between atoms: C_1  and  C_24
REMARK    2  A    between atoms: C_3  and  C_9
REMARK    3  A    between atoms: C_5  and  O_22
REMARK    4  A    between atoms: N_8  and  C_11
REMARK    5  A    between atoms: C_11  and  C_12
REMARK    6  A    between atoms: C_15  and  C_21
REMARK    7  A    between atoms: C_24  and  C_29
REMARK                            x       y       z     vdW  Elec       q    Type
REMARK                         _______ _______ _______ _____ _____    ______ ____
ROOT
ATOM      1  C   UNL     1      33.040 -12.659 -22.914  0.00  0.00    -0.018 C 
ATOM      2  C   UNL     1      32.865 -11.295 -23.154  0.00  0.00    +0.003 C 
ATOM      3  C   UNL     1      32.020 -10.546 -22.334  0.00  0.00    +0.087 C 
ATOM      4  C   UNL     1      32.371 -13.272 -21.856  0.00  0.00    -0.001 C 
ATOM      5  C   UNL     1      31.351 -11.159 -21.276  0.00  0.00    +0.143 C 
ATOM      6  C   UNL     1      31.526 -12.523 -21.036  0.00  0.00    +0.037 C 
ENDROOT
BRANCH   3   9
ATOM      7  O   UNL     1      30.859  -8.714 -23.224  0.00  0.00    -0.270 OA
ATOM      8  N   UNL     1      32.840  -8.266 -22.106  0.00  0.00    -0.297 N 
ATOM      9  C   UNL     1      31.853  -9.124 -22.601  0.00  0.00    +0.249 C 
ATOM     10  H   UNL     1      33.601  -8.661 -21.621  0.00  0.00    +0.150 HD
BRANCH   8  11
ATOM     11  C   UNL     1      32.804  -6.830 -22.268  0.00  0.00    +0.117 C 
BRANCH  11  12
ATOM     12  C   UNL     1      33.545  -6.385 -23.495  0.00  0.00    -0.003 C 
ATOM     13  C   UNL     1      33.111  -5.264 -24.203  0.00  0.00    -0.003 C 
ATOM     14  C   UNL     1      34.669  -7.090 -23.927  0.00  0.00    -0.003 C 
ATOM     15  C   UNL     1      34.922  -5.554 -25.774  0.00  0.00    +0.071 C 
ATOM     16  C   UNL     1      33.799  -4.848 -25.343  0.00  0.00    +0.004 C 
ATOM     17  C   UNL     1      35.357  -6.675 -25.066  0.00  0.00    +0.004 C 
BRANCH  15  21
ATOM     18  F   UNL     1      36.042  -6.151 -27.785  0.00  0.00    -0.166 F 
ATOM     19  F   UNL     1      34.934  -4.280 -27.799  0.00  0.00    -0.166 F 
ATOM     20  F   UNL     1      36.807  -4.420 -26.714  0.00  0.00    -0.166 F 
ATOM     21  C   UNL     1      35.661  -5.109 -26.991  0.00  0.00    +0.419 C 
ENDBRANCH  15  21
ENDBRANCH  11  12
ENDBRANCH   8  11
ENDBRANCH   3   9
BRANCH   5  22
ATOM     22  O   UNL     1      30.524 -10.444 -20.462  0.00  0.00    -0.471 OA
ATOM     23  C   UNL     1      30.990 -10.175 -19.141  0.00  0.00    +0.252 C 
ENDBRANCH   5  22
BRANCH   1  24
ATOM     24  C   UNL     1      33.954 -13.468 -23.800  0.00  0.00    +0.080 C 
BRANCH  24  29
ATOM     25  O   UNL     1      34.343 -15.652 -22.846  0.00  0.00    -0.428 OA
ATOM     26  O   UNL     1      33.543 -15.284 -26.225  0.00  0.00    -0.271 OA
ATOM     27  O   UNL     1      35.828 -17.390 -22.877  0.00  0.00    -0.226 OA
ATOM     28  N   UNL     1      34.837 -16.584 -24.801  0.00  0.00    -0.218 N 
ATOM     29  C   UNL     1      33.573 -14.933 -23.824  0.00  0.00    +0.250 C 
ATOM     30  C   UNL     1      33.953 -15.596 -25.118  0.00  0.00    +0.271 C 
ATOM     31  C   UNL     1      35.079 -16.624 -23.466  0.00  0.00    +0.408 C 
ATOM     32  H   UNL     1      35.247 -17.192 -25.457  0.00  0.00    +0.161 HD
ENDBRANCH  24  29
ENDBRANCH   1  24
TORSDOF 7
ENDMDL
MODEL 8
REMARK VINA RESULT:     -10.9     10.179     13.820
REMARK  Name = 56842109
REMARK  7 active torsions:
REMARK  status: ('A' for Active; 'I' for Inactive)
REMARK    1  A    between atoms: C_1  and  C_24
REMARK    2  A    between atoms: C_3  and  C_9
REMARK    3  A    between atoms: C_5  and  O_22
REMARK    4  A    between atoms: N_8  and  C_11
REMARK    5  A    between atoms: C_11  and  C_12
REMARK    6  A    between atoms: C_15  and  C_21
REMARK    7  A    between atoms: C_24  and  C_29
REMARK                            x       y       z     vdW  Elec       q    Type
REMARK                         _______ _______ _______ _____ _____    ______ ____
ROOT
ATOM      1  C   UNL     1      34.069 -14.871 -22.207  0.00  0.00    -0.018 C 
ATOM      2  C   UNL     1      34.341 -14.074 -23.319  0.00  0.00    +0.003 C 
ATOM      3  C   UNL     1      33.662 -12.868 -23.495  0.00  0.00    +0.087 C 
ATOM      4  C   UNL     1      33.120 -14.461 -21.271  0.00  0.00    -0.001 C 
ATOM      5  C   UNL     1      32.714 -12.458 -22.559  0.00  0.00    +0.143 C 
ATOM      6  C   UNL     1      32.442 -13.254 -21.447  0.00  0.00    +0.037 C 
ENDROOT
BRANCH   3   9
ATOM      7  O   UNL     1      33.633 -12.431 -25.798  0.00  0.00    -0.270 OA
ATOM      8  N   UNL     1      34.608 -10.830 -24.434  0.00  0.00    -0.297 N 
ATOM      9  C   UNL     1      33.963 -12.050 -24.663  0.00  0.00    +0.249 C 
ATOM     10  H   UNL     1      34.841 -10.593 -23.507  0.00  0.00    +0.150 HD
BRANCH   8  11
ATOM     11  C   UNL     1      34.952  -9.900 -25.485  0.00  0.00    +0.117 C 
BRANCH  11  12
ATOM     12  C   UNL     1      34.331  -8.551 -25.267  0.00  0.00    -0.003 C 
ATOM     13  C   UNL     1      35.127  -7.471 -24.886  0.00  0.00    -0.003 C 
ATOM     14  C   UNL     1      32.959  -8.376 -25.446  0.00  0.00    -0.003 C 
ATOM     15  C   UNL     1      33.180  -6.043 -24.862  0.00  0.00    +0.071 C 
ATOM     16  C   UNL     1      34.552  -6.216 -24.683  0.00  0.00    +0.004 C 
ATOM     17  C   UNL     1      32.384  -7.123 -25.243  0.00  0.00    +0.004 C 
BRANCH  15  21
ATOM     18  F   UNL     1      32.447  -4.382 -23.327  0.00  0.00    -0.166 F 
ATOM     19  F   UNL     1      33.275  -3.677 -25.210  0.00  0.00    -0.166 F 
ATOM     20  F   UNL     1      31.307  -4.587 -25.167  0.00  0.00    -0.166 F 
ATOM     21  C   UNL     1      32.565  -4.701 -24.649  0.00  0.00    +0.419 C 
ENDBRANCH  15  21
ENDBRANCH  11  12
ENDBRANCH   8  11
ENDBRANCH   3   9
BRANCH   5  22
ATOM     22  O   UNL     1      32.043 -11.281 -22.713  0.00  0.00    -0.471 OA
ATOM     23  C   UNL     1      31.144 -10.908 -21.670  0.00  0.00    +0.252 C 
ENDBRANCH   5  22
BRANCH   1  24
ATOM     24  C   UNL     1      34.803 -16.175 -22.016  0.00  0.00    +0.080 C 
BRANCH  24  29
ATOM     25  O   UNL     1      34.071 -16.931 -24.190  0.00  0.00    -0.428 OA
ATOM     26  O   UNL     1      36.654 -18.560 -22.498  0.00  0.00    -0.271 OA
ATOM     27  O   UNL     1      32.990 -18.659 -25.224  0.00  0.00    -0.226 OA
ATOM     28  N   UNL     1      34.860 -18.988 -23.907  0.00  0.00    -0.218 N 
ATOM     29  C   UNL     1      35.218 -16.792 -23.335  0.00  0.00    +0.250 C 
ATOM     30  C   UNL     1      35.700 -18.206 -23.172  0.00  0.00    +0.271 C 
ATOM     31  C   UNL     1      33.892 -18.248 -24.508  0.00  0.00    +0.408 C 
ATOM     32  H   UNL     1      34.943 -19.965 -23.993  0.00  0.00    +0.161 HD
ENDBRANCH  24  29
ENDBRANCH   1  24
TORSDOF 7
ENDMDL
MODEL 9
REMARK VINA RESULT:     -10.9      2.825      4.586
REMARK  Name = 56842109
REMARK  7 active torsions:
REMARK  status: ('A' for Active; 'I' for Inactive)
REMARK    1  A    between atoms: C_1  and  C_24
REMARK    2  A    between atoms: C_3  and  C_9
REMARK    3  A    between atoms: C_5  and  O_22
REMARK    4  A    between atoms: N_8  and  C_11
REMARK    5  A    between atoms: C_11  and  C_12
REMARK    6  A    between atoms: C_15  and  C_21
REMARK    7  A    between atoms: C_24  and  C_29
REMARK                            x       y       z     vdW  Elec       q    Type
REMARK                         _______ _______ _______ _____ _____    ______ ____
ROOT
ATOM      1  C   UNL     1      34.490 -23.062 -16.869  0.00  0.00    -0.018 C 
ATOM      2  C   UNL     1      35.409 -22.474 -17.738  0.00  0.00    +0.003 C 
ATOM      3  C   UNL     1      34.982 -21.967 -18.966  0.00  0.00    +0.087 C 
ATOM      4  C   UNL     1      33.145 -23.142 -17.227  0.00  0.00    -0.001 C 
ATOM      5  C   UNL     1      33.637 -22.048 -19.324  0.00  0.00    +0.143 C 
ATOM      6  C   UNL     1      32.718 -22.636 -18.455  0.00  0.00    +0.037 C 
ENDROOT
BRANCH   3   9
ATOM      7  O   UNL     1      37.036 -21.926 -20.096  0.00  0.00    -0.270 OA
ATOM      8  N   UNL     1      35.611 -20.128 -20.432  0.00  0.00    -0.297 N 
ATOM      9  C   UNL     1      35.959 -21.355 -19.857  0.00  0.00    +0.249 C 
ATOM     10  H   UNL     1      34.740 -19.733 -20.197  0.00  0.00    +0.150 HD
BRANCH   8  11
ATOM     11  C   UNL     1      36.461 -19.410 -21.353  0.00  0.00    +0.117 C 
BRANCH  11  12
ATOM     12  C   UNL     1      35.770 -18.215 -21.942  0.00  0.00    -0.003 C 
ATOM     13  C   UNL     1      35.238 -17.234 -21.104  0.00  0.00    -0.003 C 
ATOM     14  C   UNL     1      35.658 -18.084 -23.326  0.00  0.00    -0.003 C 
ATOM     15  C   UNL     1      34.484 -15.993 -23.033  0.00  0.00    +0.071 C 
ATOM     16  C   UNL     1      34.595 -16.123 -21.649  0.00  0.00    +0.004 C 
ATOM     17  C   UNL     1      35.015 -16.973 -23.871  0.00  0.00    +0.004 C 
BRANCH  15  21
ATOM     18  F   UNL     1      33.104 -15.103 -24.753  0.00  0.00    -0.166 F 
ATOM     19  F   UNL     1      32.892 -14.225 -22.774  0.00  0.00    -0.166 F 
ATOM     20  F   UNL     1      34.654 -13.796 -23.965  0.00  0.00    -0.166 F 
ATOM     21  C   UNL     1      33.800 -14.803 -23.617  0.00  0.00    +0.419 C 
ENDBRANCH  15  21
ENDBRANCH  11  12
ENDBRANCH   8  11
ENDBRANCH   3   9
BRANCH   5  22
ATOM     22  O   UNL     1      33.201 -21.556 -20.518  0.00  0.00    -0.471 OA
ATOM     23  C   UNL     1      32.310 -20.443 -20.472  0.00  0.00    +0.252 C 
ENDBRANCH   5  22
BRANCH   1  24
ATOM     24  C   UNL     1      34.951 -23.608 -15.540  0.00  0.00    +0.080 C 
BRANCH  24  29
ATOM     25  O   UNL     1      36.348 -25.574 -15.669  0.00  0.00    -0.428 OA
ATOM     26  O   UNL     1      37.376 -22.754 -13.885  0.00  0.00    -0.271 OA
ATOM     27  O   UNL     1      37.164 -27.289 -14.395  0.00  0.00    -0.226 OA
ATOM     28  N   UNL     1      37.483 -25.072 -13.827  0.00  0.00    -0.218 N 
ATOM     29  C   UNL     1      36.368 -24.138 -15.605  0.00  0.00    +0.250 C 
ATOM     30  C   UNL     1      37.134 -23.860 -14.343  0.00  0.00    +0.271 C 
ATOM     31  C   UNL     1      37.021 -26.091 -14.596  0.00  0.00    +0.408 C 
ATOM     32  H   UNL     1      38.005 -25.194 -13.001  0.00  0.00    +0.161 HD
ENDBRANCH  24  29
ENDBRANCH   1  24
TORSDOF 7
ENDMDL
