MODEL 1
REMARK VINA RESULT:     -11.7      0.000      0.000
REMARK  Name = 24878044
REMARK  6 active torsions:
REMARK  status: ('A' for Active; 'I' for Inactive)
REMARK    1  A    between atoms: N_2  and  C_6
REMARK    2  A    between atoms: C_3  and  C_18
REMARK    3  A    between atoms: C_7  and  S_12
REMARK    4  A    between atoms: S_12  and  N_15
REMARK    5  A    between atoms: C_18  and  S_19
REMARK    6  A    between atoms: S_19  and  C_31
REMARK                            x       y       z     vdW  Elec       q    Type
REMARK                         _______ _______ _______ _____ _____    ______ ____
ROOT
ATOM      1  O   UNL     1      34.194 -19.057 -24.485  0.00  0.00    -0.274 OA
ATOM      2  N   UNL     1      34.950 -18.327 -22.383  0.00  0.00    -0.283 N 
ATOM      3  C   UNL     1      34.717 -18.224 -23.749  0.00  0.00    +0.238 C 
ATOM      4  H   UNL     1      35.396 -17.558 -21.958  0.00  0.00    +0.155 HD
ENDROOT
BRANCH   2   6
ATOM      5 CL   UNL     1      37.269 -19.686 -20.948  0.00  0.00    -0.081 Cl
ATOM      6  C   UNL     1      34.618 -19.408 -21.532  0.00  0.00    +0.061 C 
ATOM      7  C   UNL     1      33.896 -21.530 -19.871  0.00  0.00    +0.123 C 
ATOM      8  C   UNL     1      35.598 -20.104 -20.824  0.00  0.00    +0.072 C 
ATOM      9  C   UNL     1      33.277 -19.773 -21.409  0.00  0.00    +0.017 C 
ATOM     10  C   UNL     1      35.236 -21.165 -19.994  0.00  0.00    +0.033 C 
ATOM     11  C   UNL     1      32.916 -20.834 -20.579  0.00  0.00    +0.021 C 
BRANCH   7  12
ATOM     12  S   UNL     1      33.443 -22.858 -18.832  0.00  0.00    +0.057 S 
ATOM     13  O   UNL     1      32.154 -22.551 -18.229  0.00  0.00    -0.153 OA
ATOM     14  O   UNL     1      33.621 -24.102 -19.567  0.00  0.00    -0.153 OA
BRANCH  12  15
ATOM     15  N   UNL     1      34.652 -22.755 -17.628  0.00  0.00    -0.203 NA
ATOM     16  H   UNL     1      35.032 -21.808 -17.608  0.00  0.00    +0.144 HD
ATOM     17  H   UNL     1      35.399 -23.417 -17.838  0.00  0.00    +0.144 HD
ENDBRANCH  12  15
ENDBRANCH   7  12
ENDBRANCH   2   6
BRANCH   3  18
ATOM     18  C   UNL     1      35.216 -16.909 -24.312  0.00  0.00    +0.152 C 
BRANCH  18  19
ATOM     19  S   UNL     1      33.795 -15.866 -24.704  0.00  0.00    -0.047 S 
BRANCH  19  31
ATOM     20  O   UNL     1      34.128 -15.185 -22.212  0.00  0.00    -0.262 OA
ATOM     21  N   UNL     1      33.385 -13.431 -23.589  0.00  0.00    -0.250 N 
ATOM     22  C   UNL     1      34.058 -11.346 -24.771  0.00  0.00    +0.027 C 
ATOM     23  C   UNL     1      32.979 -10.546 -24.074  0.00  0.00    +0.029 C 
ATOM     24  C   UNL     1      33.614 -12.793 -24.903  0.00  0.00    +0.099 C 
ATOM     25  C   UNL     1      32.525 -11.230 -22.812  0.00  0.00    -0.009 C 
ATOM     26  C   UNL     1      32.717 -12.613 -22.592  0.00  0.00    +0.051 C 
ATOM     27  C   UNL     1      31.853 -10.445 -21.856  0.00  0.00    -0.007 C 
ATOM     28  C   UNL     1      32.199 -13.161 -21.403  0.00  0.00    +0.014 C 
ATOM     29  C   UNL     1      31.373 -11.008 -20.680  0.00  0.00    -0.022 C 
ATOM     30  C   UNL     1      31.543 -12.367 -20.457  0.00  0.00    -0.003 C 
ATOM     31  C   UNL     1      33.796 -14.756 -23.313  0.00  0.00    +0.280 C 
ATOM     32  C   UNL     1      30.697 -10.157 -19.660  0.00  0.00    +0.031 C 
ENDBRANCH  19  31
ENDBRANCH  18  19
ENDBRANCH   3  18
TORSDOF 6
ENDMDL
MODEL 2
REMARK VINA RESULT:     -11.6      1.217      2.481
REMARK  Name = 24878044
REMARK  6 active torsions:
REMARK  status: ('A' for Active; 'I' for Inactive)
REMARK    1  A    between atoms: N_2  and  C_6
REMARK    2  A    between atoms: C_3  and  C_18
REMARK    3  A    between atoms: C_7  and  S_12
REMARK    4  A    between atoms: S_12  and  N_15
REMARK    5  A    between atoms: C_18  and  S_19
REMARK    6  A    between atoms: S_19  and  C_31
REMARK                            x       y       z     vdW  Elec       q    Type
REMARK                         _______ _______ _______ _____ _____    ______ ____
ROOT
ATOM      1  O   UNL     1      34.172 -19.234 -24.506  0.00  0.00    -0.274 OA
ATOM      2  N   UNL     1      34.683 -18.336 -22.395  0.00  0.00    -0.283 N 
ATOM      3  C   UNL     1      34.514 -18.308 -23.775  0.00  0.00    +0.238 C 
ATOM      4  H   UNL     1      34.976 -17.495 -21.975  0.00  0.00    +0.155 HD
ENDROOT
BRANCH   2   6
ATOM      5 CL   UNL     1      37.180 -19.556 -21.146  0.00  0.00    -0.081 Cl
ATOM      6  C   UNL     1      34.481 -19.434 -21.525  0.00  0.00    +0.061 C 
ATOM      7  C   UNL     1      34.012 -21.592 -19.821  0.00  0.00    +0.123 C 
ATOM      8  C   UNL     1      35.550 -20.071 -20.897  0.00  0.00    +0.072 C 
ATOM      9  C   UNL     1      33.176 -19.876 -21.302  0.00  0.00    +0.017 C 
ATOM     10  C   UNL     1      35.315 -21.150 -20.044  0.00  0.00    +0.033 C 
ATOM     11  C   UNL     1      32.941 -20.955 -20.449  0.00  0.00    +0.021 C 
BRANCH   7  12
ATOM     12  S   UNL     1      33.718 -22.943 -18.754  0.00  0.00    +0.057 S 
ATOM     13  O   UNL     1      33.683 -24.160 -19.552  0.00  0.00    -0.153 OA
ATOM     14  O   UNL     1      34.629 -22.845 -17.622  0.00  0.00    -0.153 OA
BRANCH  12  15
ATOM     15  N   UNL     1      32.134 -22.592 -18.215  0.00  0.00    -0.203 NA
ATOM     16  H   UNL     1      31.922 -21.612 -18.399  0.00  0.00    +0.144 HD
ATOM     17  H   UNL     1      32.068 -22.773 -17.214  0.00  0.00    +0.144 HD
ENDBRANCH  12  15
ENDBRANCH   7  12
ENDBRANCH   2   6
BRANCH   3  18
ATOM     18  C   UNL     1      34.828 -16.946 -24.357  0.00  0.00    +0.152 C 
BRANCH  18  19
ATOM     19  S   UNL     1      34.728 -15.712 -23.041  0.00  0.00    -0.047 S 
BRANCH  19  31
ATOM     20  O   UNL     1      33.722 -14.447 -25.083  0.00  0.00    -0.262 OA
ATOM     21  N   UNL     1      33.301 -13.409 -23.017  0.00  0.00    -0.250 N 
ATOM     22  C   UNL     1      31.584 -12.978 -21.267  0.00  0.00    +0.027 C 
ATOM     23  C   UNL     1      31.779 -11.480 -21.377  0.00  0.00    +0.029 C 
ATOM     24  C   UNL     1      32.878 -13.687 -21.628  0.00  0.00    +0.099 C 
ATOM     25  C   UNL     1      32.407 -11.110 -22.695  0.00  0.00    -0.009 C 
ATOM     26  C   UNL     1      33.141 -12.038 -23.469  0.00  0.00    +0.051 C 
ATOM     27  C   UNL     1      32.276  -9.774 -23.121  0.00  0.00    -0.007 C 
ATOM     28  C   UNL     1      33.737 -11.568 -24.655  0.00  0.00    +0.014 C 
ATOM     29  C   UNL     1      32.855  -9.345 -24.309  0.00  0.00    -0.022 C 
ATOM     30  C   UNL     1      33.589 -10.242 -25.073  0.00  0.00    -0.003 C 
ATOM     31  C   UNL     1      33.827 -14.415 -23.861  0.00  0.00    +0.280 C 
ATOM     32  C   UNL     1      32.676  -7.938 -24.767  0.00  0.00    +0.031 C 
ENDBRANCH  19  31
ENDBRANCH  18  19
ENDBRANCH   3  18
TORSDOF 6
ENDMDL
MODEL 3
REMARK VINA RESULT:     -10.5      5.586     11.850
REMARK  Name = 24878044
REMARK  6 active torsions:
REMARK  status: ('A' for Active; 'I' for Inactive)
REMARK    1  A    between atoms: N_2  and  C_6
REMARK    2  A    between atoms: C_3  and  C_18
REMARK    3  A    between atoms: C_7  and  S_12
REMARK    4  A    between atoms: S_12  and  N_15
REMARK    5  A    between atoms: C_18  and  S_19
REMARK    6  A    between atoms: S_19  and  C_31
REMARK                            x       y       z     vdW  Elec       q    Type
REMARK                         _______ _______ _______ _____ _____    ______ ____
ROOT
ATOM      1  O   UNL     1      31.605 -22.190 -18.083  0.00  0.00    -0.274 OA
ATOM      2  N   UNL     1      33.853 -22.626 -18.611  0.00  0.00    -0.283 N 
ATOM      3  C   UNL     1      32.638 -22.844 -17.971  0.00  0.00    +0.238 C 
ATOM      4  H   UNL     1      34.581 -23.250 -18.386  0.00  0.00    +0.155 HD
ENDROOT
BRANCH   2   6
ATOM      5 CL   UNL     1      36.792 -21.866 -18.870  0.00  0.00    -0.081 Cl
ATOM      6  C   UNL     1      34.162 -21.613 -19.550  0.00  0.00    +0.061 C 
ATOM      7  C   UNL     1      34.702 -19.613 -21.417  0.00  0.00    +0.123 C 
ATOM      8  C   UNL     1      35.473 -21.185 -19.753  0.00  0.00    +0.072 C 
ATOM      9  C   UNL     1      33.120 -21.041 -20.281  0.00  0.00    +0.017 C 
ATOM     10  C   UNL     1      35.743 -20.185 -20.687  0.00  0.00    +0.033 C 
ATOM     11  C   UNL     1      33.390 -20.041 -21.215  0.00  0.00    +0.021 C 
BRANCH   7  12
ATOM     12  S   UNL     1      35.039 -18.360 -22.586  0.00  0.00    +0.057 S 
ATOM     13  O   UNL     1      34.269 -18.636 -23.791  0.00  0.00    -0.153 OA
ATOM     14  O   UNL     1      34.916 -17.067 -21.928  0.00  0.00    -0.153 OA
BRANCH  12  15
ATOM     15  N   UNL     1      36.691 -18.655 -22.910  0.00  0.00    -0.203 NA
ATOM     16  H   UNL     1      37.208 -17.776 -22.868  0.00  0.00    +0.144 HD
ATOM     17  H   UNL     1      36.788 -19.063 -23.840  0.00  0.00    +0.144 HD
ENDBRANCH  12  15
ENDBRANCH   7  12
ENDBRANCH   2   6
BRANCH   3  18
ATOM     18  C   UNL     1      32.696 -24.031 -17.033  0.00  0.00    +0.152 C 
BRANCH  18  19
ATOM     19  S   UNL     1      32.778 -23.427 -15.332  0.00  0.00    -0.047 S 
BRANCH  19  31
ATOM     20  O   UNL     1      35.155 -22.514 -15.879  0.00  0.00    -0.262 OA
ATOM     21  N   UNL     1      35.103 -24.014 -14.070  0.00  0.00    -0.250 N 
ATOM     22  C   UNL     1      35.204 -24.218 -11.591  0.00  0.00    +0.027 C 
ATOM     23  C   UNL     1      36.365 -25.186 -11.671  0.00  0.00    +0.029 C 
ATOM     24  C   UNL     1      34.350 -24.345 -12.842  0.00  0.00    +0.099 C 
ATOM     25  C   UNL     1      37.080 -25.069 -12.991  0.00  0.00    -0.009 C 
ATOM     26  C   UNL     1      36.465 -24.513 -14.136  0.00  0.00    +0.051 C 
ATOM     27  C   UNL     1      38.391 -25.577 -13.064  0.00  0.00    -0.007 C 
ATOM     28  C   UNL     1      37.204 -24.509 -15.334  0.00  0.00    +0.014 C 
ATOM     29  C   UNL     1      39.106 -25.537 -14.255  0.00  0.00    -0.022 C 
ATOM     30  C   UNL     1      38.509 -25.007 -15.391  0.00  0.00    -0.003 C 
ATOM     31  C   UNL     1      34.536 -23.252 -15.119  0.00  0.00    +0.280 C 
ATOM     32  C   UNL     1      40.506 -26.044 -14.309  0.00  0.00    +0.031 C 
ENDBRANCH  19  31
ENDBRANCH  18  19
ENDBRANCH   3  18
TORSDOF 6
ENDMDL
MODEL 4
REMARK VINA RESULT:     -10.4      5.051      8.137
REMARK  Name = 24878044
REMARK  6 active torsions:
REMARK  status: ('A' for Active; 'I' for Inactive)
REMARK    1  A    between atoms: N_2  and  C_6
REMARK    2  A    between atoms: C_3  and  C_18
REMARK    3  A    between atoms: C_7  and  S_12
REMARK    4  A    between atoms: S_12  and  N_15
REMARK    5  A    between atoms: C_18  and  S_19
REMARK    6  A    between atoms: S_19  and  C_31
REMARK                            x       y       z     vdW  Elec       q    Type
REMARK                         _______ _______ _______ _____ _____    ______ ____
ROOT
ATOM      1  O   UNL     1      32.088 -23.504 -16.018  0.00  0.00    -0.274 OA
ATOM      2  N   UNL     1      34.286 -23.213 -16.795  0.00  0.00    -0.283 N 
ATOM      3  C   UNL     1      32.899 -23.220 -16.895  0.00  0.00    +0.238 C 
ATOM      4  H   UNL     1      34.780 -22.969 -17.612  0.00  0.00    +0.155 HD
ENDROOT
BRANCH   2   6
ATOM      5 CL   UNL     1      36.951 -21.753 -16.555  0.00  0.00    -0.081 Cl
ATOM      6  C   UNL     1      35.070 -23.514 -15.655  0.00  0.00    +0.061 C 
ATOM      7  C   UNL     1      36.562 -24.151 -13.387  0.00  0.00    +0.123 C 
ATOM      8  C   UNL     1      36.306 -22.906 -15.441  0.00  0.00    +0.072 C 
ATOM      9  C   UNL     1      34.579 -24.441 -14.735  0.00  0.00    +0.017 C 
ATOM     10  C   UNL     1      37.052 -23.225 -14.307  0.00  0.00    +0.033 C 
ATOM     11  C   UNL     1      35.325 -24.760 -13.601  0.00  0.00    +0.021 C 
BRANCH   7  12
ATOM     12  S   UNL     1      37.496 -24.551 -11.967  0.00  0.00    +0.057 S 
ATOM     13  O   UNL     1      37.678 -25.995 -11.927  0.00  0.00    -0.153 OA
ATOM     14  O   UNL     1      38.657 -23.673 -11.914  0.00  0.00    -0.153 OA
BRANCH  12  15
ATOM     15  N   UNL     1      36.411 -24.099 -10.726  0.00  0.00    -0.203 NA
ATOM     16  H   UNL     1      36.345 -24.852 -10.041  0.00  0.00    +0.144 HD
ATOM     17  H   UNL     1      35.490 -23.921 -11.127  0.00  0.00    +0.144 HD
ENDBRANCH  12  15
ENDBRANCH   7  12
ENDBRANCH   2   6
BRANCH   3  18
ATOM     18  C   UNL     1      32.429 -22.840 -18.282  0.00  0.00    +0.152 C 
BRANCH  18  19
ATOM     19  S   UNL     1      33.857 -22.781 -19.387  0.00  0.00    -0.047 S 
BRANCH  19  31
ATOM     20  O   UNL     1      32.554 -20.652 -20.131  0.00  0.00    -0.262 OA
ATOM     21  N   UNL     1      34.859 -20.567 -20.585  0.00  0.00    -0.250 N 
ATOM     22  C   UNL     1      37.039 -19.597 -19.875  0.00  0.00    +0.027 C 
ATOM     23  C   UNL     1      37.287 -19.024 -21.255  0.00  0.00    +0.029 C 
ATOM     24  C   UNL     1      36.183 -20.847 -19.990  0.00  0.00    +0.099 C 
ATOM     25  C   UNL     1      36.002 -18.893 -22.028  0.00  0.00    -0.009 C 
ATOM     26  C   UNL     1      34.846 -19.642 -21.704  0.00  0.00    +0.051 C 
ATOM     27  C   UNL     1      35.996 -18.018 -23.130  0.00  0.00    -0.007 C 
ATOM     28  C   UNL     1      33.718 -19.487 -22.532  0.00  0.00    +0.014 C 
ATOM     29  C   UNL     1      34.859 -17.867 -23.915  0.00  0.00    -0.022 C 
ATOM     30  C   UNL     1      33.722 -18.605 -23.617  0.00  0.00    -0.003 C 
ATOM     31  C   UNL     1      33.671 -21.158 -20.093  0.00  0.00    +0.280 C 
ATOM     32  C   UNL     1      34.855 -16.908 -25.056  0.00  0.00    +0.031 C 
ENDBRANCH  19  31
ENDBRANCH  18  19
ENDBRANCH   3  18
TORSDOF 6
ENDMDL
MODEL 5
REMARK VINA RESULT:     -10.3      3.593     10.291
REMARK  Name = 24878044
REMARK  6 active torsions:
REMARK  status: ('A' for Active; 'I' for Inactive)
REMARK    1  A    between atoms: N_2  and  C_6
REMARK    2  A    between atoms: C_3  and  C_18
REMARK    3  A    between atoms: C_7  and  S_12
REMARK    4  A    between atoms: S_12  and  N_15
REMARK    5  A    between atoms: C_18  and  S_19
REMARK    6  A    between atoms: S_19  and  C_31
REMARK                            x       y       z     vdW  Elec       q    Type
REMARK                         _______ _______ _______ _____ _____    ______ ____
ROOT
ATOM      1  O   UNL     1      33.749 -20.054 -20.860  0.00  0.00    -0.274 OA
ATOM      2  N   UNL     1      35.586 -19.101 -21.974  0.00  0.00    -0.283 N 
ATOM      3  C   UNL     1      34.917 -20.074 -21.239  0.00  0.00    +0.238 C 
ATOM      4  H   UNL     1      36.532 -19.283 -22.178  0.00  0.00    +0.155 HD
ENDROOT
BRANCH   2   6
ATOM      5 CL   UNL     1      34.548 -19.120 -24.839  0.00  0.00    -0.081 Cl
ATOM      6  C   UNL     1      35.063 -17.880 -22.463  0.00  0.00    +0.061 C 
ATOM      7  C   UNL     1      34.045 -15.445 -23.364  0.00  0.00    +0.123 C 
ATOM      8  C   UNL     1      34.560 -17.772 -23.759  0.00  0.00    +0.072 C 
ATOM      9  C   UNL     1      35.058 -16.770 -21.617  0.00  0.00    +0.017 C 
ATOM     10  C   UNL     1      34.051 -16.554 -24.210  0.00  0.00    +0.033 C 
ATOM     11  C   UNL     1      34.548 -15.553 -22.068  0.00  0.00    +0.021 C 
BRANCH   7  12
ATOM     12  S   UNL     1      33.408 -13.920 -23.928  0.00  0.00    +0.057 S 
ATOM     13  O   UNL     1      32.357 -13.495 -23.015  0.00  0.00    -0.153 OA
ATOM     14  O   UNL     1      34.525 -13.029 -24.212  0.00  0.00    -0.153 OA
BRANCH  12  15
ATOM     15  N   UNL     1      32.694 -14.393 -25.407  0.00  0.00    -0.203 NA
ATOM     16  H   UNL     1      31.756 -13.996 -25.473  0.00  0.00    +0.144 HD
ATOM     17  H   UNL     1      32.637 -15.410 -25.448  0.00  0.00    +0.144 HD
ENDBRANCH  12  15
ENDBRANCH   7  12
ENDBRANCH   2   6
BRANCH   3  18
ATOM     18  C   UNL     1      35.816 -21.244 -20.897  0.00  0.00    +0.152 C 
BRANCH  18  19
ATOM     19  S   UNL     1      36.099 -21.260 -19.113  0.00  0.00    -0.047 S 
BRANCH  19  31
ATOM     20  O   UNL     1      34.223 -23.035 -19.442  0.00  0.00    -0.262 OA
ATOM     21  N   UNL     1      34.931 -22.798 -17.214  0.00  0.00    -0.250 N 
ATOM     22  C   UNL     1      36.273 -23.822 -15.384  0.00  0.00    +0.027 C 
ATOM     23  C   UNL     1      35.084 -23.821 -14.447  0.00  0.00    +0.029 C 
ATOM     24  C   UNL     1      36.141 -22.677 -16.373  0.00  0.00    +0.099 C 
ATOM     25  C   UNL     1      33.789 -23.735 -15.212  0.00  0.00    -0.009 C 
ATOM     26  C   UNL     1      33.725 -23.237 -16.534  0.00  0.00    +0.051 C 
ATOM     27  C   UNL     1      32.616 -24.134 -14.544  0.00  0.00    -0.007 C 
ATOM     28  C   UNL     1      32.455 -23.144 -17.132  0.00  0.00    +0.014 C 
ATOM     29  C   UNL     1      31.378 -24.054 -15.170  0.00  0.00    -0.022 C 
ATOM     30  C   UNL     1      31.298 -23.554 -16.462  0.00  0.00    -0.003 C 
ATOM     31  C   UNL     1      34.942 -22.511 -18.599  0.00  0.00    +0.280 C 
ATOM     32  C   UNL     1      30.148 -24.516 -14.465  0.00  0.00    +0.031 C 
ENDBRANCH  19  31
ENDBRANCH  18  19
ENDBRANCH   3  18
TORSDOF 6
ENDMDL
MODEL 6
REMARK VINA RESULT:     -10.2      4.052      6.239
REMARK  Name = 24878044
REMARK  6 active torsions:
REMARK  status: ('A' for Active; 'I' for Inactive)
REMARK    1  A    between atoms: N_2  and  C_6
REMARK    2  A    between atoms: C_3  and  C_18
REMARK    3  A    between atoms: C_7  and  S_12
REMARK    4  A    between atoms: S_12  and  N_15
REMARK    5  A    between atoms: C_18  and  S_19
REMARK    6  A    between atoms: S_19  and  C_31
REMARK                            x       y       z     vdW  Elec       q    Type
REMARK                         _______ _______ _______ _____ _____    ______ ____
ROOT
ATOM      1  O   UNL     1      37.134 -20.454 -18.089  0.00  0.00    -0.274 OA
ATOM      2  N   UNL     1      35.876 -22.438 -18.162  0.00  0.00    -0.283 N 
ATOM      3  C   UNL     1      36.524 -21.330 -18.697  0.00  0.00    +0.238 C 
ATOM      4  H   UNL     1      35.424 -23.030 -18.805  0.00  0.00    +0.155 HD
ENDROOT
BRANCH   2   6
ATOM      5 CL   UNL     1      33.119 -23.241 -17.142  0.00  0.00    -0.081 Cl
ATOM      6  C   UNL     1      35.791 -22.811 -16.799  0.00  0.00    +0.061 C 
ATOM      7  C   UNL     1      35.695 -23.536 -14.107  0.00  0.00    +0.123 C 
ATOM      8  C   UNL     1      34.581 -23.197 -16.224  0.00  0.00    +0.072 C 
ATOM      9  C   UNL     1      36.954 -22.787 -16.028  0.00  0.00    +0.017 C 
ATOM     10  C   UNL     1      34.533 -23.560 -14.878  0.00  0.00    +0.033 C 
ATOM     11  C   UNL     1      36.906 -23.150 -14.682  0.00  0.00    +0.021 C 
BRANCH   7  12
ATOM     12  S   UNL     1      35.636 -23.990 -12.422  0.00  0.00    +0.057 S 
ATOM     13  O   UNL     1      36.708 -23.299 -11.722  0.00  0.00    -0.153 OA
ATOM     14  O   UNL     1      34.263 -23.857 -11.956  0.00  0.00    -0.153 OA
BRANCH  12  15
ATOM     15  N   UNL     1      36.023 -25.652 -12.519  0.00  0.00    -0.203 NA
ATOM     16  H   UNL     1      36.740 -25.792 -13.231  0.00  0.00    +0.144 HD
ATOM     17  H   UNL     1      35.188 -26.182 -12.767  0.00  0.00    +0.144 HD
ENDBRANCH  12  15
ENDBRANCH   7  12
ENDBRANCH   2   6
BRANCH   3  18
ATOM     18  C   UNL     1      36.392 -21.269 -20.204  0.00  0.00    +0.152 C 
BRANCH  18  19
ATOM     19  S   UNL     1      34.825 -20.474 -20.621  0.00  0.00    -0.047 S 
BRANCH  19  31
ATOM     20  O   UNL     1      36.279 -18.316 -20.740  0.00  0.00    -0.262 OA
ATOM     21  N   UNL     1      34.767 -18.547 -22.525  0.00  0.00    -0.250 N 
ATOM     22  C   UNL     1      34.536 -19.128 -24.935  0.00  0.00    +0.027 C 
ATOM     23  C   UNL     1      33.868 -17.803 -25.238  0.00  0.00    +0.029 C 
ATOM     24  C   UNL     1      34.242 -19.527 -23.499  0.00  0.00    +0.099 C 
ATOM     25  C   UNL     1      34.178 -16.782 -24.176  0.00  0.00    -0.009 C 
ATOM     26  C   UNL     1      34.601 -17.148 -22.877  0.00  0.00    +0.051 C 
ATOM     27  C   UNL     1      33.991 -15.427 -24.508  0.00  0.00    -0.007 C 
ATOM     28  C   UNL     1      34.804 -16.114 -21.944  0.00  0.00    +0.014 C 
ATOM     29  C   UNL     1      34.223 -14.425 -23.573  0.00  0.00    -0.022 C 
ATOM     30  C   UNL     1      34.626 -14.771 -22.290  0.00  0.00    -0.003 C 
ATOM     31  C   UNL     1      35.400 -18.942 -21.323  0.00  0.00    +0.280 C 
ATOM     32  C   UNL     1      34.057 -12.993 -23.949  0.00  0.00    +0.031 C 
ENDBRANCH  19  31
ENDBRANCH  18  19
ENDBRANCH   3  18
TORSDOF 6
ENDMDL
MODEL 7
REMARK VINA RESULT:     -10.2      4.113     10.902
REMARK  Name = 24878044
REMARK  6 active torsions:
REMARK  status: ('A' for Active; 'I' for Inactive)
REMARK    1  A    between atoms: N_2  and  C_6
REMARK    2  A    between atoms: C_3  and  C_18
REMARK    3  A    between atoms: C_7  and  S_12
REMARK    4  A    between atoms: S_12  and  N_15
REMARK    5  A    between atoms: C_18  and  S_19
REMARK    6  A    between atoms: S_19  and  C_31
REMARK                            x       y       z     vdW  Elec       q    Type
REMARK                         _______ _______ _______ _____ _____    ______ ____
ROOT
ATOM      1  O   UNL     1      33.693 -20.039 -20.916  0.00  0.00    -0.274 OA
ATOM      2  N   UNL     1      35.640 -18.916 -21.602  0.00  0.00    -0.283 N 
ATOM      3  C   UNL     1      34.914 -19.929 -20.986  0.00  0.00    +0.238 C 
ATOM      4  H   UNL     1      36.620 -18.987 -21.546  0.00  0.00    +0.155 HD
ENDROOT
BRANCH   2   6
ATOM      5 CL   UNL     1      34.781 -19.389 -24.487  0.00  0.00    -0.081 Cl
ATOM      6  C   UNL     1      35.131 -17.795 -22.301  0.00  0.00    +0.061 C 
ATOM      7  C   UNL     1      34.138 -15.546 -23.618  0.00  0.00    +0.123 C 
ATOM      8  C   UNL     1      34.708 -17.894 -23.625  0.00  0.00    +0.072 C 
ATOM      9  C   UNL     1      35.059 -16.571 -21.634  0.00  0.00    +0.017 C 
ATOM     10  C   UNL     1      34.211 -16.769 -24.284  0.00  0.00    +0.033 C 
ATOM     11  C   UNL     1      34.562 -15.446 -22.293  0.00  0.00    +0.021 C 
BRANCH   7  12
ATOM     12  S   UNL     1      33.517 -14.138 -24.443  0.00  0.00    +0.057 S 
ATOM     13  O   UNL     1      34.512 -13.079 -24.359  0.00  0.00    -0.153 OA
ATOM     14  O   UNL     1      33.006 -14.551 -25.743  0.00  0.00    -0.153 OA
BRANCH  12  15
ATOM     15  N   UNL     1      32.194 -13.731 -23.439  0.00  0.00    -0.203 NA
ATOM     16  H   UNL     1      31.894 -14.557 -22.922  0.00  0.00    +0.144 HD
ATOM     17  H   UNL     1      31.423 -13.390 -24.013  0.00  0.00    +0.144 HD
ENDBRANCH  12  15
ENDBRANCH   7  12
ENDBRANCH   2   6
BRANCH   3  18
ATOM     18  C   UNL     1      35.816 -20.960 -20.340  0.00  0.00    +0.152 C 
BRANCH  18  19
ATOM     19  S   UNL     1      34.790 -22.183 -19.495  0.00  0.00    -0.047 S 
BRANCH  19  31
ATOM     20  O   UNL     1      36.502 -21.467 -17.666  0.00  0.00    -0.262 OA
ATOM     21  N   UNL     1      34.879 -22.989 -16.909  0.00  0.00    -0.250 N 
ATOM     22  C   UNL     1      32.795 -23.245 -15.571  0.00  0.00    +0.027 C 
ATOM     23  C   UNL     1      33.430 -24.306 -14.697  0.00  0.00    +0.029 C 
ATOM     24  C   UNL     1      33.429 -23.276 -16.951  0.00  0.00    +0.099 C 
ATOM     25  C   UNL     1      34.933 -24.227 -14.752  0.00  0.00    -0.009 C 
ATOM     26  C   UNL     1      35.617 -23.600 -15.819  0.00  0.00    +0.051 C 
ATOM     27  C   UNL     1      35.651 -24.844 -13.710  0.00  0.00    -0.007 C 
ATOM     28  C   UNL     1      37.024 -23.638 -15.800  0.00  0.00    +0.014 C 
ATOM     29  C   UNL     1      37.041 -24.843 -13.705  0.00  0.00    -0.022 C 
ATOM     30  C   UNL     1      37.726 -24.244 -14.753  0.00  0.00    -0.003 C 
ATOM     31  C   UNL     1      35.512 -22.163 -17.867  0.00  0.00    +0.280 C 
ATOM     32  C   UNL     1      37.788 -25.467 -12.577  0.00  0.00    +0.031 C 
ENDBRANCH  19  31
ENDBRANCH  18  19
ENDBRANCH   3  18
TORSDOF 6
ENDMDL
MODEL 8
REMARK VINA RESULT:     -10.0      3.317      4.921
REMARK  Name = 24878044
REMARK  6 active torsions:
REMARK  status: ('A' for Active; 'I' for Inactive)
REMARK    1  A    between atoms: N_2  and  C_6
REMARK    2  A    between atoms: C_3  and  C_18
REMARK    3  A    between atoms: C_7  and  S_12
REMARK    4  A    between atoms: S_12  and  N_15
REMARK    5  A    between atoms: C_18  and  S_19
REMARK    6  A    between atoms: S_19  and  C_31
REMARK                            x       y       z     vdW  Elec       q    Type
REMARK                         _______ _______ _______ _____ _____    ______ ____
ROOT
ATOM      1  O   UNL     1      36.399 -19.938 -20.342  0.00  0.00    -0.274 OA
ATOM      2  N   UNL     1      34.721 -21.454 -19.706  0.00  0.00    -0.283 N 
ATOM      3  C   UNL     1      35.316 -20.492 -20.513  0.00  0.00    +0.238 C 
ATOM      4  H   UNL     1      33.837 -21.778 -19.994  0.00  0.00    +0.155 HD
ENDROOT
BRANCH   2   6
ATOM      5 CL   UNL     1      32.776 -23.084 -18.018  0.00  0.00    -0.081 Cl
ATOM      6  C   UNL     1      35.239 -22.022 -18.517  0.00  0.00    +0.061 C 
ATOM      7  C   UNL     1      36.325 -23.114 -16.191  0.00  0.00    +0.123 C 
ATOM      8  C   UNL     1      34.441 -22.787 -17.668  0.00  0.00    +0.072 C 
ATOM      9  C   UNL     1      36.581 -21.802 -18.203  0.00  0.00    +0.017 C 
ATOM     10  C   UNL     1      34.984 -23.333 -16.505  0.00  0.00    +0.033 C 
ATOM     11  C   UNL     1      37.124 -22.348 -17.040  0.00  0.00    +0.021 C 
BRANCH   7  12
ATOM     12  S   UNL     1      37.005 -23.797 -14.735  0.00  0.00    +0.057 S 
ATOM     13  O   UNL     1      37.239 -22.717 -13.787  0.00  0.00    -0.153 OA
ATOM     14  O   UNL     1      36.198 -24.944 -14.342  0.00  0.00    -0.153 OA
BRANCH  12  15
ATOM     15  N   UNL     1      38.512 -24.359 -15.313  0.00  0.00    -0.203 NA
ATOM     16  H   UNL     1      39.265 -23.895 -14.804  0.00  0.00    +0.144 HD
ATOM     17  H   UNL     1      38.595 -24.151 -16.308  0.00  0.00    +0.144 HD
ENDBRANCH  12  15
ENDBRANCH   7  12
ENDBRANCH   2   6
BRANCH   3  18
ATOM     18  C   UNL     1      34.451 -20.135 -21.703  0.00  0.00    +0.152 C 
BRANCH  18  19
ATOM     19  S   UNL     1      35.476 -19.322 -22.948  0.00  0.00    -0.047 S 
BRANCH  19  31
ATOM     20  O   UNL     1      33.517 -18.414 -24.404  0.00  0.00    -0.262 OA
ATOM     21  N   UNL     1      34.516 -16.790 -23.029  0.00  0.00    -0.250 N 
ATOM     22  C   UNL     1      34.259 -15.446 -20.950  0.00  0.00    +0.027 C 
ATOM     23  C   UNL     1      34.443 -14.149 -21.709  0.00  0.00    +0.029 C 
ATOM     24  C   UNL     1      35.013 -16.559 -21.656  0.00  0.00    +0.099 C 
ATOM     25  C   UNL     1      34.157 -14.332 -23.176  0.00  0.00    -0.009 C 
ATOM     26  C   UNL     1      34.202 -15.600 -23.800  0.00  0.00    +0.051 C 
ATOM     27  C   UNL     1      33.880 -13.177 -23.931  0.00  0.00    -0.007 C 
ATOM     28  C   UNL     1      33.979 -15.649 -25.189  0.00  0.00    +0.014 C 
ATOM     29  C   UNL     1      33.639 -13.259 -25.297  0.00  0.00    -0.022 C 
ATOM     30  C   UNL     1      33.693 -14.495 -25.925  0.00  0.00    -0.003 C 
ATOM     31  C   UNL     1      34.349 -18.089 -23.562  0.00  0.00    +0.280 C 
ATOM     32  C   UNL     1      33.310 -12.032 -26.076  0.00  0.00    +0.031 C 
ENDBRANCH  19  31
ENDBRANCH  18  19
ENDBRANCH   3  18
TORSDOF 6
ENDMDL
MODEL 9
REMARK VINA RESULT:     -10.0      4.155      6.251
REMARK  Name = 24878044
REMARK  6 active torsions:
REMARK  status: ('A' for Active; 'I' for Inactive)
REMARK    1  A    between atoms: N_2  and  C_6
REMARK    2  A    between atoms: C_3  and  C_18
REMARK    3  A    between atoms: C_7  and  S_12
REMARK    4  A    between atoms: S_12  and  N_15
REMARK    5  A    between atoms: C_18  and  S_19
REMARK    6  A    between atoms: S_19  and  C_31
REMARK                            x       y       z     vdW  Elec       q    Type
REMARK                         _______ _______ _______ _____ _____    ______ ____
ROOT
ATOM      1  O   UNL     1      31.537 -13.662 -20.663  0.00  0.00    -0.274 OA
ATOM      2  N   UNL     1      33.094 -13.341 -22.394  0.00  0.00    -0.283 N 
ATOM      3  C   UNL     1      32.074 -12.971 -21.525  0.00  0.00    +0.238 C 
ATOM      4  H   UNL     1      33.393 -12.654 -23.032  0.00  0.00    +0.155 HD
ENDROOT
BRANCH   2   6
ATOM      5 CL   UNL     1      33.484 -14.511 -25.181  0.00  0.00    -0.081 Cl
ATOM      6  C   UNL     1      33.751 -14.593 -22.467  0.00  0.00    +0.061 C 
ATOM      7  C   UNL     1      35.053 -17.059 -22.539  0.00  0.00    +0.123 C 
ATOM      8  C   UNL     1      33.984 -15.222 -23.689  0.00  0.00    +0.072 C 
ATOM      9  C   UNL     1      34.169 -15.197 -21.280  0.00  0.00    +0.017 C 
ATOM     10  C   UNL     1      34.636 -16.455 -23.725  0.00  0.00    +0.033 C 
ATOM     11  C   UNL     1      34.820 -16.429 -21.316  0.00  0.00    +0.021 C 
BRANCH   7  12
ATOM     12  S   UNL     1      35.869 -18.602 -22.583  0.00  0.00    +0.057 S 
ATOM     13  O   UNL     1      35.332 -19.374 -23.695  0.00  0.00    -0.153 OA
ATOM     14  O   UNL     1      37.303 -18.370 -22.489  0.00  0.00    -0.153 OA
BRANCH  12  15
ATOM     15  N   UNL     1      35.328 -19.297 -21.119  0.00  0.00    -0.203 NA
ATOM     16  H   UNL     1      34.312 -19.220 -21.060  0.00  0.00    +0.144 HD
ATOM     17  H   UNL     1      35.753 -18.807 -20.332  0.00  0.00    +0.144 HD
ENDBRANCH  12  15
ENDBRANCH   7  12
ENDBRANCH   2   6
BRANCH   3  18
ATOM     18  C   UNL     1      31.627 -11.543 -21.752  0.00  0.00    +0.152 C 
BRANCH  18  19
ATOM     19  S   UNL     1      32.609 -10.830 -23.090  0.00  0.00    -0.047 S 
BRANCH  19  31
ATOM     20  O   UNL     1      31.504  -8.744 -21.988  0.00  0.00    -0.262 OA
ATOM     21  N   UNL     1      33.106  -8.220 -23.626  0.00  0.00    -0.250 N 
ATOM     22  C   UNL     1      35.426  -7.408 -24.019  0.00  0.00    +0.027 C 
ATOM     23  C   UNL     1      34.933  -6.281 -24.901  0.00  0.00    +0.029 C 
ATOM     24  C   UNL     1      34.460  -8.578 -24.100  0.00  0.00    +0.099 C 
ATOM     25  C   UNL     1      33.482  -5.978 -24.635  0.00  0.00    -0.009 C 
ATOM     26  C   UNL     1      32.613  -6.916 -24.031  0.00  0.00    +0.051 C 
ATOM     27  C   UNL     1      32.996  -4.724 -25.052  0.00  0.00    -0.007 C 
ATOM     28  C   UNL     1      31.262  -6.550 -23.885  0.00  0.00    +0.014 C 
ATOM     29  C   UNL     1      31.662  -4.381 -24.873  0.00  0.00    -0.022 C 
ATOM     30  C   UNL     1      30.795  -5.297 -24.294  0.00  0.00    -0.003 C 
ATOM     31  C   UNL     1      32.334  -9.091 -22.822  0.00  0.00    +0.280 C 
ATOM     32  C   UNL     1      31.170  -3.036 -25.285  0.00  0.00    +0.031 C 
ENDBRANCH  19  31
ENDBRANCH  18  19
ENDBRANCH   3  18
TORSDOF 6
ENDMDL
