MODEL 1
REMARK VINA RESULT:     -11.5      0.000      0.000
REMARK  Name = 46937052
REMARK  7 active torsions:
REMARK  status: ('A' for Active; 'I' for Inactive)
REMARK    1  A    between atoms: O_1  and  C_3
REMARK    2  A    between atoms: O_1  and  C_17
REMARK    3  A    between atoms: C_4  and  C_11
REMARK    4  A    between atoms: C_17  and  C_18
REMARK    5  A    between atoms: C_18  and  N_19
REMARK    6  A    between atoms: C_18  and  C_23
REMARK    7  A    between atoms: C_23  and  C_25
REMARK                            x       y       z     vdW  Elec       q    Type
REMARK                         _______ _______ _______ _____ _____    ______ ____
ROOT
ATOM      1  O   UNL     1      35.746 -22.772 -18.250  0.00  0.00    -0.476 OA
ENDROOT
BRANCH   1   3
ATOM      2  N   UNL     1      32.479 -21.887 -19.637  0.00  0.00    -0.239 NA
ATOM      3  C   UNL     1      34.799 -22.127 -19.002  0.00  0.00    +0.158 C 
ATOM      4  C   UNL     1      34.168 -20.461 -20.618  0.00  0.00    +0.039 C 
ATOM      5  C   UNL     1      35.150 -21.098 -19.868  0.00  0.00    +0.042 C 
ATOM      6  C   UNL     1      33.462 -22.481 -18.924  0.00  0.00    +0.136 C 
ATOM      7  C   UNL     1      32.858 -20.890 -20.468  0.00  0.00    +0.101 C 
BRANCH   4  11
ATOM      8  N   UNL     1      35.278 -18.413 -21.130  0.00  0.00    -0.264 NA
ATOM      9  N   UNL     1      35.246 -16.529 -24.322  0.00  0.00    -0.150 NA
ATOM     10  N   UNL     1      34.472 -17.021 -25.461  0.00  0.00    -0.147 NA
ATOM     11  C   UNL     1      34.510 -19.357 -21.554  0.00  0.00    +0.078 C 
ATOM     12  C   UNL     1      34.222 -18.464 -23.734  0.00  0.00    +0.040 C 
ATOM     13  C   UNL     1      35.084 -17.376 -23.342  0.00  0.00    +0.107 C 
ATOM     14  C   UNL     1      35.670 -17.288 -21.982  0.00  0.00    +0.173 C 
ATOM     15  C   UNL     1      33.903 -19.450 -22.912  0.00  0.00    +0.022 C 
ATOM     16  C   UNL     1      33.892 -18.129 -25.100  0.00  0.00    +0.123 C 
ENDBRANCH   4  11
ENDBRANCH   1   3
BRANCH   1  17
ATOM     17  C   UNL     1      35.785 -22.460 -16.863  0.00  0.00    +0.184 C 
BRANCH  17  18
ATOM     18  C   UNL     1      34.980 -23.489 -16.060  0.00  0.00    -0.017 C 
BRANCH  18  19
ATOM     19  N   UNL     1      35.921 -24.326 -15.311  0.00  0.00    +0.384 N 
ATOM     20  H   UNL     1      35.633 -24.369 -14.333  0.00  0.00    -0.089 HD
ATOM     21  H   UNL     1      36.857 -23.925 -15.373  0.00  0.00    -0.089 HD
ATOM     22  H   UNL     1      35.926 -25.267 -15.705  0.00  0.00    -0.089 HD
ENDBRANCH  18  19
BRANCH  18  23
ATOM     23  C   UNL     1      33.981 -22.840 -15.070  0.00  0.00    +0.010 C 
BRANCH  23  25
ATOM     24  N   UNL     1      31.662 -25.339 -13.537  0.00  0.00    -0.244 NA
ATOM     25  C   UNL     1      32.809 -23.672 -14.742  0.00  0.00    -0.004 C 
ATOM     26  C   UNL     1      31.562 -23.763 -15.218  0.00  0.00    +0.011 C 
ATOM     27  C   UNL     1      30.845 -24.785 -14.484  0.00  0.00    +0.080 C 
ATOM     28  C   UNL     1      32.782 -24.699 -13.689  0.00  0.00    +0.094 C 
ATOM     29  C   UNL     1      30.940 -23.012 -16.279  0.00  0.00    -0.020 C 
ATOM     30  C   UNL     1      29.568 -25.069 -14.772  0.00  0.00    +0.015 C 
ATOM     31  C   UNL     1      28.831 -24.333 -15.873  0.00  0.00    -0.020 C 
ATOM     32  C   UNL     1      29.658 -23.279 -16.587  0.00  0.00    +0.052 C 
ENDBRANCH  23  25
ENDBRANCH  18  23
ENDBRANCH  17  18
ENDBRANCH   1  17
TORSDOF 7
ENDMDL
MODEL 2
REMARK VINA RESULT:     -11.4      5.432     12.270
REMARK  Name = 46937052
REMARK  7 active torsions:
REMARK  status: ('A' for Active; 'I' for Inactive)
REMARK    1  A    between atoms: O_1  and  C_3
REMARK    2  A    between atoms: O_1  and  C_17
REMARK    3  A    between atoms: C_4  and  C_11
REMARK    4  A    between atoms: C_17  and  C_18
REMARK    5  A    between atoms: C_18  and  N_19
REMARK    6  A    between atoms: C_18  and  C_23
REMARK    7  A    between atoms: C_23  and  C_25
REMARK                            x       y       z     vdW  Elec       q    Type
REMARK                         _______ _______ _______ _____ _____    ______ ____
ROOT
ATOM      1  O   UNL     1      35.223 -15.218 -23.428  0.00  0.00    -0.476 OA
ENDROOT
BRANCH   1   3
ATOM      2  N   UNL     1      34.090 -18.378 -24.884  0.00  0.00    -0.239 NA
ATOM      3  C   UNL     1      34.925 -16.552 -23.537  0.00  0.00    +0.158 C 
ATOM      4  C   UNL     1      34.823 -18.770 -22.614  0.00  0.00    +0.039 C 
ATOM      5  C   UNL     1      35.133 -17.422 -22.474  0.00  0.00    +0.042 C 
ATOM      6  C   UNL     1      34.406 -17.074 -24.711  0.00  0.00    +0.136 C 
ATOM      7  C   UNL     1      34.308 -19.194 -23.829  0.00  0.00    +0.101 C 
BRANCH   4  11
ATOM      8  N   UNL     1      36.227 -19.869 -21.029  0.00  0.00    -0.264 NA
ATOM      9  N   UNL     1      35.269 -22.384 -18.480  0.00  0.00    -0.150 NA
ATOM     10  N   UNL     1      33.879 -22.827 -18.367  0.00  0.00    -0.147 NA
ATOM     11  C   UNL     1      35.034 -19.728 -21.495  0.00  0.00    +0.078 C 
ATOM     12  C   UNL     1      34.021 -21.297 -20.030  0.00  0.00    +0.040 C 
ATOM     13  C   UNL     1      35.323 -21.505 -19.444  0.00  0.00    +0.107 C 
ATOM     14  C   UNL     1      36.528 -20.787 -19.928  0.00  0.00    +0.173 C 
ATOM     15  C   UNL     1      33.819 -20.453 -21.029  0.00  0.00    +0.022 C 
ATOM     16  C   UNL     1      33.184 -22.193 -19.268  0.00  0.00    +0.123 C 
ENDBRANCH   4  11
ENDBRANCH   1   3
BRANCH   1  17
ATOM     17  C   UNL     1      34.150 -14.347 -23.095  0.00  0.00    +0.184 C 
BRANCH  17  18
ATOM     18  C   UNL     1      33.844 -13.403 -24.263  0.00  0.00    -0.017 C 
BRANCH  18  19
ATOM     19  N   UNL     1      32.809 -14.022 -25.096  0.00  0.00    +0.384 N 
ATOM     20  H   UNL     1      31.949 -14.114 -24.555  0.00  0.00    -0.089 HD
ATOM     21  H   UNL     1      33.122 -14.945 -25.397  0.00  0.00    -0.089 HD
ATOM     22  H   UNL     1      32.636 -13.437 -25.913  0.00  0.00    -0.089 HD
ENDBRANCH  18  19
BRANCH  18  23
ATOM     23  C   UNL     1      33.356 -12.006 -23.804  0.00  0.00    +0.010 C 
BRANCH  23  25
ATOM     24  N   UNL     1      35.274  -9.886 -26.213  0.00  0.00    -0.244 NA
ATOM     25  C   UNL     1      33.981 -10.872 -24.509  0.00  0.00    -0.004 C 
ATOM     26  C   UNL     1      34.010  -9.549 -24.313  0.00  0.00    +0.011 C 
ATOM     27  C   UNL     1      34.803  -8.930 -25.355  0.00  0.00    +0.080 C 
ATOM     28  C   UNL     1      34.801 -10.994 -25.725  0.00  0.00    +0.094 C 
ATOM     29  C   UNL     1      33.388  -8.773 -23.270  0.00  0.00    -0.020 C 
ATOM     30  C   UNL     1      34.986  -7.604 -25.383  0.00  0.00    +0.015 C 
ATOM     31  C   UNL     1      34.372  -6.706 -24.327  0.00  0.00    -0.020 C 
ATOM     32  C   UNL     1      33.558  -7.439 -23.276  0.00  0.00    +0.052 C 
ENDBRANCH  23  25
ENDBRANCH  18  23
ENDBRANCH  17  18
ENDBRANCH   1  17
TORSDOF 7
ENDMDL
MODEL 3
REMARK VINA RESULT:     -11.4      5.965     11.687
REMARK  Name = 46937052
REMARK  7 active torsions:
REMARK  status: ('A' for Active; 'I' for Inactive)
REMARK    1  A    between atoms: O_1  and  C_3
REMARK    2  A    between atoms: O_1  and  C_17
REMARK    3  A    between atoms: C_4  and  C_11
REMARK    4  A    between atoms: C_17  and  C_18
REMARK    5  A    between atoms: C_18  and  N_19
REMARK    6  A    between atoms: C_18  and  C_23
REMARK    7  A    between atoms: C_23  and  C_25
REMARK                            x       y       z     vdW  Elec       q    Type
REMARK                         _______ _______ _______ _____ _____    ______ ____
ROOT
ATOM      1  O   UNL     1      34.188 -13.433 -23.727  0.00  0.00    -0.476 OA
ENDROOT
BRANCH   1   3
ATOM      2  N   UNL     1      33.761 -16.541 -25.609  0.00  0.00    -0.239 NA
ATOM      3  C   UNL     1      34.213 -14.770 -24.026  0.00  0.00    +0.158 C 
ATOM      4  C   UNL     1      34.707 -17.051 -23.443  0.00  0.00    +0.039 C 
ATOM      5  C   UNL     1      34.692 -15.700 -23.111  0.00  0.00    +0.042 C 
ATOM      6  C   UNL     1      33.763 -15.237 -25.251  0.00  0.00    +0.136 C 
ATOM      7  C   UNL     1      34.234 -17.416 -24.693  0.00  0.00    +0.101 C 
BRANCH   4  11
ATOM      8  N   UNL     1      36.469 -18.075 -22.203  0.00  0.00    -0.264 NA
ATOM      9  N   UNL     1      36.256 -20.948 -19.871  0.00  0.00    -0.150 NA
ATOM     10  N   UNL     1      34.973 -21.607 -19.629  0.00  0.00    -0.147 NA
ATOM     11  C   UNL     1      35.212 -18.072 -22.485  0.00  0.00    +0.078 C 
ATOM     12  C   UNL     1      34.654 -19.915 -21.099  0.00  0.00    +0.040 C 
ATOM     13  C   UNL     1      36.045 -19.979 -20.721  0.00  0.00    +0.107 C 
ATOM     14  C   UNL     1      37.054 -19.041 -21.271  0.00  0.00    +0.173 C 
ATOM     15  C   UNL     1      34.191 -19.017 -21.952  0.00  0.00    +0.022 C 
ATOM     16  C   UNL     1      34.071 -21.000 -20.345  0.00  0.00    +0.123 C 
ENDBRANCH   4  11
ENDBRANCH   1   3
BRANCH   1  17
ATOM     17  C   UNL     1      33.751 -12.554 -24.755  0.00  0.00    +0.184 C 
BRANCH  17  18
ATOM     18  C   UNL     1      34.189 -11.115 -24.452  0.00  0.00    -0.017 C 
BRANCH  18  19
ATOM     19  N   UNL     1      35.206 -10.728 -25.433  0.00  0.00    +0.384 N 
ATOM     20  H   UNL     1      35.051  -9.761 -25.720  0.00  0.00    -0.089 HD
ATOM     21  H   UNL     1      35.143 -11.339 -26.248  0.00  0.00    -0.089 HD
ATOM     22  H   UNL     1      36.132 -10.814 -25.014  0.00  0.00    -0.089 HD
ENDBRANCH  18  19
BRANCH  18  23
ATOM     23  C   UNL     1      33.020 -10.100 -24.508  0.00  0.00    +0.010 C 
BRANCH  23  25
ATOM     24  N   UNL     1      32.785  -7.638 -21.705  0.00  0.00    -0.244 NA
ATOM     25  C   UNL     1      32.721  -9.434 -23.227  0.00  0.00    -0.004 C 
ATOM     26  C   UNL     1      32.069  -9.792 -22.115  0.00  0.00    +0.011 C 
ATOM     27  C   UNL     1      32.101  -8.695 -21.170  0.00  0.00    +0.080 C 
ATOM     28  C   UNL     1      33.137  -8.066 -22.880  0.00  0.00    +0.094 C 
ATOM     29  C   UNL     1      31.410 -11.037 -21.811  0.00  0.00    -0.020 C 
ATOM     30  C   UNL     1      31.514  -8.804 -19.971  0.00  0.00    +0.015 C 
ATOM     31  C   UNL     1      30.798 -10.076 -19.562  0.00  0.00    -0.020 C 
ATOM     32  C   UNL     1      30.813 -11.171 -20.614  0.00  0.00    +0.052 C 
ENDBRANCH  23  25
ENDBRANCH  18  23
ENDBRANCH  17  18
ENDBRANCH   1  17
TORSDOF 7
ENDMDL
MODEL 4
REMARK VINA RESULT:     -11.3      5.477     10.993
REMARK  Name = 46937052
REMARK  7 active torsions:
REMARK  status: ('A' for Active; 'I' for Inactive)
REMARK    1  A    between atoms: O_1  and  C_3
REMARK    2  A    between atoms: O_1  and  C_17
REMARK    3  A    between atoms: C_4  and  C_11
REMARK    4  A    between atoms: C_17  and  C_18
REMARK    5  A    between atoms: C_18  and  N_19
REMARK    6  A    between atoms: C_18  and  C_23
REMARK    7  A    between atoms: C_23  and  C_25
REMARK                            x       y       z     vdW  Elec       q    Type
REMARK                         _______ _______ _______ _____ _____    ______ ____
ROOT
ATOM      1  O   UNL     1      34.922 -15.003 -23.269  0.00  0.00    -0.476 OA
ENDROOT
BRANCH   1   3
ATOM      2  N   UNL     1      34.182 -18.182 -24.921  0.00  0.00    -0.239 NA
ATOM      3  C   UNL     1      34.758 -16.352 -23.451  0.00  0.00    +0.158 C 
ATOM      4  C   UNL     1      34.810 -18.610 -22.626  0.00  0.00    +0.039 C 
ATOM      5  C   UNL     1      34.983 -17.248 -22.412  0.00  0.00    +0.042 C 
ATOM      6  C   UNL     1      34.363 -16.865 -24.675  0.00  0.00    +0.136 C 
ATOM      7  C   UNL     1      34.411 -19.023 -23.888  0.00  0.00    +0.101 C 
BRANCH   4  11
ATOM      8  N   UNL     1      36.240 -19.735 -21.084  0.00  0.00    -0.264 NA
ATOM      9  N   UNL     1      35.334 -22.328 -18.595  0.00  0.00    -0.150 NA
ATOM     10  N   UNL     1      33.951 -22.790 -18.482  0.00  0.00    -0.147 NA
ATOM     11  C   UNL     1      35.042 -19.595 -21.535  0.00  0.00    +0.078 C 
ATOM     12  C   UNL     1      34.061 -21.214 -20.104  0.00  0.00    +0.040 C 
ATOM     13  C   UNL     1      35.370 -21.423 -19.536  0.00  0.00    +0.107 C 
ATOM     14  C   UNL     1      36.562 -20.678 -20.011  0.00  0.00    +0.173 C 
ATOM     15  C   UNL     1      33.839 -20.347 -21.078  0.00  0.00    +0.022 C 
ATOM     16  C   UNL     1      33.241 -22.140 -19.358  0.00  0.00    +0.123 C 
ENDBRANCH   4  11
ENDBRANCH   1   3
BRANCH   1  17
ATOM     17  C   UNL     1      34.067 -14.375 -22.323  0.00  0.00    +0.184 C 
BRANCH  17  18
ATOM     18  C   UNL     1      33.384 -13.152 -22.948  0.00  0.00    -0.017 C 
BRANCH  18  19
ATOM     19  N   UNL     1      33.294 -13.365 -24.395  0.00  0.00    +0.384 N 
ATOM     20  H   UNL     1      33.575 -14.320 -24.616  0.00  0.00    -0.089 HD
ATOM     21  H   UNL     1      33.911 -12.709 -24.874  0.00  0.00    -0.089 HD
ATOM     22  H   UNL     1      32.333 -13.215 -24.701  0.00  0.00    -0.089 HD
ENDBRANCH  18  19
BRANCH  18  23
ATOM     23  C   UNL     1      31.963 -12.897 -22.385  0.00  0.00    +0.010 C 
BRANCH  23  25
ATOM     24  N   UNL     1      31.495 -10.414 -19.630  0.00  0.00    -0.244 NA
ATOM     25  C   UNL     1      31.824 -11.654 -21.605  0.00  0.00    -0.004 C 
ATOM     26  C   UNL     1      31.856 -10.350 -21.907  0.00  0.00    +0.011 C 
ATOM     27  C   UNL     1      31.655  -9.576 -20.699  0.00  0.00    +0.080 C 
ATOM     28  C   UNL     1      31.592 -11.599 -20.153  0.00  0.00    +0.094 C 
ATOM     29  C   UNL     1      32.054  -9.721 -23.188  0.00  0.00    -0.020 C 
ATOM     30  C   UNL     1      31.645  -8.238 -20.735  0.00  0.00    +0.015 C 
ATOM     31  C   UNL     1      31.843  -7.488 -22.037  0.00  0.00    -0.020 C 
ATOM     32  C   UNL     1      32.048  -8.377 -23.250  0.00  0.00    +0.052 C 
ENDBRANCH  23  25
ENDBRANCH  18  23
ENDBRANCH  17  18
ENDBRANCH   1  17
TORSDOF 7
ENDMDL
MODEL 5
REMARK VINA RESULT:     -11.3      2.279     10.044
REMARK  Name = 46937052
REMARK  7 active torsions:
REMARK  status: ('A' for Active; 'I' for Inactive)
REMARK    1  A    between atoms: O_1  and  C_3
REMARK    2  A    between atoms: O_1  and  C_17
REMARK    3  A    between atoms: C_4  and  C_11
REMARK    4  A    between atoms: C_17  and  C_18
REMARK    5  A    between atoms: C_18  and  N_19
REMARK    6  A    between atoms: C_18  and  C_23
REMARK    7  A    between atoms: C_23  and  C_25
REMARK                            x       y       z     vdW  Elec       q    Type
REMARK                         _______ _______ _______ _____ _____    ______ ____
ROOT
ATOM      1  O   UNL     1      35.299 -20.835 -20.784  0.00  0.00    -0.476 OA
ENDROOT
BRANCH   1   3
ATOM      2  N   UNL     1      32.517 -22.422 -19.017  0.00  0.00    -0.239 NA
ATOM      3  C   UNL     1      34.611 -21.512 -19.811  0.00  0.00    +0.158 C 
ATOM      4  C   UNL     1      34.529 -22.654 -17.696  0.00  0.00    +0.039 C 
ATOM      5  C   UNL     1      35.252 -21.970 -18.665  0.00  0.00    +0.042 C 
ATOM      6  C   UNL     1      33.254 -21.762 -19.938  0.00  0.00    +0.136 C 
ATOM      7  C   UNL     1      33.175 -22.853 -17.917  0.00  0.00    +0.101 C 
BRANCH   4  11
ATOM      8  N   UNL     1      36.471 -23.234 -16.438  0.00  0.00    -0.264 NA
ATOM      9  N   UNL     1      36.648 -24.548 -12.976  0.00  0.00    -0.150 NA
ATOM     10  N   UNL     1      35.422 -24.783 -12.214  0.00  0.00    -0.147 NA
ATOM     11  C   UNL     1      35.185 -23.156 -16.459  0.00  0.00    +0.078 C 
ATOM     12  C   UNL     1      34.864 -23.981 -14.256  0.00  0.00    +0.040 C 
ATOM     13  C   UNL     1      36.299 -24.088 -14.148  0.00  0.00    +0.107 C 
ATOM     14  C   UNL     1      37.202 -23.714 -15.264  0.00  0.00    +0.173 C 
ATOM     15  C   UNL     1      34.266 -23.542 -15.351  0.00  0.00    +0.022 C 
ATOM     16  C   UNL     1      34.414 -24.454 -12.968  0.00  0.00    +0.123 C 
ENDBRANCH   4  11
ENDBRANCH   1   3
BRANCH   1  17
ATOM     17  C   UNL     1      34.569 -19.874 -21.535  0.00  0.00    +0.184 C 
BRANCH  17  18
ATOM     18  C   UNL     1      35.363 -18.566 -21.646  0.00  0.00    -0.017 C 
BRANCH  18  19
ATOM     19  N   UNL     1      36.567 -18.687 -20.820  0.00  0.00    +0.384 N 
ATOM     20  H   UNL     1      36.360 -19.255 -19.999  0.00  0.00    -0.089 HD
ATOM     21  H   UNL     1      36.871 -17.759 -20.524  0.00  0.00    -0.089 HD
ATOM     22  H   UNL     1      37.308 -19.131 -21.363  0.00  0.00    -0.089 HD
ENDBRANCH  18  19
BRANCH  18  23
ATOM     23  C   UNL     1      35.778 -18.230 -23.100  0.00  0.00    +0.010 C 
BRANCH  23  25
ATOM     24  N   UNL     1      33.778 -16.213 -25.531  0.00  0.00    -0.244 NA
ATOM     25  C   UNL     1      34.971 -17.177 -23.743  0.00  0.00    -0.004 C 
ATOM     26  C   UNL     1      34.488 -15.993 -23.347  0.00  0.00    +0.011 C 
ATOM     27  C   UNL     1      33.751 -15.390 -24.438  0.00  0.00    +0.080 C 
ATOM     28  C   UNL     1      34.476 -17.232 -25.128  0.00  0.00    +0.094 C 
ATOM     29  C   UNL     1      34.622 -15.342 -22.069  0.00  0.00    -0.020 C 
ATOM     30  C   UNL     1      33.166 -14.194 -24.294  0.00  0.00    +0.015 C 
ATOM     31  C   UNL     1      33.254 -13.432 -22.986  0.00  0.00    -0.020 C 
ATOM     32  C   UNL     1      34.043 -14.139 -21.899  0.00  0.00    +0.052 C 
ENDBRANCH  23  25
ENDBRANCH  18  23
ENDBRANCH  17  18
ENDBRANCH   1  17
TORSDOF 7
ENDMDL
MODEL 6
REMARK VINA RESULT:     -11.3      2.037      4.037
REMARK  Name = 46937052
REMARK  7 active torsions:
REMARK  status: ('A' for Active; 'I' for Inactive)
REMARK    1  A    between atoms: O_1  and  C_3
REMARK    2  A    between atoms: O_1  and  C_17
REMARK    3  A    between atoms: C_4  and  C_11
REMARK    4  A    between atoms: C_17  and  C_18
REMARK    5  A    between atoms: C_18  and  N_19
REMARK    6  A    between atoms: C_18  and  C_23
REMARK    7  A    between atoms: C_23  and  C_25
REMARK                            x       y       z     vdW  Elec       q    Type
REMARK                         _______ _______ _______ _____ _____    ______ ____
ROOT
ATOM      1  O   UNL     1      32.774 -22.604 -18.998  0.00  0.00    -0.476 OA
ENDROOT
BRANCH   1   3
ATOM      2  N   UNL     1      36.294 -21.712 -19.441  0.00  0.00    -0.239 NA
ATOM      3  C   UNL     1      33.887 -21.937 -19.439  0.00  0.00    +0.158 C 
ATOM      4  C   UNL     1      34.925 -20.194 -20.731  0.00  0.00    +0.039 C 
ATOM      5  C   UNL     1      33.778 -20.850 -20.299  0.00  0.00    +0.042 C 
ATOM      6  C   UNL     1      35.156 -22.325 -19.043  0.00  0.00    +0.136 C 
ATOM      7  C   UNL     1      36.148 -20.660 -20.277  0.00  0.00    +0.101 C 
BRANCH   4  11
ATOM      8  N   UNL     1      35.233 -17.879 -21.217  0.00  0.00    -0.264 NA
ATOM      9  N   UNL     1      34.491 -16.084 -24.374  0.00  0.00    -0.150 NA
ATOM     10  N   UNL     1      33.925 -16.803 -25.515  0.00  0.00    -0.147 NA
ATOM     11  C   UNL     1      34.842 -19.027 -21.651  0.00  0.00    +0.078 C 
ATOM     12  C   UNL     1      34.224 -18.264 -23.812  0.00  0.00    +0.040 C 
ATOM     13  C   UNL     1      34.653 -16.948 -23.408  0.00  0.00    +0.107 C 
ATOM     14  C   UNL     1      35.190 -16.676 -22.052  0.00  0.00    +0.173 C 
ATOM     15  C   UNL     1      34.287 -19.310 -23.004  0.00  0.00    +0.022 C 
ATOM     16  C   UNL     1      33.778 -18.050 -25.168  0.00  0.00    +0.123 C 
ENDBRANCH   4  11
ENDBRANCH   1   3
BRANCH   1  17
ATOM     17  C   UNL     1      32.984 -23.653 -18.062  0.00  0.00    +0.184 C 
BRANCH  17  18
ATOM     18  C   UNL     1      32.651 -23.180 -16.642  0.00  0.00    -0.017 C 
BRANCH  18  19
ATOM     19  N   UNL     1      31.195 -23.210 -16.477  0.00  0.00    +0.384 N 
ATOM     20  H   UNL     1      30.967 -23.424 -15.506  0.00  0.00    -0.089 HD
ATOM     21  H   UNL     1      30.798 -23.926 -17.086  0.00  0.00    -0.089 HD
ATOM     22  H   UNL     1      30.806 -22.299 -16.724  0.00  0.00    -0.089 HD
ENDBRANCH  18  19
BRANCH  18  23
ATOM     23  C   UNL     1      33.303 -24.053 -15.542  0.00  0.00    +0.010 C 
BRANCH  23  25
ATOM     24  N   UNL     1      36.760 -22.650 -15.319  0.00  0.00    -0.244 NA
ATOM     25  C   UNL     1      34.762 -23.894 -15.412  0.00  0.00    -0.004 C 
ATOM     26  C   UNL     1      35.785 -24.740 -15.242  0.00  0.00    +0.011 C 
ATOM     27  C   UNL     1      37.021 -23.987 -15.183  0.00  0.00    +0.080 C 
ATOM     28  C   UNL     1      35.468 -22.604 -15.449  0.00  0.00    +0.094 C 
ATOM     29  C   UNL     1      35.765 -26.176 -15.125  0.00  0.00    -0.020 C 
ATOM     30  C   UNL     1      38.196 -24.606 -15.017  0.00  0.00    +0.015 C 
ATOM     31  C   UNL     1      38.274 -26.115 -14.885  0.00  0.00    -0.020 C 
ATOM     32  C   UNL     1      36.932 -26.822 -14.957  0.00  0.00    +0.052 C 
ENDBRANCH  23  25
ENDBRANCH  18  23
ENDBRANCH  17  18
ENDBRANCH   1  17
TORSDOF 7
ENDMDL
MODEL 7
REMARK VINA RESULT:     -10.9      5.235      8.525
REMARK  Name = 46937052
REMARK  7 active torsions:
REMARK  status: ('A' for Active; 'I' for Inactive)
REMARK    1  A    between atoms: O_1  and  C_3
REMARK    2  A    between atoms: O_1  and  C_17
REMARK    3  A    between atoms: C_4  and  C_11
REMARK    4  A    between atoms: C_17  and  C_18
REMARK    5  A    between atoms: C_18  and  N_19
REMARK    6  A    between atoms: C_18  and  C_23
REMARK    7  A    between atoms: C_23  and  C_25
REMARK                            x       y       z     vdW  Elec       q    Type
REMARK                         _______ _______ _______ _____ _____    ______ ____
ROOT
ATOM      1  O   UNL     1      34.496 -15.866 -22.869  0.00  0.00    -0.476 OA
ENDROOT
BRANCH   1   3
ATOM      2  N   UNL     1      33.426 -14.538 -26.106  0.00  0.00    -0.239 NA
ATOM      3  C   UNL     1      34.152 -14.961 -23.839  0.00  0.00    +0.158 C 
ATOM      4  C   UNL     1      33.817 -12.699 -24.586  0.00  0.00    +0.039 C 
ATOM      5  C   UNL     1      34.171 -13.594 -23.583  0.00  0.00    +0.042 C 
ATOM      6  C   UNL     1      33.775 -15.378 -25.105  0.00  0.00    +0.136 C 
ATOM      7  C   UNL     1      33.455 -13.217 -25.819  0.00  0.00    +0.101 C 
BRANCH   4  11
ATOM      8  N   UNL     1      34.766 -10.531 -24.881  0.00  0.00    -0.264 NA
ATOM      9  N   UNL     1      33.573  -7.303 -23.502  0.00  0.00    -0.150 NA
ATOM     10  N   UNL     1      32.385  -7.260 -22.650  0.00  0.00    -0.147 NA
ATOM     11  C   UNL     1      33.827 -11.231 -24.344  0.00  0.00    +0.078 C 
ATOM     12  C   UNL     1      32.754  -9.405 -23.273  0.00  0.00    +0.040 C 
ATOM     13  C   UNL     1      33.763  -8.549 -23.846  0.00  0.00    +0.107 C 
ATOM     14  C   UNL     1      34.855  -9.080 -24.699  0.00  0.00    +0.173 C 
ATOM     15  C   UNL     1      32.735 -10.713 -23.474  0.00  0.00    +0.022 C 
ATOM     16  C   UNL     1      31.935  -8.476 -22.530  0.00  0.00    +0.123 C 
ENDBRANCH   4  11
ENDBRANCH   1   3
BRANCH   1  17
ATOM     17  C   UNL     1      35.294 -16.969 -23.276  0.00  0.00    +0.184 C 
BRANCH  17  18
ATOM     18  C   UNL     1      34.537 -18.286 -23.063  0.00  0.00    -0.017 C 
BRANCH  18  19
ATOM     19  N   UNL     1      34.395 -18.950 -24.362  0.00  0.00    +0.384 N 
ATOM     20  H   UNL     1      34.432 -18.252 -25.106  0.00  0.00    -0.089 HD
ATOM     21  H   UNL     1      33.500 -19.438 -24.399  0.00  0.00    -0.089 HD
ATOM     22  H   UNL     1      35.153 -19.620 -24.486  0.00  0.00    -0.089 HD
ENDBRANCH  18  19
BRANCH  18  23
ATOM     23  C   UNL     1      35.252 -19.246 -22.080  0.00  0.00    +0.010 C 
BRANCH  23  25
ATOM     24  N   UNL     1      32.244 -20.851 -20.548  0.00  0.00    -0.244 NA
ATOM     25  C   UNL     1      34.349 -20.054 -21.241  0.00  0.00    -0.004 C 
ATOM     26  C   UNL     1      34.527 -20.909 -20.227  0.00  0.00    +0.011 C 
ATOM     27  C   UNL     1      33.239 -21.407 -19.791  0.00  0.00    +0.080 C 
ATOM     28  C   UNL     1      32.884 -20.079 -21.374  0.00  0.00    +0.094 C 
ATOM     29  C   UNL     1      35.755 -21.331 -19.603  0.00  0.00    -0.020 C 
ATOM     30  C   UNL     1      33.146 -22.283 -18.784  0.00  0.00    +0.015 C 
ATOM     31  C   UNL     1      34.384 -22.784 -18.065  0.00  0.00    -0.020 C 
ATOM     32  C   UNL     1      35.689 -22.211 -18.588  0.00  0.00    +0.052 C 
ENDBRANCH  23  25
ENDBRANCH  18  23
ENDBRANCH  17  18
ENDBRANCH   1  17
TORSDOF 7
ENDMDL
MODEL 8
REMARK VINA RESULT:     -10.9      2.139     10.136
REMARK  Name = 46937052
REMARK  7 active torsions:
REMARK  status: ('A' for Active; 'I' for Inactive)
REMARK    1  A    between atoms: O_1  and  C_3
REMARK    2  A    between atoms: O_1  and  C_17
REMARK    3  A    between atoms: C_4  and  C_11
REMARK    4  A    between atoms: C_17  and  C_18
REMARK    5  A    between atoms: C_18  and  N_19
REMARK    6  A    between atoms: C_18  and  C_23
REMARK    7  A    between atoms: C_23  and  C_25
REMARK                            x       y       z     vdW  Elec       q    Type
REMARK                         _______ _______ _______ _____ _____    ______ ____
ROOT
ATOM      1  O   UNL     1      33.627 -20.343 -21.024  0.00  0.00    -0.476 OA
ENDROOT
BRANCH   1   3
ATOM      2  N   UNL     1      35.350 -22.586 -18.702  0.00  0.00    -0.239 NA
ATOM      3  C   UNL     1      33.826 -21.218 -19.987  0.00  0.00    +0.158 C 
ATOM      4  C   UNL     1      32.999 -22.517 -18.139  0.00  0.00    +0.039 C 
ATOM      5  C   UNL     1      32.768 -21.629 -19.184  0.00  0.00    +0.042 C 
ATOM      6  C   UNL     1      35.086 -21.721 -19.708  0.00  0.00    +0.136 C 
ATOM      7  C   UNL     1      34.297 -22.962 -17.942  0.00  0.00    +0.101 C 
BRANCH   4  11
ATOM      8  N   UNL     1      30.696 -22.567 -17.521  0.00  0.00    -0.264 NA
ATOM      9  N   UNL     1      29.120 -24.396 -14.708  0.00  0.00    -0.150 NA
ATOM     10  N   UNL     1      29.938 -25.204 -13.805  0.00  0.00    -0.147 NA
ATOM     11  C   UNL     1      31.890 -22.976 -17.261  0.00  0.00    +0.078 C 
ATOM     12  C   UNL     1      31.286 -24.274 -15.368  0.00  0.00    +0.040 C 
ATOM     13  C   UNL     1      29.920 -23.871 -15.598  0.00  0.00    +0.107 C 
ATOM     14  C   UNL     1      29.543 -22.969 -16.713  0.00  0.00    +0.173 C 
ATOM     15  C   UNL     1      32.284 -23.870 -16.136  0.00  0.00    +0.022 C 
ATOM     16  C   UNL     1      31.176 -25.117 -14.200  0.00  0.00    +0.123 C 
ENDBRANCH   4  11
ENDBRANCH   1   3
BRANCH   1  17
ATOM     17  C   UNL     1      34.737 -20.101 -21.879  0.00  0.00    +0.184 C 
BRANCH  17  18
ATOM     18  C   UNL     1      35.064 -18.603 -21.920  0.00  0.00    -0.017 C 
BRANCH  18  19
ATOM     19  N   UNL     1      36.076 -18.325 -20.897  0.00  0.00    +0.384 N 
ATOM     20  H   UNL     1      35.644 -17.825 -20.120  0.00  0.00    -0.089 HD
ATOM     21  H   UNL     1      36.818 -17.753 -21.299  0.00  0.00    -0.089 HD
ATOM     22  H   UNL     1      36.468 -19.204 -20.559  0.00  0.00    -0.089 HD
ENDBRANCH  18  19
BRANCH  18  23
ATOM     23  C   UNL     1      35.595 -18.134 -23.297  0.00  0.00    +0.010 C 
BRANCH  23  25
ATOM     24  N   UNL     1      33.560 -16.114 -25.695  0.00  0.00    -0.244 NA
ATOM     25  C   UNL     1      34.799 -17.070 -23.935  0.00  0.00    -0.004 C 
ATOM     26  C   UNL     1      34.381 -15.857 -23.555  0.00  0.00    +0.011 C 
ATOM     27  C   UNL     1      33.616 -15.258 -24.629  0.00  0.00    +0.080 C 
ATOM     28  C   UNL     1      34.237 -17.147 -25.293  0.00  0.00    +0.094 C 
ATOM     29  C   UNL     1      34.600 -15.174 -22.306  0.00  0.00    -0.020 C 
ATOM     30  C   UNL     1      33.085 -14.037 -24.496  0.00  0.00    +0.015 C 
ATOM     31  C   UNL     1      33.264 -13.240 -23.218  0.00  0.00    -0.020 C 
ATOM     32  C   UNL     1      34.076 -13.945 -22.147  0.00  0.00    +0.052 C 
ENDBRANCH  23  25
ENDBRANCH  18  23
ENDBRANCH  17  18
ENDBRANCH   1  17
TORSDOF 7
ENDMDL
MODEL 9
REMARK VINA RESULT:     -10.9      8.145     12.892
REMARK  Name = 46937052
REMARK  7 active torsions:
REMARK  status: ('A' for Active; 'I' for Inactive)
REMARK    1  A    between atoms: O_1  and  C_3
REMARK    2  A    between atoms: O_1  and  C_17
REMARK    3  A    between atoms: C_4  and  C_11
REMARK    4  A    between atoms: C_17  and  C_18
REMARK    5  A    between atoms: C_18  and  N_19
REMARK    6  A    between atoms: C_18  and  C_23
REMARK    7  A    between atoms: C_23  and  C_25
REMARK                            x       y       z     vdW  Elec       q    Type
REMARK                         _______ _______ _______ _____ _____    ______ ____
ROOT
ATOM      1  O   UNL     1      34.012  -9.433 -25.309  0.00  0.00    -0.476 OA
ENDROOT
BRANCH   1   3
ATOM      2  N   UNL     1      33.235 -12.571 -27.023  0.00  0.00    -0.239 NA
ATOM      3  C   UNL     1      33.845 -10.777 -25.521  0.00  0.00    +0.158 C 
ATOM      4  C   UNL     1      33.918 -13.056 -24.755  0.00  0.00    +0.039 C 
ATOM      5  C   UNL     1      34.096 -11.699 -24.511  0.00  0.00    +0.042 C 
ATOM      6  C   UNL     1      33.420 -11.260 -26.748  0.00  0.00    +0.136 C 
ATOM      7  C   UNL     1      33.490 -13.437 -26.017  0.00  0.00    +0.101 C 
BRANCH   4  11
ATOM      8  N   UNL     1      34.007 -13.722 -22.466  0.00  0.00    -0.264 NA
ATOM      9  N   UNL     1      34.959 -17.025 -21.079  0.00  0.00    -0.150 NA
ATOM     10  N   UNL     1      35.357 -18.113 -21.973  0.00  0.00    -0.147 NA
ATOM     11  C   UNL     1      34.177 -14.068 -23.696  0.00  0.00    +0.078 C 
ATOM     12  C   UNL     1      34.855 -16.293 -23.222  0.00  0.00    +0.040 C 
ATOM     13  C   UNL     1      34.677 -15.990 -21.824  0.00  0.00    +0.107 C 
ATOM     14  C   UNL     1      34.235 -14.652 -21.358  0.00  0.00    +0.173 C 
ATOM     15  C   UNL     1      34.634 -15.402 -24.176  0.00  0.00    +0.022 C 
ATOM     16  C   UNL     1      35.293 -17.669 -23.195  0.00  0.00    +0.123 C 
ENDBRANCH   4  11
ENDBRANCH   1   3
BRANCH   1  17
ATOM     17  C   UNL     1      35.078  -9.048 -24.451  0.00  0.00    +0.184 C 
BRANCH  17  18
ATOM     18  C   UNL     1      34.798  -7.673 -23.833  0.00  0.00    -0.017 C 
BRANCH  18  19
ATOM     19  N   UNL     1      35.288  -6.645 -24.756  0.00  0.00    +0.384 N 
ATOM     20  H   UNL     1      34.789  -6.720 -25.643  0.00  0.00    -0.089 HD
ATOM     21  H   UNL     1      36.286  -6.779 -24.915  0.00  0.00    -0.089 HD
ATOM     22  H   UNL     1      35.127  -5.722 -24.353  0.00  0.00    -0.089 HD
ENDBRANCH  18  19
BRANCH  18  23
ATOM     23  C   UNL     1      33.295  -7.427 -23.554  0.00  0.00    +0.010 C 
BRANCH  23  25
ATOM     24  N   UNL     1      32.638  -7.701 -19.884  0.00  0.00    -0.244 NA
ATOM     25  C   UNL     1      32.834  -7.869 -22.225  0.00  0.00    -0.004 C 
ATOM     26  C   UNL     1      32.106  -8.900 -21.781  0.00  0.00    +0.011 C 
ATOM     27  C   UNL     1      31.977  -8.808 -20.341  0.00  0.00    +0.080 C 
ATOM     28  C   UNL     1      33.125  -7.168 -20.964  0.00  0.00    +0.094 C 
ATOM     29  C   UNL     1      31.504  -9.973 -22.530  0.00  0.00    -0.020 C 
ATOM     30  C   UNL     1      31.290  -9.727 -19.653  0.00  0.00    +0.015 C 
ATOM     31  C   UNL     1      30.622 -10.894 -20.355  0.00  0.00    -0.020 C 
ATOM     32  C   UNL     1      30.807 -10.910 -21.861  0.00  0.00    +0.052 C 
ENDBRANCH  23  25
ENDBRANCH  18  23
ENDBRANCH  17  18
ENDBRANCH   1  17
TORSDOF 7
ENDMDL
