MODEL 1
REMARK VINA RESULT:     -12.0      0.000      0.000
REMARK  Name = 5291
REMARK  6 active torsions:
REMARK  status: ('A' for Active; 'I' for Inactive)
REMARK    1  A    between atoms: C_1  and  N_23
REMARK    2  A    between atoms: C_2  and  N_8
REMARK    3  A    between atoms: C_12  and  C_17
REMARK    4  A    between atoms: C_24  and  C_31
REMARK    5  A    between atoms: C_26  and  C_32
REMARK    6  A    between atoms: C_32  and  N_33
REMARK                            x       y       z     vdW  Elec       q    Type
REMARK                         _______ _______ _______ _____ _____    ______ ____
ROOT
ATOM      1  C   UNL     1      32.651 -23.093 -16.559  0.00  0.00    +0.052 C 
ATOM      2  C   UNL     1      32.609 -23.844 -14.283  0.00  0.00    +0.055 C 
ATOM      3  C   UNL     1      33.203 -23.083 -15.289  0.00  0.00    +0.030 C 
ATOM      4  C   UNL     1      31.472 -24.604 -14.561  0.00  0.00    -0.008 C 
ATOM      5  C   UNL     1      31.524 -23.840 -16.852  0.00  0.00    +0.014 C 
ATOM      6  C   UNL     1      30.930 -24.602 -15.846  0.00  0.00    -0.002 C 
ATOM      7  C   UNL     1      30.816 -25.429 -13.502  0.00  0.00    +0.032 C 
ENDROOT
BRANCH   2   8
ATOM      8  N   UNL     1      33.170 -23.835 -12.986  0.00  0.00    -0.248 N 
ATOM      9  N   UNL     1      35.440 -24.210 -13.450  0.00  0.00    -0.337 NA
ATOM     10  N   UNL     1      34.669 -23.930 -11.184  0.00  0.00    -0.170 NA
ATOM     11  C   UNL     1      34.487 -23.999 -12.518  0.00  0.00    +0.149 C 
ATOM     12  C   UNL     1      36.690 -24.364 -12.967  0.00  0.00    +0.147 C 
ATOM     13  C   UNL     1      37.005 -24.314 -11.624  0.00  0.00    +0.055 C 
ATOM     14  C   UNL     1      35.944 -24.093 -10.770  0.00  0.00    +0.114 C 
ATOM     15  H   UNL     1      32.512 -23.682 -12.271  0.00  0.00    +0.165 HD
BRANCH  12  17
ATOM     16  N   UNL     1      38.747 -23.920 -16.043  0.00  0.00    -0.242 NA
ATOM     17  C   UNL     1      37.709 -24.589 -13.964  0.00  0.00    +0.050 C 
ATOM     18  C   UNL     1      38.614 -25.638 -13.842  0.00  0.00    +0.006 C 
ATOM     19  C   UNL     1      37.817 -23.766 -15.074  0.00  0.00    +0.101 C 
ATOM     20  C   UNL     1      39.584 -25.829 -14.818  0.00  0.00    +0.021 C 
ATOM     21  C   UNL     1      39.609 -24.951 -15.889  0.00  0.00    +0.099 C 
ENDBRANCH  12  17
ENDBRANCH   2   8
BRANCH   1  23
ATOM     22  O   UNL     1      33.598 -23.890 -19.290  0.00  0.00    -0.270 OA
ATOM     23  N   UNL     1      33.253 -22.319 -17.580  0.00  0.00    -0.280 N 
ATOM     24  C   UNL     1      33.683 -22.732 -18.850  0.00  0.00    +0.249 C 
ATOM     25  H   UNL     1      33.387 -21.366 -17.373  0.00  0.00    +0.155 HD
BRANCH  24  31
ATOM     26  C   UNL     1      35.461 -19.747 -21.262  0.00  0.00    -0.043 C 
ATOM     27  C   UNL     1      34.079 -19.864 -21.229  0.00  0.00    -0.006 C 
ATOM     28  C   UNL     1      36.269 -20.593 -20.516  0.00  0.00    -0.006 C 
ATOM     29  C   UNL     1      33.493 -20.848 -20.433  0.00  0.00    +0.004 C 
ATOM     30  C   UNL     1      35.683 -21.577 -19.720  0.00  0.00    +0.004 C 
ATOM     31  C   UNL     1      34.295 -21.705 -19.678  0.00  0.00    +0.054 C 
BRANCH  26  32
ATOM     32  C   UNL     1      36.095 -18.684 -22.120  0.00  0.00    -0.050 C 
BRANCH  32  33
ATOM     33  N   UNL     1      35.096 -17.800 -22.720  0.00  0.00    +0.387 N 
ATOM     34  N   UNL     1      34.284 -15.601 -24.413  0.00  0.00    +0.383 N 
ATOM     35  C   UNL     1      35.102 -17.923 -24.183  0.00  0.00    -0.100 C 
ATOM     36  C   UNL     1      35.326 -16.407 -22.320  0.00  0.00    -0.100 C 
ATOM     37  C   UNL     1      34.056 -16.996 -24.811  0.00  0.00    -0.101 C 
ATOM     38  C   UNL     1      34.281 -15.479 -22.949  0.00  0.00    -0.101 C 
ATOM     39  C   UNL     1      33.285 -14.720 -25.010  0.00  0.00    -0.101 C 
ATOM     40  H   UNL     1      34.179 -18.086 -22.377  0.00  0.00    -0.079 HD
ATOM     41  H   UNL     1      35.201 -15.316 -24.755  0.00  0.00    -0.080 HD
ENDBRANCH  32  33
ENDBRANCH  26  32
ENDBRANCH  24  31
ENDBRANCH   1  23
TORSDOF 6
ENDMDL
MODEL 2
REMARK VINA RESULT:     -11.6      1.292      1.913
REMARK  Name = 5291
REMARK  6 active torsions:
REMARK  status: ('A' for Active; 'I' for Inactive)
REMARK    1  A    between atoms: C_1  and  N_23
REMARK    2  A    between atoms: C_2  and  N_8
REMARK    3  A    between atoms: C_12  and  C_17
REMARK    4  A    between atoms: C_24  and  C_31
REMARK    5  A    between atoms: C_26  and  C_32
REMARK    6  A    between atoms: C_32  and  N_33
REMARK                            x       y       z     vdW  Elec       q    Type
REMARK                         _______ _______ _______ _____ _____    ______ ____
ROOT
ATOM      1  C   UNL     1      31.412 -22.832 -17.084  0.00  0.00    +0.052 C 
ATOM      2  C   UNL     1      31.364 -23.919 -14.948  0.00  0.00    +0.055 C 
ATOM      3  C   UNL     1      32.077 -23.258 -15.946  0.00  0.00    +0.030 C 
ATOM      4  C   UNL     1      29.995 -24.144 -15.101  0.00  0.00    -0.008 C 
ATOM      5  C   UNL     1      30.055 -23.047 -17.251  0.00  0.00    +0.014 C 
ATOM      6  C   UNL     1      29.342 -23.709 -16.252  0.00  0.00    -0.002 C 
ATOM      7  C   UNL     1      29.206 -24.851 -14.047  0.00  0.00    +0.032 C 
ENDROOT
BRANCH   2   8
ATOM      8  N   UNL     1      32.041 -24.354 -13.786  0.00  0.00    -0.248 N 
ATOM      9  N   UNL     1      34.278 -23.930 -14.356  0.00  0.00    -0.337 NA
ATOM     10  N   UNL     1      33.704 -24.880 -12.217  0.00  0.00    -0.170 NA
ATOM     11  C   UNL     1      33.403 -24.389 -13.437  0.00  0.00    +0.149 C 
ATOM     12  C   UNL     1      35.575 -23.979 -13.989  0.00  0.00    +0.147 C 
ATOM     13  C   UNL     1      36.009 -24.458 -12.769  0.00  0.00    +0.055 C 
ATOM     14  C   UNL     1      35.020 -24.900 -11.915  0.00  0.00    +0.114 C 
ATOM     15  H   UNL     1      31.443 -24.697 -13.084  0.00  0.00    +0.165 HD
BRANCH  12  17
ATOM     16  N   UNL     1      38.720 -23.580 -15.949  0.00  0.00    -0.242 NA
ATOM     17  C   UNL     1      36.509 -23.487 -14.972  0.00  0.00    +0.050 C 
ATOM     18  C   UNL     1      36.148 -22.487 -15.869  0.00  0.00    +0.006 C 
ATOM     19  C   UNL     1      37.796 -23.995 -15.054  0.00  0.00    +0.101 C 
ATOM     20  C   UNL     1      37.070 -22.034 -16.805  0.00  0.00    +0.021 C 
ATOM     21  C   UNL     1      38.331 -22.607 -16.804  0.00  0.00    +0.099 C 
ENDBRANCH  12  17
ENDBRANCH   2   8
BRANCH   1  23
ATOM     22  O   UNL     1      33.941 -23.607 -18.496  0.00  0.00    -0.270 OA
ATOM     23  N   UNL     1      32.137 -22.160 -18.098  0.00  0.00    -0.280 N 
ATOM     24  C   UNL     1      33.321 -22.558 -18.735  0.00  0.00    +0.249 C 
ATOM     25  H   UNL     1      31.760 -21.300 -18.394  0.00  0.00    +0.155 HD
BRANCH  24  31
ATOM     26  C   UNL     1      34.857 -19.873 -21.620  0.00  0.00    -0.043 C 
ATOM     27  C   UNL     1      35.733 -20.639 -20.866  0.00  0.00    -0.006 C 
ATOM     28  C   UNL     1      33.484 -19.974 -21.443  0.00  0.00    -0.006 C 
ATOM     29  C   UNL     1      35.227 -21.525 -19.915  0.00  0.00    +0.004 C 
ATOM     30  C   UNL     1      32.977 -20.859 -20.492  0.00  0.00    +0.004 C 
ATOM     31  C   UNL     1      33.848 -21.636 -19.728  0.00  0.00    +0.054 C 
BRANCH  26  32
ATOM     32  C   UNL     1      35.403 -18.917 -22.648  0.00  0.00    -0.050 C 
BRANCH  32  33
ATOM     33  N   UNL     1      34.666 -17.654 -22.663  0.00  0.00    +0.387 N 
ATOM     34  N   UNL     1      34.483 -14.780 -22.917  0.00  0.00    +0.383 N 
ATOM     35  C   UNL     1      34.787 -16.996 -23.969  0.00  0.00    -0.100 C 
ATOM     36  C   UNL     1      35.135 -16.764 -21.594  0.00  0.00    -0.100 C 
ATOM     37  C   UNL     1      34.015 -15.671 -23.985  0.00  0.00    -0.101 C 
ATOM     38  C   UNL     1      34.365 -15.439 -21.610  0.00  0.00    -0.101 C 
ATOM     39  C   UNL     1      33.745 -13.520 -22.931  0.00  0.00    -0.101 C 
ATOM     40  H   UNL     1      33.681 -17.864 -22.498  0.00  0.00    -0.079 HD
ATOM     41  H   UNL     1      35.467 -14.570 -23.082  0.00  0.00    -0.080 HD
ENDBRANCH  32  33
ENDBRANCH  26  32
ENDBRANCH  24  31
ENDBRANCH   1  23
TORSDOF 6
ENDMDL
MODEL 3
REMARK VINA RESULT:     -10.4      2.610      5.807
REMARK  Name = 5291
REMARK  6 active torsions:
REMARK  status: ('A' for Active; 'I' for Inactive)
REMARK    1  A    between atoms: C_1  and  N_23
REMARK    2  A    between atoms: C_2  and  N_8
REMARK    3  A    between atoms: C_12  and  C_17
REMARK    4  A    between atoms: C_24  and  C_31
REMARK    5  A    between atoms: C_26  and  C_32
REMARK    6  A    between atoms: C_32  and  N_33
REMARK                            x       y       z     vdW  Elec       q    Type
REMARK                         _______ _______ _______ _____ _____    ______ ____
ROOT
ATOM      1  C   UNL     1      34.096 -20.315 -20.726  0.00  0.00    +0.052 C 
ATOM      2  C   UNL     1      32.916 -21.861 -19.324  0.00  0.00    +0.055 C 
ATOM      3  C   UNL     1      32.938 -20.676 -20.058  0.00  0.00    +0.030 C 
ATOM      4  C   UNL     1      34.053 -22.668 -19.269  0.00  0.00    -0.008 C 
ATOM      5  C   UNL     1      35.232 -21.103 -20.682  0.00  0.00    +0.014 C 
ATOM      6  C   UNL     1      35.210 -22.289 -19.947  0.00  0.00    -0.002 C 
ATOM      7  C   UNL     1      34.058 -23.942 -18.489  0.00  0.00    +0.032 C 
ENDROOT
BRANCH   2   8
ATOM      8  N   UNL     1      31.735 -22.231 -18.643  0.00  0.00    -0.248 N 
ATOM      9  N   UNL     1      32.585 -22.942 -16.574  0.00  0.00    -0.337 NA
ATOM     10  N   UNL     1      30.218 -22.991 -17.022  0.00  0.00    -0.170 NA
ATOM     11  C   UNL     1      31.502 -22.744 -17.354  0.00  0.00    +0.149 C 
ATOM     12  C   UNL     1      32.326 -23.436 -15.346  0.00  0.00    +0.147 C 
ATOM     13  C   UNL     1      31.057 -23.728 -14.889  0.00  0.00    +0.055 C 
ATOM     14  C   UNL     1      30.031 -23.484 -15.779  0.00  0.00    +0.114 C 
ATOM     15  H   UNL     1      30.916 -22.103 -19.172  0.00  0.00    +0.165 HD
BRANCH  12  17
ATOM     16  N   UNL     1      34.424 -24.519 -12.461  0.00  0.00    -0.242 NA
ATOM     17  C   UNL     1      33.485 -23.646 -14.512  0.00  0.00    +0.050 C 
ATOM     18  C   UNL     1      34.744 -23.209 -14.910  0.00  0.00    +0.006 C 
ATOM     19  C   UNL     1      33.380 -24.290 -13.290  0.00  0.00    +0.101 C 
ATOM     20  C   UNL     1      35.842 -23.426 -14.086  0.00  0.00    +0.021 C 
ATOM     21  C   UNL     1      35.631 -24.080 -12.883  0.00  0.00    +0.099 C 
ENDBRANCH  12  17
ENDBRANCH   2   8
BRANCH   1  23
ATOM     22  O   UNL     1      36.259 -18.260 -21.028  0.00  0.00    -0.270 OA
ATOM     23  N   UNL     1      34.117 -19.112 -21.473  0.00  0.00    -0.280 N 
ATOM     24  C   UNL     1      35.154 -18.174 -21.588  0.00  0.00    +0.249 C 
ATOM     25  H   UNL     1      33.297 -18.906 -21.977  0.00  0.00    +0.155 HD
BRANCH  24  31
ATOM     26  C   UNL     1      34.322 -14.792 -23.988  0.00  0.00    -0.043 C 
ATOM     27  C   UNL     1      34.341 -14.661 -22.607  0.00  0.00    -0.006 C 
ATOM     28  C   UNL     1      34.572 -16.015 -24.594  0.00  0.00    -0.006 C 
ATOM     29  C   UNL     1      34.616 -15.776 -21.816  0.00  0.00    +0.004 C 
ATOM     30  C   UNL     1      34.847 -17.131 -23.803  0.00  0.00    +0.004 C 
ATOM     31  C   UNL     1      34.869 -17.011 -22.414  0.00  0.00    +0.054 C 
BRANCH  26  32
ATOM     32  C   UNL     1      34.026 -13.589 -24.843  0.00  0.00    -0.050 C 
BRANCH  32  33
ATOM     33  N   UNL     1      33.873 -12.375 -24.042  0.00  0.00    +0.387 N 
ATOM     34  N   UNL     1      32.614  -9.853 -23.400  0.00  0.00    +0.383 N 
ATOM     35  C   UNL     1      32.543 -12.323 -23.423  0.00  0.00    -0.100 C 
ATOM     36  C   UNL     1      34.105 -11.178 -24.859  0.00  0.00    -0.100 C 
ATOM     37  C   UNL     1      32.382 -11.051 -22.583  0.00  0.00    -0.101 C 
ATOM     38  C   UNL     1      33.943  -9.905 -24.022  0.00  0.00    -0.101 C 
ATOM     39  C   UNL     1      32.463  -8.641 -22.598  0.00  0.00    -0.101 C 
ATOM     40  H   UNL     1      34.572 -12.399 -23.301  0.00  0.00    -0.079 HD
ATOM     41  H   UNL     1      31.914  -9.829 -24.141  0.00  0.00    -0.080 HD
ENDBRANCH  32  33
ENDBRANCH  26  32
ENDBRANCH  24  31
ENDBRANCH   1  23
TORSDOF 6
ENDMDL
MODEL 4
REMARK VINA RESULT:     -10.2      4.920     14.147
REMARK  Name = 5291
REMARK  6 active torsions:
REMARK  status: ('A' for Active; 'I' for Inactive)
REMARK    1  A    between atoms: C_1  and  N_23
REMARK    2  A    between atoms: C_2  and  N_8
REMARK    3  A    between atoms: C_12  and  C_17
REMARK    4  A    between atoms: C_24  and  C_31
REMARK    5  A    between atoms: C_26  and  C_32
REMARK    6  A    between atoms: C_32  and  N_33
REMARK                            x       y       z     vdW  Elec       q    Type
REMARK                         _______ _______ _______ _____ _____    ______ ____
ROOT
ATOM      1  C   UNL     1      33.730 -13.295 -25.529  0.00  0.00    +0.052 C 
ATOM      2  C   UNL     1      33.691 -10.932 -25.932  0.00  0.00    +0.055 C 
ATOM      3  C   UNL     1      34.137 -12.018 -25.180  0.00  0.00    +0.030 C 
ATOM      4  C   UNL     1      32.843 -11.139 -27.021  0.00  0.00    -0.008 C 
ATOM      5  C   UNL     1      32.890 -13.518 -26.606  0.00  0.00    +0.014 C 
ATOM      6  C   UNL     1      32.443 -12.431 -27.358  0.00  0.00    -0.002 C 
ATOM      7  C   UNL     1      32.349  -9.993 -27.843  0.00  0.00    +0.032 C 
ENDROOT
BRANCH   2   8
ATOM      8  N   UNL     1      34.106  -9.629 -25.578  0.00  0.00    -0.248 N 
ATOM      9  N   UNL     1      33.092  -9.363 -23.478  0.00  0.00    -0.337 NA
ATOM     10  N   UNL     1      34.431  -7.604 -24.438  0.00  0.00    -0.170 NA
ATOM     11  C   UNL     1      33.866  -8.828 -24.446  0.00  0.00    +0.149 C 
ATOM     12  C   UNL     1      32.881  -8.569 -22.409  0.00  0.00    +0.147 C 
ATOM     13  C   UNL     1      33.405  -7.298 -22.282  0.00  0.00    +0.055 C 
ATOM     14  C   UNL     1      34.179  -6.863 -23.338  0.00  0.00    +0.114 C 
ATOM     15  H   UNL     1      34.675  -9.197 -26.255  0.00  0.00    +0.165 HD
BRANCH  12  17
ATOM     16  N   UNL     1      31.261  -9.073 -19.090  0.00  0.00    -0.242 NA
ATOM     17  C   UNL     1      32.055  -9.141 -21.374  0.00  0.00    +0.050 C 
ATOM     18  C   UNL     1      31.274 -10.266 -21.618  0.00  0.00    +0.006 C 
ATOM     19  C   UNL     1      32.013  -8.588 -20.104  0.00  0.00    +0.101 C 
ATOM     20  C   UNL     1      30.488 -10.795 -20.601  0.00  0.00    +0.021 C 
ATOM     21  C   UNL     1      30.516 -10.167 -19.366  0.00  0.00    +0.099 C 
ENDBRANCH  12  17
ENDBRANCH   2   8
BRANCH   1  23
ATOM     22  O   UNL     1      33.147 -14.059 -22.689  0.00  0.00    -0.270 OA
ATOM     23  N   UNL     1      34.185 -14.398 -24.767  0.00  0.00    -0.280 N 
ATOM     24  C   UNL     1      33.887 -14.721 -23.434  0.00  0.00    +0.249 C 
ATOM     25  H   UNL     1      34.789 -15.021 -25.232  0.00  0.00    +0.155 HD
BRANCH  24  31
ATOM     26  C   UNL     1      35.759 -18.197 -21.914  0.00  0.00    -0.043 C 
ATOM     27  C   UNL     1      35.636 -18.032 -23.286  0.00  0.00    -0.006 C 
ATOM     28  C   UNL     1      35.276 -17.239 -21.033  0.00  0.00    -0.006 C 
ATOM     29  C   UNL     1      35.020 -16.886 -23.787  0.00  0.00    +0.004 C 
ATOM     30  C   UNL     1      34.660 -16.093 -21.534  0.00  0.00    +0.004 C 
ATOM     31  C   UNL     1      34.532 -15.915 -22.911  0.00  0.00    +0.054 C 
BRANCH  26  32
ATOM     32  C   UNL     1      36.425 -19.433 -21.372  0.00  0.00    -0.050 C 
BRANCH  32  33
ATOM     33  N   UNL     1      35.588 -20.115 -20.385  0.00  0.00    +0.387 N 
ATOM     34  N   UNL     1      34.085 -22.382 -19.408  0.00  0.00    +0.383 N 
ATOM     35  C   UNL     1      36.264 -21.309 -19.865  0.00  0.00    -0.100 C 
ATOM     36  C   UNL     1      34.287 -20.472 -20.963  0.00  0.00    -0.100 C 
ATOM     37  C   UNL     1      35.387 -22.025 -18.831  0.00  0.00    -0.101 C 
ATOM     38  C   UNL     1      33.410 -21.188 -19.930  0.00  0.00    -0.101 C 
ATOM     39  C   UNL     1      33.250 -23.061 -18.420  0.00  0.00    -0.101 C 
ATOM     40  H   UNL     1      35.431 -19.471 -19.610  0.00  0.00    -0.079 HD
ATOM     41  H   UNL     1      34.243 -23.026 -20.183  0.00  0.00    -0.080 HD
ENDBRANCH  32  33
ENDBRANCH  26  32
ENDBRANCH  24  31
ENDBRANCH   1  23
TORSDOF 6
ENDMDL
MODEL 5
REMARK VINA RESULT:      -9.6      6.004     15.411
REMARK  Name = 5291
REMARK  6 active torsions:
REMARK  status: ('A' for Active; 'I' for Inactive)
REMARK    1  A    between atoms: C_1  and  N_23
REMARK    2  A    between atoms: C_2  and  N_8
REMARK    3  A    between atoms: C_12  and  C_17
REMARK    4  A    between atoms: C_24  and  C_31
REMARK    5  A    between atoms: C_26  and  C_32
REMARK    6  A    between atoms: C_32  and  N_33
REMARK                            x       y       z     vdW  Elec       q    Type
REMARK                         _______ _______ _______ _____ _____    ______ ____
ROOT
ATOM      1  C   UNL     1      33.958 -12.735 -24.497  0.00  0.00    +0.052 C 
ATOM      2  C   UNL     1      33.047 -10.552 -24.109  0.00  0.00    +0.055 C 
ATOM      3  C   UNL     1      33.467 -11.786 -23.616  0.00  0.00    +0.030 C 
ATOM      4  C   UNL     1      33.123 -10.285 -25.476  0.00  0.00    -0.008 C 
ATOM      5  C   UNL     1      34.040 -12.486 -25.856  0.00  0.00    +0.014 C 
ATOM      6  C   UNL     1      33.619 -11.252 -26.349  0.00  0.00    -0.002 C 
ATOM      7  C   UNL     1      32.679  -8.971 -26.032  0.00  0.00    +0.032 C 
ENDROOT
BRANCH   2   8
ATOM      8  N   UNL     1      32.547  -9.583 -23.211  0.00  0.00    -0.248 N 
ATOM      9  N   UNL     1      33.343  -7.594 -24.171  0.00  0.00    -0.337 NA
ATOM     10  N   UNL     1      32.032  -7.554 -22.149  0.00  0.00    -0.170 NA
ATOM     11  C   UNL     1      32.645  -8.179 -23.175  0.00  0.00    +0.149 C 
ATOM     12  C   UNL     1      33.417  -6.249 -24.106  0.00  0.00    +0.147 C 
ATOM     13  C   UNL     1      32.833  -5.496 -23.107  0.00  0.00    +0.055 C 
ATOM     14  C   UNL     1      32.147  -6.209 -22.146  0.00  0.00    +0.114 C 
ATOM     15  H   UNL     1      32.028  -9.962 -22.466  0.00  0.00    +0.165 HD
BRANCH  12  17
ATOM     16  N   UNL     1      34.386  -3.797 -26.741  0.00  0.00    -0.242 NA
ATOM     17  C   UNL     1      34.163  -5.624 -25.171  0.00  0.00    +0.050 C 
ATOM     18  C   UNL     1      35.334  -6.194 -25.659  0.00  0.00    +0.006 C 
ATOM     19  C   UNL     1      33.736  -4.435 -25.741  0.00  0.00    +0.101 C 
ATOM     20  C   UNL     1      36.031  -5.569 -26.686  0.00  0.00    +0.021 C 
ATOM     21  C   UNL     1      35.520  -4.383 -27.188  0.00  0.00    +0.099 C 
ENDBRANCH  12  17
ENDBRANCH   2   8
BRANCH   1  23
ATOM     22  O   UNL     1      33.072 -15.511 -25.207  0.00  0.00    -0.270 OA
ATOM     23  N   UNL     1      34.386 -13.989 -23.996  0.00  0.00    -0.280 N 
ATOM     24  C   UNL     1      33.944 -15.270 -24.356  0.00  0.00    +0.249 C 
ATOM     25  H   UNL     1      35.085 -13.957 -23.304  0.00  0.00    +0.155 HD
BRANCH  24  31
ATOM     26  C   UNL     1      35.725 -18.494 -22.275  0.00  0.00    -0.043 C 
ATOM     27  C   UNL     1      35.470 -18.616 -23.634  0.00  0.00    -0.006 C 
ATOM     28  C   UNL     1      35.404 -17.331 -21.589  0.00  0.00    -0.006 C 
ATOM     29  C   UNL     1      34.884 -17.552 -24.320  0.00  0.00    +0.004 C 
ATOM     30  C   UNL     1      34.818 -16.268 -22.275  0.00  0.00    +0.004 C 
ATOM     31  C   UNL     1      34.558 -16.378 -23.641  0.00  0.00    +0.054 C 
BRANCH  26  32
ATOM     32  C   UNL     1      36.359 -19.641 -21.534  0.00  0.00    -0.050 C 
BRANCH  32  33
ATOM     33  N   UNL     1      35.469 -20.185 -20.509  0.00  0.00    +0.387 N 
ATOM     34  N   UNL     1      33.761 -22.240 -19.406  0.00  0.00    +0.383 N 
ATOM     35  C   UNL     1      36.030 -21.412 -19.930  0.00  0.00    -0.100 C 
ATOM     36  C   UNL     1      34.134 -20.441 -21.060  0.00  0.00    -0.100 C 
ATOM     37  C   UNL     1      35.097 -21.983 -18.856  0.00  0.00    -0.101 C 
ATOM     38  C   UNL     1      33.200 -21.013 -19.988  0.00  0.00    -0.101 C 
ATOM     39  C   UNL     1      32.873 -22.782 -18.381  0.00  0.00    -0.101 C 
ATOM     40  H   UNL     1      35.383 -19.490 -19.767  0.00  0.00    -0.079 HD
ATOM     41  H   UNL     1      33.847 -22.935 -20.147  0.00  0.00    -0.080 HD
ENDBRANCH  32  33
ENDBRANCH  26  32
ENDBRANCH  24  31
ENDBRANCH   1  23
TORSDOF 6
ENDMDL
MODEL 6
REMARK VINA RESULT:      -9.2      8.869     18.544
REMARK  Name = 5291
REMARK  6 active torsions:
REMARK  status: ('A' for Active; 'I' for Inactive)
REMARK    1  A    between atoms: C_1  and  N_23
REMARK    2  A    between atoms: C_2  and  N_8
REMARK    3  A    between atoms: C_12  and  C_17
REMARK    4  A    between atoms: C_24  and  C_31
REMARK    5  A    between atoms: C_26  and  C_32
REMARK    6  A    between atoms: C_32  and  N_33
REMARK                            x       y       z     vdW  Elec       q    Type
REMARK                         _______ _______ _______ _____ _____    ______ ____
ROOT
ATOM      1  C   UNL     1      32.618  -7.780 -24.296  0.00  0.00    +0.052 C 
ATOM      2  C   UNL     1      32.067  -5.611 -25.155  0.00  0.00    +0.055 C 
ATOM      3  C   UNL     1      32.225  -6.981 -25.357  0.00  0.00    +0.030 C 
ATOM      4  C   UNL     1      32.304  -5.059 -23.895  0.00  0.00    -0.008 C 
ATOM      5  C   UNL     1      32.857  -7.249 -23.041  0.00  0.00    +0.014 C 
ATOM      6  C   UNL     1      32.699  -5.878 -22.839  0.00  0.00    -0.002 C 
ATOM      7  C   UNL     1      32.143  -3.594 -23.651  0.00  0.00    +0.032 C 
ENDROOT
BRANCH   2   8
ATOM      8  N   UNL     1      31.665  -4.794 -26.236  0.00  0.00    -0.248 N 
ATOM      9  N   UNL     1      33.725  -3.953 -26.985  0.00  0.00    -0.337 NA
ATOM     10  N   UNL     1      31.665  -3.329 -28.069  0.00  0.00    -0.170 NA
ATOM     11  C   UNL     1      32.384  -3.989 -27.138  0.00  0.00    +0.149 C 
ATOM     12  C   UNL     1      34.383  -3.171 -27.865  0.00  0.00    +0.147 C 
ATOM     13  C   UNL     1      33.760  -2.448 -28.862  0.00  0.00    +0.055 C 
ATOM     14  C   UNL     1      32.387  -2.566 -28.917  0.00  0.00    +0.114 C 
ATOM     15  H   UNL     1      30.693  -4.789 -26.388  0.00  0.00    +0.165 HD
BRANCH  12  17
ATOM     16  N   UNL     1      37.844  -1.827 -27.545  0.00  0.00    -0.242 NA
ATOM     17  C   UNL     1      35.816  -3.135 -27.701  0.00  0.00    +0.050 C 
ATOM     18  C   UNL     1      36.551  -4.305 -27.542  0.00  0.00    +0.006 C 
ATOM     19  C   UNL     1      36.505  -1.932 -27.695  0.00  0.00    +0.101 C 
ATOM     20  C   UNL     1      37.930  -4.238 -27.386  0.00  0.00    +0.021 C 
ATOM     21  C   UNL     1      38.524  -2.986 -27.394  0.00  0.00    +0.099 C 
ENDBRANCH  12  17
ENDBRANCH   2   8
BRANCH   1  23
ATOM     22  O   UNL     1      35.064  -9.502 -24.086  0.00  0.00    -0.270 OA
ATOM     23  N   UNL     1      32.777  -9.172 -24.501  0.00  0.00    -0.280 N 
ATOM     24  C   UNL     1      33.944  -9.943 -24.392  0.00  0.00    +0.249 C 
ATOM     25  H   UNL     1      31.963  -9.664 -24.753  0.00  0.00    +0.155 HD
BRANCH  24  31
ATOM     26  C   UNL     1      33.522 -14.059 -25.267  0.00  0.00    -0.043 C 
ATOM     27  C   UNL     1      33.826 -13.171 -26.289  0.00  0.00    -0.006 C 
ATOM     28  C   UNL     1      33.355 -13.618 -23.962  0.00  0.00    -0.006 C 
ATOM     29  C   UNL     1      33.965 -11.814 -26.000  0.00  0.00    +0.004 C 
ATOM     30  C   UNL     1      33.495 -12.260 -23.673  0.00  0.00    +0.004 C 
ATOM     31  C   UNL     1      33.801 -11.358 -24.692  0.00  0.00    +0.054 C 
BRANCH  26  32
ATOM     32  C   UNL     1      33.372 -15.525 -25.578  0.00  0.00    -0.050 C 
BRANCH  32  33
ATOM     33  N   UNL     1      33.731 -16.364 -24.435  0.00  0.00    +0.387 N 
ATOM     34  N   UNL     1      35.475 -18.188 -23.024  0.00  0.00    +0.383 N 
ATOM     35  C   UNL     1      34.981 -15.900 -23.821  0.00  0.00    -0.100 C 
ATOM     36  C   UNL     1      33.848 -17.770 -24.837  0.00  0.00    -0.100 C 
ATOM     37  C   UNL     1      35.358 -16.780 -22.623  0.00  0.00    -0.101 C 
ATOM     38  C   UNL     1      34.225 -18.651 -23.641  0.00  0.00    -0.101 C 
ATOM     39  C   UNL     1      35.831 -19.025 -21.881  0.00  0.00    -0.101 C 
ATOM     40  H   UNL     1      32.985 -16.287 -23.744  0.00  0.00    -0.079 HD
ATOM     41  H   UNL     1      36.221 -18.264 -23.715  0.00  0.00    -0.080 HD
ENDBRANCH  32  33
ENDBRANCH  26  32
ENDBRANCH  24  31
ENDBRANCH   1  23
TORSDOF 6
ENDMDL
MODEL 7
REMARK VINA RESULT:      -9.1      2.737      6.081
REMARK  Name = 5291
REMARK  6 active torsions:
REMARK  status: ('A' for Active; 'I' for Inactive)
REMARK    1  A    between atoms: C_1  and  N_23
REMARK    2  A    between atoms: C_2  and  N_8
REMARK    3  A    between atoms: C_12  and  C_17
REMARK    4  A    between atoms: C_24  and  C_31
REMARK    5  A    between atoms: C_26  and  C_32
REMARK    6  A    between atoms: C_32  and  N_33
REMARK                            x       y       z     vdW  Elec       q    Type
REMARK                         _______ _______ _______ _____ _____    ______ ____
ROOT
ATOM      1  C   UNL     1      33.945 -19.827 -21.026  0.00  0.00    +0.052 C 
ATOM      2  C   UNL     1      35.057 -21.379 -19.577  0.00  0.00    +0.055 C 
ATOM      3  C   UNL     1      35.067 -20.187 -20.299  0.00  0.00    +0.030 C 
ATOM      4  C   UNL     1      33.926 -22.195 -19.593  0.00  0.00    -0.008 C 
ATOM      5  C   UNL     1      32.814 -20.625 -21.053  0.00  0.00    +0.014 C 
ATOM      6  C   UNL     1      32.805 -21.819 -20.332  0.00  0.00    -0.002 C 
ATOM      7  C   UNL     1      33.889 -23.480 -18.830  0.00  0.00    +0.032 C 
ENDROOT
BRANCH   2   8
ATOM      8  N   UNL     1      36.201 -21.747 -18.833  0.00  0.00    -0.248 N 
ATOM      9  N   UNL     1      35.235 -22.627 -16.883  0.00  0.00    -0.337 NA
ATOM     10  N   UNL     1      37.628 -22.552 -17.154  0.00  0.00    -0.170 NA
ATOM     11  C   UNL     1      36.363 -22.336 -17.566  0.00  0.00    +0.149 C 
ATOM     12  C   UNL     1      35.426 -23.189 -15.672  0.00  0.00    +0.147 C 
ATOM     13  C   UNL     1      36.671 -23.461 -15.141  0.00  0.00    +0.055 C 
ATOM     14  C   UNL     1      37.746 -23.117 -15.934  0.00  0.00    +0.114 C 
ATOM     15  H   UNL     1      37.050 -21.555 -19.292  0.00  0.00    +0.165 HD
BRANCH  12  17
ATOM     16  N   UNL     1      33.175 -24.536 -13.024  0.00  0.00    -0.242 NA
ATOM     17  C   UNL     1      34.220 -23.500 -14.944  0.00  0.00    +0.050 C 
ATOM     18  C   UNL     1      32.974 -23.096 -15.412  0.00  0.00    +0.006 C 
ATOM     19  C   UNL     1      34.265 -24.211 -13.755  0.00  0.00    +0.101 C 
ATOM     20  C   UNL     1      31.830 -23.411 -14.688  0.00  0.00    +0.021 C 
ATOM     21  C   UNL     1      31.983 -24.126 -13.511  0.00  0.00    +0.099 C 
ENDBRANCH  12  17
ENDBRANCH   2   8
BRANCH   1  23
ATOM     22  O   UNL     1      35.690 -18.951 -23.302  0.00  0.00    -0.270 OA
ATOM     23  N   UNL     1      33.954 -18.615 -21.758  0.00  0.00    -0.280 N 
ATOM     24  C   UNL     1      34.790 -18.243 -22.821  0.00  0.00    +0.249 C 
ATOM     25  H   UNL     1      33.286 -17.945 -21.486  0.00  0.00    +0.155 HD
BRANCH  24  31
ATOM     26  C   UNL     1      34.167 -14.362 -24.385  0.00  0.00    -0.043 C 
ATOM     27  C   UNL     1      34.554 -14.511 -23.060  0.00  0.00    -0.006 C 
ATOM     28  C   UNL     1      33.982 -15.467 -25.204  0.00  0.00    -0.006 C 
ATOM     29  C   UNL     1      34.760 -15.791 -22.545  0.00  0.00    +0.004 C 
ATOM     30  C   UNL     1      34.188 -16.747 -24.689  0.00  0.00    +0.004 C 
ATOM     31  C   UNL     1      34.577 -16.909 -23.359  0.00  0.00    +0.054 C 
BRANCH  26  32
ATOM     32  C   UNL     1      33.946 -12.982 -24.942  0.00  0.00    -0.050 C 
BRANCH  32  33
ATOM     33  N   UNL     1      33.580 -12.025 -23.898  0.00  0.00    +0.387 N 
ATOM     34  N   UNL     1      31.825 -10.065 -22.700  0.00  0.00    +0.383 N 
ATOM     35  C   UNL     1      32.329 -12.423 -23.242  0.00  0.00    -0.100 C 
ATOM     36  C   UNL     1      33.460 -10.671 -24.451  0.00  0.00    -0.100 C 
ATOM     37  C   UNL     1      31.945 -11.420 -22.148  0.00  0.00    -0.101 C 
ATOM     38  C   UNL     1      33.075  -9.667 -23.359  0.00  0.00    -0.101 C 
ATOM     39  C   UNL     1      31.461  -9.110 -21.656  0.00  0.00    -0.101 C 
ATOM     40  H   UNL     1      34.323 -12.023 -23.200  0.00  0.00    -0.079 HD
ATOM     41  H   UNL     1      31.081 -10.067 -23.397  0.00  0.00    -0.080 HD
ENDBRANCH  32  33
ENDBRANCH  26  32
ENDBRANCH  24  31
ENDBRANCH   1  23
TORSDOF 6
ENDMDL
