MODEL 1
REMARK VINA RESULT:     -11.9      0.000      0.000
REMARK  Name = 107971
REMARK  9 active torsions:
REMARK  status: ('A' for Active; 'I' for Inactive)
REMARK    1  A    between atoms: C_3  and  O_20
REMARK    2  A    between atoms: C_10  and  C_12
REMARK    3  A    between atoms: C_17  and  O_18
REMARK    4  A    between atoms: O_20  and  C_26
REMARK    5  A    between atoms: C_22  and  O_27
REMARK    6  A    between atoms: C_23  and  O_29
REMARK    7  A    between atoms: C_24  and  O_31
REMARK    8  A    between atoms: C_25  and  C_33
REMARK    9  A    between atoms: C_33  and  O_34
REMARK                            x       y       z     vdW  Elec       q    Type
REMARK                         _______ _______ _______ _____ _____    ______ ____
ROOT
ATOM      1  O   UNL     1      36.046 -21.585 -19.144  0.00  0.00    -0.450 OA
ATOM      2  O   UNL     1      32.414 -20.665 -20.760  0.00  0.00    -0.286 OA
ATOM      3  C   UNL     1      33.909 -23.511 -16.909  0.00  0.00    +0.144 C 
ATOM      4  C   UNL     1      35.040 -22.952 -17.503  0.00  0.00    +0.075 C 
ATOM      5  C   UNL     1      32.639 -23.223 -17.412  0.00  0.00    +0.037 C 
ATOM      6  C   UNL     1      34.899 -22.104 -18.602  0.00  0.00    +0.151 C 
ATOM      7  C   UNL     1      33.630 -21.816 -19.105  0.00  0.00    +0.074 C 
ATOM      8  C   UNL     1      32.495 -22.375 -18.511  0.00  0.00    +0.009 C 
ATOM      9  C   UNL     1      33.506 -20.920 -20.269  0.00  0.00    +0.202 C 
ATOM     10  C   UNL     1      34.775 -20.363 -20.814  0.00  0.00    +0.077 C 
ATOM     11  C   UNL     1      35.916 -20.735 -20.216  0.00  0.00    +0.183 C 
ENDROOT
BRANCH  10  12
ATOM     12  C   UNL     1      34.790 -19.426 -21.950  0.00  0.00    +0.006 C 
ATOM     13  C   UNL     1      34.425 -19.865 -23.226  0.00  0.00    +0.003 C 
ATOM     14  C   UNL     1      35.169 -18.096 -21.756  0.00  0.00    +0.003 C 
ATOM     15  C   UNL     1      34.440 -18.977 -24.301  0.00  0.00    +0.037 C 
ATOM     16  C   UNL     1      35.184 -17.209 -22.832  0.00  0.00    +0.037 C 
ATOM     17  C   UNL     1      34.820 -17.649 -24.105  0.00  0.00    +0.134 C 
BRANCH  17  18
ATOM     18  O   UNL     1      34.834 -16.783 -25.155  0.00  0.00    -0.506 OA
ATOM     19  H   UNL     1      34.777 -17.109 -26.031  0.00  0.00    +0.292 HD
ENDBRANCH  17  18
ENDBRANCH  10  12
BRANCH   3  20
ATOM     20  O   UNL     1      34.042 -24.339 -15.835  0.00  0.00    -0.450 OA
BRANCH  20  26
ATOM     21  O   UNL     1      36.207 -24.671 -15.032  0.00  0.00    -0.316 OA
ATOM     22  C   UNL     1      35.409 -24.010 -12.354  0.00  0.00    +0.173 C 
ATOM     23  C   UNL     1      36.751 -24.670 -12.669  0.00  0.00    +0.169 C 
ATOM     24  C   UNL     1      34.395 -24.258 -13.470  0.00  0.00    +0.210 C 
ATOM     25  C   UNL     1      37.213 -24.310 -14.084  0.00  0.00    +0.177 C 
ATOM     26  C   UNL     1      34.993 -23.950 -14.843  0.00  0.00    +0.318 C 
BRANCH  22  27
ATOM     27  O   UNL     1      34.918 -24.570 -11.134  0.00  0.00    -0.379 OA
ATOM     28  H   UNL     1      34.335 -23.930 -10.696  0.00  0.00    +0.211 HD
ENDBRANCH  22  27
BRANCH  23  29
ATOM     29  O   UNL     1      37.726 -24.227 -11.729  0.00  0.00    -0.379 OA
ATOM     30  H   UNL     1      38.605 -24.524 -12.011  0.00  0.00    +0.211 HD
ENDBRANCH  23  29
BRANCH  24  31
ATOM     31  O   UNL     1      33.261 -23.412 -13.276  0.00  0.00    -0.377 OA
ATOM     32  H   UNL     1      33.269 -23.064 -12.371  0.00  0.00    +0.211 HD
ENDBRANCH  24  31
BRANCH  25  33
ATOM     33  C   UNL     1      38.493 -25.048 -14.465  0.00  0.00    +0.169 C 
BRANCH  33  34
ATOM     34  O   UNL     1      38.631 -26.174 -13.618  0.00  0.00    -0.379 OA
ATOM     35  H   UNL     1      37.780 -26.366 -13.194  0.00  0.00    +0.211 HD
ENDBRANCH  33  34
ENDBRANCH  25  33
ENDBRANCH  20  26
ENDBRANCH   3  20
TORSDOF 9
ENDMDL
MODEL 2
REMARK VINA RESULT:     -10.9      1.326      2.025
REMARK  Name = 107971
REMARK  9 active torsions:
REMARK  status: ('A' for Active; 'I' for Inactive)
REMARK    1  A    between atoms: C_3  and  O_20
REMARK    2  A    between atoms: C_10  and  C_12
REMARK    3  A    between atoms: C_17  and  O_18
REMARK    4  A    between atoms: O_20  and  C_26
REMARK    5  A    between atoms: C_22  and  O_27
REMARK    6  A    between atoms: C_23  and  O_29
REMARK    7  A    between atoms: C_24  and  O_31
REMARK    8  A    between atoms: C_25  and  C_33
REMARK    9  A    between atoms: C_33  and  O_34
REMARK                            x       y       z     vdW  Elec       q    Type
REMARK                         _______ _______ _______ _____ _____    ______ ____
ROOT
ATOM      1  O   UNL     1      36.379 -20.543 -20.188  0.00  0.00    -0.450 OA
ATOM      2  O   UNL     1      32.583 -19.923 -21.548  0.00  0.00    -0.286 OA
ATOM      3  C   UNL     1      34.609 -22.942 -18.093  0.00  0.00    +0.144 C 
ATOM      4  C   UNL     1      35.632 -22.188 -18.667  0.00  0.00    +0.075 C 
ATOM      5  C   UNL     1      33.289 -22.764 -18.511  0.00  0.00    +0.037 C 
ATOM      6  C   UNL     1      35.333 -21.255 -19.660  0.00  0.00    +0.151 C 
ATOM      7  C   UNL     1      34.014 -21.077 -20.078  0.00  0.00    +0.074 C 
ATOM      8  C   UNL     1      32.987 -21.832 -19.504  0.00  0.00    +0.009 C 
ATOM      9  C   UNL     1      33.722 -20.088 -21.132  0.00  0.00    +0.202 C 
ATOM     10  C   UNL     1      34.884 -19.324 -21.663  0.00  0.00    +0.077 C 
ATOM     11  C   UNL     1      36.092 -19.610 -21.155  0.00  0.00    +0.183 C 
ENDROOT
BRANCH  10  12
ATOM     12  C   UNL     1      34.726 -18.280 -22.690  0.00  0.00    +0.006 C 
ATOM     13  C   UNL     1      35.014 -16.948 -22.385  0.00  0.00    +0.003 C 
ATOM     14  C   UNL     1      34.289 -18.620 -23.972  0.00  0.00    +0.003 C 
ATOM     15  C   UNL     1      34.864 -15.960 -23.359  0.00  0.00    +0.037 C 
ATOM     16  C   UNL     1      34.139 -17.632 -24.945  0.00  0.00    +0.037 C 
ATOM     17  C   UNL     1      34.426 -16.302 -24.639  0.00  0.00    +0.134 C 
BRANCH  17  18
ATOM     18  O   UNL     1      34.280 -15.338 -25.588  0.00  0.00    -0.506 OA
ATOM     19  H   UNL     1      33.496 -15.300 -26.099  0.00  0.00    +0.292 HD
ENDBRANCH  17  18
ENDBRANCH  10  12
BRANCH   3  20
ATOM     20  O   UNL     1      34.898 -23.853 -17.121  0.00  0.00    -0.450 OA
BRANCH  20  26
ATOM     21  O   UNL     1      35.873 -23.557 -15.023  0.00  0.00    -0.316 OA
ATOM     22  C   UNL     1      33.379 -24.075 -13.695  0.00  0.00    +0.173 C 
ATOM     23  C   UNL     1      34.714 -24.048 -12.951  0.00  0.00    +0.169 C 
ATOM     24  C   UNL     1      33.582 -24.348 -15.185  0.00  0.00    +0.210 C 
ATOM     25  C   UNL     1      35.716 -23.138 -13.666  0.00  0.00    +0.177 C 
ATOM     26  C   UNL     1      34.666 -23.444 -15.773  0.00  0.00    +0.318 C 
BRANCH  22  27
ATOM     27  O   UNL     1      32.577 -25.113 -13.128  0.00  0.00    -0.379 OA
ATOM     28  H   UNL     1      32.709 -25.135 -12.167  0.00  0.00    +0.211 HD
ENDBRANCH  22  27
BRANCH  23  29
ATOM     29  O   UNL     1      34.504 -23.568 -11.625  0.00  0.00    -0.379 OA
ATOM     30  H   UNL     1      34.589 -22.602 -11.614  0.00  0.00    +0.211 HD
ENDBRANCH  23  29
BRANCH  24  31
ATOM     31  O   UNL     1      32.363 -24.096 -15.884  0.00  0.00    -0.377 OA
ATOM     32  H   UNL     1      31.774 -24.861 -15.792  0.00  0.00    +0.211 HD
ENDBRANCH  24  31
BRANCH  25  33
ATOM     33  C   UNL     1      37.091 -23.185 -13.007  0.00  0.00    +0.169 C 
BRANCH  33  34
ATOM     34  O   UNL     1      37.922 -24.049 -13.761  0.00  0.00    -0.379 OA
ATOM     35  H   UNL     1      38.691 -23.555 -14.085  0.00  0.00    +0.211 HD
ENDBRANCH  33  34
ENDBRANCH  25  33
ENDBRANCH  20  26
ENDBRANCH   3  20
TORSDOF 9
ENDMDL
MODEL 3
REMARK VINA RESULT:     -10.8      1.762      3.419
REMARK  Name = 107971
REMARK  9 active torsions:
REMARK  status: ('A' for Active; 'I' for Inactive)
REMARK    1  A    between atoms: C_3  and  O_20
REMARK    2  A    between atoms: C_10  and  C_12
REMARK    3  A    between atoms: C_17  and  O_18
REMARK    4  A    between atoms: O_20  and  C_26
REMARK    5  A    between atoms: C_22  and  O_27
REMARK    6  A    between atoms: C_23  and  O_29
REMARK    7  A    between atoms: C_24  and  O_31
REMARK    8  A    between atoms: C_25  and  C_33
REMARK    9  A    between atoms: C_33  and  O_34
REMARK                            x       y       z     vdW  Elec       q    Type
REMARK                         _______ _______ _______ _____ _____    ______ ____
ROOT
ATOM      1  O   UNL     1      36.476 -20.384 -20.111  0.00  0.00    -0.450 OA
ATOM      2  O   UNL     1      32.670 -20.159 -21.564  0.00  0.00    -0.286 OA
ATOM      3  C   UNL     1      34.860 -22.773 -17.886  0.00  0.00    +0.144 C 
ATOM      4  C   UNL     1      35.832 -21.979 -18.494  0.00  0.00    +0.075 C 
ATOM      5  C   UNL     1      33.539 -22.729 -18.333  0.00  0.00    +0.037 C 
ATOM      6  C   UNL     1      35.479 -21.140 -19.552  0.00  0.00    +0.151 C 
ATOM      7  C   UNL     1      34.159 -21.096 -19.999  0.00  0.00    +0.074 C 
ATOM      8  C   UNL     1      33.184 -21.891 -19.391  0.00  0.00    +0.009 C 
ATOM      9  C   UNL     1      33.811 -20.205 -21.121  0.00  0.00    +0.202 C 
ATOM     10  C   UNL     1      34.919 -19.387 -21.686  0.00  0.00    +0.077 C 
ATOM     11  C   UNL     1      36.136 -19.542 -21.143  0.00  0.00    +0.183 C 
ENDROOT
BRANCH  10  12
ATOM     12  C   UNL     1      34.700 -18.429 -22.783  0.00  0.00    +0.006 C 
ATOM     13  C   UNL     1      34.998 -17.077 -22.603  0.00  0.00    +0.003 C 
ATOM     14  C   UNL     1      34.193 -18.871 -24.007  0.00  0.00    +0.003 C 
ATOM     15  C   UNL     1      34.791 -16.171 -23.642  0.00  0.00    +0.037 C 
ATOM     16  C   UNL     1      33.984 -17.964 -25.046  0.00  0.00    +0.037 C 
ATOM     17  C   UNL     1      34.283 -16.614 -24.864  0.00  0.00    +0.134 C 
BRANCH  17  18
ATOM     18  O   UNL     1      34.080 -15.729 -25.878  0.00  0.00    -0.506 OA
ATOM     19  H   UNL     1      33.620 -15.998 -26.648  0.00  0.00    +0.292 HD
ENDBRANCH  17  18
ENDBRANCH  10  12
BRANCH   3  20
ATOM     20  O   UNL     1      35.201 -23.592 -16.851  0.00  0.00    -0.450 OA
BRANCH  20  26
ATOM     21  O   UNL     1      33.070 -23.186 -15.993  0.00  0.00    -0.316 OA
ATOM     22  C   UNL     1      33.535 -24.944 -13.770  0.00  0.00    +0.173 C 
ATOM     23  C   UNL     1      32.354 -23.975 -13.815  0.00  0.00    +0.169 C 
ATOM     24  C   UNL     1      34.659 -24.490 -14.701  0.00  0.00    +0.210 C 
ATOM     25  C   UNL     1      31.947 -23.682 -15.261  0.00  0.00    +0.177 C 
ATOM     26  C   UNL     1      34.124 -24.140 -16.089  0.00  0.00    +0.318 C 
BRANCH  22  27
ATOM     27  O   UNL     1      34.019 -24.988 -12.427  0.00  0.00    -0.379 OA
ATOM     28  H   UNL     1      34.966 -25.201 -12.430  0.00  0.00    +0.211 HD
ENDBRANCH  22  27
BRANCH  23  29
ATOM     29  O   UNL     1      31.248 -24.547 -13.121  0.00  0.00    -0.379 OA
ATOM     30  H   UNL     1      31.074 -25.436 -13.468  0.00  0.00    +0.211 HD
ENDBRANCH  23  29
BRANCH  24  31
ATOM     31  O   UNL     1      35.612 -25.543 -14.841  0.00  0.00    -0.377 OA
ATOM     32  H   UNL     1      35.961 -25.782 -13.968  0.00  0.00    +0.211 HD
ENDBRANCH  24  31
BRANCH  25  33
ATOM     33  C   UNL     1      30.846 -22.628 -15.335  0.00  0.00    +0.169 C 
BRANCH  33  34
ATOM     34  O   UNL     1      29.602 -23.259 -15.091  0.00  0.00    -0.379 OA
ATOM     35  H   UNL     1      29.643 -24.180 -15.391  0.00  0.00    +0.211 HD
ENDBRANCH  33  34
ENDBRANCH  25  33
ENDBRANCH  20  26
ENDBRANCH   3  20
TORSDOF 9
ENDMDL
MODEL 4
REMARK VINA RESULT:     -10.2      5.738     13.443
REMARK  Name = 107971
REMARK  9 active torsions:
REMARK  status: ('A' for Active; 'I' for Inactive)
REMARK    1  A    between atoms: C_3  and  O_20
REMARK    2  A    between atoms: C_10  and  C_12
REMARK    3  A    between atoms: C_17  and  O_18
REMARK    4  A    between atoms: O_20  and  C_26
REMARK    5  A    between atoms: C_22  and  O_27
REMARK    6  A    between atoms: C_23  and  O_29
REMARK    7  A    between atoms: C_24  and  O_31
REMARK    8  A    between atoms: C_25  and  C_33
REMARK    9  A    between atoms: C_33  and  O_34
REMARK                            x       y       z     vdW  Elec       q    Type
REMARK                         _______ _______ _______ _____ _____    ______ ____
ROOT
ATOM      1  O   UNL     1      34.531 -14.688 -21.813  0.00  0.00    -0.450 OA
ATOM      2  O   UNL     1      34.423 -17.857 -24.381  0.00  0.00    -0.286 OA
ATOM      3  C   UNL     1      33.729 -12.916 -24.894  0.00  0.00    +0.144 C 
ATOM      4  C   UNL     1      34.013 -13.180 -23.555  0.00  0.00    +0.075 C 
ATOM      5  C   UNL     1      33.690 -13.960 -25.820  0.00  0.00    +0.037 C 
ATOM      6  C   UNL     1      34.258 -14.490 -23.142  0.00  0.00    +0.151 C 
ATOM      7  C   UNL     1      34.219 -15.533 -24.067  0.00  0.00    +0.074 C 
ATOM      8  C   UNL     1      33.935 -15.271 -25.410  0.00  0.00    +0.009 C 
ATOM      9  C   UNL     1      34.477 -16.910 -23.608  0.00  0.00    +0.202 C 
ATOM     10  C   UNL     1      34.789 -17.078 -22.162  0.00  0.00    +0.077 C 
ATOM     11  C   UNL     1      34.790 -15.973 -21.401  0.00  0.00    +0.183 C 
ENDROOT
BRANCH  10  12
ATOM     12  C   UNL     1      35.103 -18.394 -21.580  0.00  0.00    +0.006 C 
ATOM     13  C   UNL     1      34.080 -19.307 -21.318  0.00  0.00    +0.003 C 
ATOM     14  C   UNL     1      36.427 -18.732 -21.288  0.00  0.00    +0.003 C 
ATOM     15  C   UNL     1      34.379 -20.553 -20.767  0.00  0.00    +0.037 C 
ATOM     16  C   UNL     1      36.725 -19.978 -20.737  0.00  0.00    +0.037 C 
ATOM     17  C   UNL     1      35.701 -20.889 -20.476  0.00  0.00    +0.134 C 
BRANCH  17  18
ATOM     18  O   UNL     1      35.992 -22.105 -19.938  0.00  0.00    -0.506 OA
ATOM     19  H   UNL     1      36.740 -22.203 -19.381  0.00  0.00    +0.292 HD
ENDBRANCH  17  18
ENDBRANCH  10  12
BRANCH   3  20
ATOM     20  O   UNL     1      33.491 -11.637 -25.301  0.00  0.00    -0.450 OA
BRANCH  20  26
ATOM     21  O   UNL     1      32.481 -10.058 -23.913  0.00  0.00    -0.316 OA
ATOM     22  C   UNL     1      34.760  -8.318 -24.090  0.00  0.00    +0.173 C 
ATOM     23  C   UNL     1      33.418  -7.855 -23.524  0.00  0.00    +0.169 C 
ATOM     24  C   UNL     1      34.587  -9.532 -25.002  0.00  0.00    +0.210 C 
ATOM     25  C   UNL     1      32.644  -9.035 -22.928  0.00  0.00    +0.177 C 
ATOM     26  C   UNL     1      33.725 -10.607 -24.340  0.00  0.00    +0.318 C 
BRANCH  22  27
ATOM     27  O   UNL     1      35.321  -7.238 -24.837  0.00  0.00    -0.379 OA
ATOM     28  H   UNL     1      34.628  -6.589 -25.037  0.00  0.00    +0.211 HD
ENDBRANCH  22  27
BRANCH  23  29
ATOM     29  O   UNL     1      33.645  -6.881 -22.509  0.00  0.00    -0.379 OA
ATOM     30  H   UNL     1      33.438  -5.999 -22.856  0.00  0.00    +0.211 HD
ENDBRANCH  23  29
BRANCH  24  31
ATOM     31  O   UNL     1      35.866 -10.097 -25.287  0.00  0.00    -0.377 OA
ATOM     32  H   UNL     1      36.350  -9.514 -25.892  0.00  0.00    +0.211 HD
ENDBRANCH  24  31
BRANCH  25  33
ATOM     33  C   UNL     1      31.252  -8.619 -22.462  0.00  0.00    +0.169 C 
BRANCH  33  34
ATOM     34  O   UNL     1      30.863  -7.463 -23.182  0.00  0.00    -0.379 OA
ATOM     35  H   UNL     1      30.301  -7.722 -23.929  0.00  0.00    +0.211 HD
ENDBRANCH  33  34
ENDBRANCH  25  33
ENDBRANCH  20  26
ENDBRANCH   3  20
TORSDOF 9
ENDMDL
MODEL 5
REMARK VINA RESULT:     -10.0      1.373      2.303
REMARK  Name = 107971
REMARK  9 active torsions:
REMARK  status: ('A' for Active; 'I' for Inactive)
REMARK    1  A    between atoms: C_3  and  O_20
REMARK    2  A    between atoms: C_10  and  C_12
REMARK    3  A    between atoms: C_17  and  O_18
REMARK    4  A    between atoms: O_20  and  C_26
REMARK    5  A    between atoms: C_22  and  O_27
REMARK    6  A    between atoms: C_23  and  O_29
REMARK    7  A    between atoms: C_24  and  O_31
REMARK    8  A    between atoms: C_25  and  C_33
REMARK    9  A    between atoms: C_33  and  O_34
REMARK                            x       y       z     vdW  Elec       q    Type
REMARK                         _______ _______ _______ _____ _____    ______ ____
ROOT
ATOM      1  O   UNL     1      36.186 -22.324 -17.989  0.00  0.00    -0.450 OA
ATOM      2  O   UNL     1      32.715 -21.385 -19.917  0.00  0.00    -0.286 OA
ATOM      3  C   UNL     1      33.841 -24.178 -15.906  0.00  0.00    +0.144 C 
ATOM      4  C   UNL     1      35.026 -23.647 -16.414  0.00  0.00    +0.075 C 
ATOM      5  C   UNL     1      32.622 -23.882 -16.518  0.00  0.00    +0.037 C 
ATOM      6  C   UNL     1      34.990 -22.817 -17.535  0.00  0.00    +0.151 C 
ATOM      7  C   UNL     1      33.772 -22.521 -18.146  0.00  0.00    +0.074 C 
ATOM      8  C   UNL     1      32.583 -23.053 -17.640  0.00  0.00    +0.009 C 
ATOM      9  C   UNL     1      33.759 -21.646 -19.333  0.00  0.00    +0.202 C 
ATOM     10  C   UNL     1      35.076 -21.116 -19.780  0.00  0.00    +0.077 C 
ATOM     11  C   UNL     1      36.158 -21.493 -19.083  0.00  0.00    +0.183 C 
ENDROOT
BRANCH  10  12
ATOM     12  C   UNL     1      35.200 -20.202 -20.927  0.00  0.00    +0.006 C 
ATOM     13  C   UNL     1      34.125 -20.024 -21.802  0.00  0.00    +0.003 C 
ATOM     14  C   UNL     1      36.393 -19.508 -21.144  0.00  0.00    +0.003 C 
ATOM     15  C   UNL     1      34.243 -19.157 -22.888  0.00  0.00    +0.037 C 
ATOM     16  C   UNL     1      36.511 -18.642 -22.231  0.00  0.00    +0.037 C 
ATOM     17  C   UNL     1      35.436 -18.466 -23.104  0.00  0.00    +0.134 C 
BRANCH  17  18
ATOM     18  O   UNL     1      35.551 -17.621 -24.164  0.00  0.00    -0.506 OA
ATOM     19  H   UNL     1      34.875 -17.589 -24.811  0.00  0.00    +0.292 HD
ENDBRANCH  17  18
ENDBRANCH  10  12
BRANCH   3  20
ATOM     20  O   UNL     1      33.872 -24.987 -14.810  0.00  0.00    -0.450 OA
BRANCH  20  26
ATOM     21  O   UNL     1      35.645 -23.913 -13.739  0.00  0.00    -0.316 OA
ATOM     22  C   UNL     1      37.516 -25.879 -14.679  0.00  0.00    +0.173 C 
ATOM     23  C   UNL     1      37.961 -24.553 -14.063  0.00  0.00    +0.169 C 
ATOM     24  C   UNL     1      36.089 -25.788 -15.218  0.00  0.00    +0.210 C 
ATOM     25  C   UNL     1      36.908 -24.030 -13.082  0.00  0.00    +0.177 C 
ATOM     26  C   UNL     1      35.144 -25.170 -14.187  0.00  0.00    +0.318 C 
BRANCH  22  27
ATOM     27  O   UNL     1      38.409 -26.191 -15.749  0.00  0.00    -0.379 OA
ATOM     28  H   UNL     1      38.020 -26.884 -16.305  0.00  0.00    +0.211 HD
ENDBRANCH  22  27
BRANCH  23  29
ATOM     29  O   UNL     1      39.194 -24.743 -13.373  0.00  0.00    -0.379 OA
ATOM     30  H   UNL     1      39.252 -24.116 -12.636  0.00  0.00    +0.211 HD
ENDBRANCH  23  29
BRANCH  24  31
ATOM     31  O   UNL     1      35.616 -27.098 -15.529  0.00  0.00    -0.377 OA
ATOM     32  H   UNL     1      36.338 -27.620 -15.912  0.00  0.00    +0.211 HD
ENDBRANCH  24  31
BRANCH  25  33
ATOM     33  C   UNL     1      37.276 -22.651 -12.543  0.00  0.00    +0.169 C 
BRANCH  33  34
ATOM     34  O   UNL     1      38.402 -22.785 -11.694  0.00  0.00    -0.379 OA
ATOM     35  H   UNL     1      38.138 -23.236 -10.877  0.00  0.00    +0.211 HD
ENDBRANCH  33  34
ENDBRANCH  25  33
ENDBRANCH  20  26
ENDBRANCH   3  20
TORSDOF 9
ENDMDL
MODEL 6
REMARK VINA RESULT:      -9.8      1.590      2.905
REMARK  Name = 107971
REMARK  9 active torsions:
REMARK  status: ('A' for Active; 'I' for Inactive)
REMARK    1  A    between atoms: C_3  and  O_20
REMARK    2  A    between atoms: C_10  and  C_12
REMARK    3  A    between atoms: C_17  and  O_18
REMARK    4  A    between atoms: O_20  and  C_26
REMARK    5  A    between atoms: C_22  and  O_27
REMARK    6  A    between atoms: C_23  and  O_29
REMARK    7  A    between atoms: C_24  and  O_31
REMARK    8  A    between atoms: C_25  and  C_33
REMARK    9  A    between atoms: C_33  and  O_34
REMARK                            x       y       z     vdW  Elec       q    Type
REMARK                         _______ _______ _______ _____ _____    ______ ____
ROOT
ATOM      1  O   UNL     1      37.499 -19.434 -19.579  0.00  0.00    -0.450 OA
ATOM      2  O   UNL     1      33.980 -20.953 -20.978  0.00  0.00    -0.286 OA
ATOM      3  C   UNL     1      36.910 -21.977 -17.038  0.00  0.00    +0.144 C 
ATOM      4  C   UNL     1      37.499 -20.940 -17.761  0.00  0.00    +0.075 C 
ATOM      5  C   UNL     1      35.701 -22.528 -17.463  0.00  0.00    +0.037 C 
ATOM      6  C   UNL     1      36.874 -20.454 -18.910  0.00  0.00    +0.151 C 
ATOM      7  C   UNL     1      35.665 -21.005 -19.334  0.00  0.00    +0.074 C 
ATOM      8  C   UNL     1      35.074 -22.044 -18.612  0.00  0.00    +0.009 C 
ATOM      9  C   UNL     1      35.026 -20.478 -20.554  0.00  0.00    +0.202 C 
ATOM     10  C   UNL     1      35.727 -19.357 -21.239  0.00  0.00    +0.077 C 
ATOM     11  C   UNL     1      36.883 -18.937 -20.703  0.00  0.00    +0.183 C 
ENDROOT
BRANCH  10  12
ATOM     12  C   UNL     1      35.178 -18.714 -22.444  0.00  0.00    +0.006 C 
ATOM     13  C   UNL     1      34.630 -19.493 -23.466  0.00  0.00    +0.003 C 
ATOM     14  C   UNL     1      35.204 -17.323 -22.569  0.00  0.00    +0.003 C 
ATOM     15  C   UNL     1      34.110 -18.883 -24.607  0.00  0.00    +0.037 C 
ATOM     16  C   UNL     1      34.685 -16.714 -23.711  0.00  0.00    +0.037 C 
ATOM     17  C   UNL     1      34.137 -17.493 -24.730  0.00  0.00    +0.134 C 
BRANCH  17  18
ATOM     18  O   UNL     1      33.630 -16.898 -25.845  0.00  0.00    -0.506 OA
ATOM     19  H   UNL     1      33.354 -16.004 -25.812  0.00  0.00    +0.292 HD
ENDBRANCH  17  18
ENDBRANCH  10  12
BRANCH   3  20
ATOM     20  O   UNL     1      37.517 -22.453 -15.914  0.00  0.00    -0.450 OA
BRANCH  20  26
ATOM     21  O   UNL     1      36.120 -23.693 -14.516  0.00  0.00    -0.316 OA
ATOM     22  C   UNL     1      38.054 -25.807 -14.314  0.00  0.00    +0.173 C 
ATOM     23  C   UNL     1      36.843 -25.713 -13.386  0.00  0.00    +0.169 C 
ATOM     24  C   UNL     1      38.393 -24.446 -14.921  0.00  0.00    +0.210 C 
ATOM     25  C   UNL     1      35.687 -24.982 -14.075  0.00  0.00    +0.177 C 
ATOM     26  C   UNL     1      37.149 -23.770 -15.499  0.00  0.00    +0.318 C 
BRANCH  22  27
ATOM     27  O   UNL     1      39.164 -26.274 -13.546  0.00  0.00    -0.379 OA
ATOM     28  H   UNL     1      39.957 -26.295 -14.103  0.00  0.00    +0.211 HD
ENDBRANCH  22  27
BRANCH  23  29
ATOM     29  O   UNL     1      36.421 -27.027 -13.027  0.00  0.00    -0.379 OA
ATOM     30  H   UNL     1      36.977 -27.679 -13.480  0.00  0.00    +0.211 HD
ENDBRANCH  23  29
BRANCH  24  31
ATOM     31  O   UNL     1      39.338 -24.619 -15.976  0.00  0.00    -0.377 OA
ATOM     32  H   UNL     1      40.091 -25.138 -15.653  0.00  0.00    +0.211 HD
ENDBRANCH  24  31
BRANCH  25  33
ATOM     33  C   UNL     1      34.508 -24.773 -13.129  0.00  0.00    +0.169 C 
BRANCH  33  34
ATOM     34  O   UNL     1      34.896 -25.179 -11.829  0.00  0.00    -0.379 OA
ATOM     35  H   UNL     1      34.114 -25.225 -11.259  0.00  0.00    +0.211 HD
ENDBRANCH  33  34
ENDBRANCH  25  33
ENDBRANCH  20  26
ENDBRANCH   3  20
TORSDOF 9
ENDMDL
MODEL 7
REMARK VINA RESULT:      -9.7      5.611     13.402
REMARK  Name = 107971
REMARK  9 active torsions:
REMARK  status: ('A' for Active; 'I' for Inactive)
REMARK    1  A    between atoms: C_3  and  O_20
REMARK    2  A    between atoms: C_10  and  C_12
REMARK    3  A    between atoms: C_17  and  O_18
REMARK    4  A    between atoms: O_20  and  C_26
REMARK    5  A    between atoms: C_22  and  O_27
REMARK    6  A    between atoms: C_23  and  O_29
REMARK    7  A    between atoms: C_24  and  O_31
REMARK    8  A    between atoms: C_25  and  C_33
REMARK    9  A    between atoms: C_33  and  O_34
REMARK                            x       y       z     vdW  Elec       q    Type
REMARK                         _______ _______ _______ _____ _____    ______ ____
ROOT
ATOM      1  O   UNL     1      34.673 -16.772 -24.428  0.00  0.00    -0.450 OA
ATOM      2  O   UNL     1      34.636 -16.377 -20.368  0.00  0.00    -0.286 OA
ATOM      3  C   UNL     1      34.099 -13.182 -24.197  0.00  0.00    +0.144 C 
ATOM      4  C   UNL     1      34.304 -14.458 -24.720  0.00  0.00    +0.075 C 
ATOM      5  C   UNL     1      34.066 -12.988 -22.815  0.00  0.00    +0.037 C 
ATOM      6  C   UNL     1      34.475 -15.542 -23.858  0.00  0.00    +0.151 C 
ATOM      7  C   UNL     1      34.442 -15.348 -22.477  0.00  0.00    +0.074 C 
ATOM      8  C   UNL     1      34.236 -14.070 -21.951  0.00  0.00    +0.009 C 
ATOM      9  C   UNL     1      34.629 -16.508 -21.585  0.00  0.00    +0.202 C 
ATOM     10  C   UNL     1      34.821 -17.828 -22.246  0.00  0.00    +0.077 C 
ATOM     11  C   UNL     1      34.826 -17.848 -23.587  0.00  0.00    +0.183 C 
ENDROOT
BRANCH  10  12
ATOM     12  C   UNL     1      34.981 -19.070 -21.473  0.00  0.00    +0.006 C 
ATOM     13  C   UNL     1      33.863 -19.842 -21.145  0.00  0.00    +0.003 C 
ATOM     14  C   UNL     1      36.251 -19.482 -21.064  0.00  0.00    +0.003 C 
ATOM     15  C   UNL     1      34.016 -21.019 -20.413  0.00  0.00    +0.037 C 
ATOM     16  C   UNL     1      36.403 -20.659 -20.331  0.00  0.00    +0.037 C 
ATOM     17  C   UNL     1      35.285 -21.428 -20.005  0.00  0.00    +0.134 C 
BRANCH  17  18
ATOM     18  O   UNL     1      35.434 -22.576 -19.290  0.00  0.00    -0.506 OA
ATOM     19  H   UNL     1      34.857 -22.759 -18.574  0.00  0.00    +0.292 HD
ENDBRANCH  17  18
ENDBRANCH  10  12
BRANCH   3  20
ATOM     20  O   UNL     1      33.930 -12.122 -25.037  0.00  0.00    -0.450 OA
BRANCH  20  26
ATOM     21  O   UNL     1      32.735 -10.360 -24.081  0.00  0.00    -0.316 OA
ATOM     22  C   UNL     1      34.664  -8.440 -24.997  0.00  0.00    +0.173 C 
ATOM     23  C   UNL     1      33.293  -8.032 -24.459  0.00  0.00    +0.169 C 
ATOM     24  C   UNL     1      34.657  -9.888 -25.488  0.00  0.00    +0.210 C 
ATOM     25  C   UNL     1      32.768  -9.071 -23.465  0.00  0.00    +0.177 C 
ATOM     26  C   UNL     1      34.031 -10.822 -24.453  0.00  0.00    +0.318 C 
BRANCH  22  27
ATOM     27  O   UNL     1      34.989  -7.572 -26.085  0.00  0.00    -0.379 OA
ATOM     28  H   UNL     1      35.752  -7.928 -26.566  0.00  0.00    +0.211 HD
ENDBRANCH  22  27
BRANCH  23  29
ATOM     29  O   UNL     1      33.400  -6.769 -23.807  0.00  0.00    -0.379 OA
ATOM     30  H   UNL     1      32.973  -6.088 -24.349  0.00  0.00    +0.211 HD
ENDBRANCH  23  29
BRANCH  24  31
ATOM     31  O   UNL     1      35.999 -10.315 -25.723  0.00  0.00    -0.377 OA
ATOM     32  H   UNL     1      36.578  -9.952 -25.035  0.00  0.00    +0.211 HD
ENDBRANCH  24  31
BRANCH  25  33
ATOM     33  C   UNL     1      31.352  -8.745 -23.003  0.00  0.00    +0.169 C 
BRANCH  33  34
ATOM     34  O   UNL     1      31.429  -7.816 -21.937  0.00  0.00    -0.379 OA
ATOM     35  H   UNL     1      32.284  -7.911 -21.488  0.00  0.00    +0.211 HD
ENDBRANCH  33  34
ENDBRANCH  25  33
ENDBRANCH  20  26
ENDBRANCH   3  20
TORSDOF 9
ENDMDL
MODEL 8
REMARK VINA RESULT:      -9.4      2.657      4.421
REMARK  Name = 107971
REMARK  9 active torsions:
REMARK  status: ('A' for Active; 'I' for Inactive)
REMARK    1  A    between atoms: C_3  and  O_20
REMARK    2  A    between atoms: C_10  and  C_12
REMARK    3  A    between atoms: C_17  and  O_18
REMARK    4  A    between atoms: O_20  and  C_26
REMARK    5  A    between atoms: C_22  and  O_27
REMARK    6  A    between atoms: C_23  and  O_29
REMARK    7  A    between atoms: C_24  and  O_31
REMARK    8  A    between atoms: C_25  and  C_33
REMARK    9  A    between atoms: C_33  and  O_34
REMARK                            x       y       z     vdW  Elec       q    Type
REMARK                         _______ _______ _______ _____ _____    ______ ____
ROOT
ATOM      1  O   UNL     1      35.609 -21.405 -19.526  0.00  0.00    -0.450 OA
ATOM      2  O   UNL     1      32.097 -20.126 -21.162  0.00  0.00    -0.286 OA
ATOM      3  C   UNL     1      33.275 -23.110 -17.308  0.00  0.00    +0.144 C 
ATOM      4  C   UNL     1      34.460 -22.667 -17.893  0.00  0.00    +0.075 C 
ATOM      5  C   UNL     1      32.044 -22.696 -17.818  0.00  0.00    +0.037 C 
ATOM      6  C   UNL     1      34.412 -21.808 -18.992  0.00  0.00    +0.151 C 
ATOM      7  C   UNL     1      33.182 -21.394 -19.502  0.00  0.00    +0.074 C 
ATOM      8  C   UNL     1      31.993 -21.837 -18.916  0.00  0.00    +0.009 C 
ATOM      9  C   UNL     1      33.155 -20.489 -20.665  0.00  0.00    +0.202 C 
ATOM     10  C   UNL     1      34.477 -20.061 -21.202  0.00  0.00    +0.077 C 
ATOM     11  C   UNL     1      35.571 -20.546 -20.597  0.00  0.00    +0.183 C 
ENDROOT
BRANCH  10  12
ATOM     12  C   UNL     1      34.593 -19.129 -22.336  0.00  0.00    +0.006 C 
ATOM     13  C   UNL     1      35.166 -17.869 -22.153  0.00  0.00    +0.003 C 
ATOM     14  C   UNL     1      34.129 -19.504 -23.600  0.00  0.00    +0.003 C 
ATOM     15  C   UNL     1      35.275 -16.988 -23.228  0.00  0.00    +0.037 C 
ATOM     16  C   UNL     1      34.238 -18.621 -24.674  0.00  0.00    +0.037 C 
ATOM     17  C   UNL     1      34.811 -17.363 -24.489  0.00  0.00    +0.134 C 
BRANCH  17  18
ATOM     18  O   UNL     1      34.917 -16.502 -25.538  0.00  0.00    -0.506 OA
ATOM     19  H   UNL     1      35.486 -15.760 -25.477  0.00  0.00    +0.292 HD
ENDBRANCH  17  18
ENDBRANCH  10  12
BRANCH   3  20
ATOM     20  O   UNL     1      33.319 -23.949 -16.233  0.00  0.00    -0.450 OA
BRANCH  20  26
ATOM     21  O   UNL     1      30.998 -23.939 -16.472  0.00  0.00    -0.316 OA
ATOM     22  C   UNL     1      30.647 -25.268 -13.950  0.00  0.00    +0.173 C 
ATOM     23  C   UNL     1      29.488 -24.606 -14.696  0.00  0.00    +0.169 C 
ATOM     24  C   UNL     1      31.990 -24.683 -14.385  0.00  0.00    +0.210 C 
ATOM     25  C   UNL     1      29.753 -24.588 -16.204  0.00  0.00    +0.177 C 
ATOM     26  C   UNL     1      32.108 -24.633 -15.908  0.00  0.00    +0.318 C 
BRANCH  22  27
ATOM     27  O   UNL     1      30.459 -25.041 -12.552  0.00  0.00    -0.379 OA
ATOM     28  H   UNL     1      30.976 -24.266 -12.278  0.00  0.00    +0.211 HD
ENDBRANCH  22  27
BRANCH  23  29
ATOM     29  O   UNL     1      28.287 -25.328 -14.438  0.00  0.00    -0.379 OA
ATOM     30  H   UNL     1      27.883 -25.594 -15.278  0.00  0.00    +0.211 HD
ENDBRANCH  23  29
BRANCH  24  31
ATOM     31  O   UNL     1      33.047 -25.500 -13.882  0.00  0.00    -0.377 OA
ATOM     32  H   UNL     1      32.974 -26.392 -14.257  0.00  0.00    +0.211 HD
ENDBRANCH  24  31
BRANCH  25  33
ATOM     33  C   UNL     1      28.666 -23.829 -16.959  0.00  0.00    +0.169 C 
BRANCH  33  34
ATOM     34  O   UNL     1      27.721 -24.763 -17.447  0.00  0.00    -0.379 OA
ATOM     35  H   UNL     1      27.327 -24.425 -18.266  0.00  0.00    +0.211 HD
ENDBRANCH  33  34
ENDBRANCH  25  33
ENDBRANCH  20  26
ENDBRANCH   3  20
TORSDOF 9
ENDMDL
MODEL 9
REMARK VINA RESULT:      -9.4      2.060      3.818
REMARK  Name = 107971
REMARK  9 active torsions:
REMARK  status: ('A' for Active; 'I' for Inactive)
REMARK    1  A    between atoms: C_3  and  O_20
REMARK    2  A    between atoms: C_10  and  C_12
REMARK    3  A    between atoms: C_17  and  O_18
REMARK    4  A    between atoms: O_20  and  C_26
REMARK    5  A    between atoms: C_22  and  O_27
REMARK    6  A    between atoms: C_23  and  O_29
REMARK    7  A    between atoms: C_24  and  O_31
REMARK    8  A    between atoms: C_25  and  C_33
REMARK    9  A    between atoms: C_33  and  O_34
REMARK                            x       y       z     vdW  Elec       q    Type
REMARK                         _______ _______ _______ _____ _____    ______ ____
ROOT
ATOM      1  O   UNL     1      33.469 -21.366 -19.997  0.00  0.00    -0.450 OA
ATOM      2  O   UNL     1      36.926 -19.338 -20.758  0.00  0.00    -0.286 OA
ATOM      3  C   UNL     1      35.572 -22.799 -17.390  0.00  0.00    +0.144 C 
ATOM      4  C   UNL     1      34.471 -22.525 -18.200  0.00  0.00    +0.075 C 
ATOM      5  C   UNL     1      36.784 -22.144 -17.611  0.00  0.00    +0.037 C 
ATOM      6  C   UNL     1      34.584 -21.594 -19.233  0.00  0.00    +0.151 C 
ATOM      7  C   UNL     1      35.795 -20.939 -19.454  0.00  0.00    +0.074 C 
ATOM      8  C   UNL     1      36.900 -21.212 -18.644  0.00  0.00    +0.009 C 
ATOM      9  C   UNL     1      35.891 -19.957 -20.550  0.00  0.00    +0.202 C 
ATOM     10  C   UNL     1      34.662 -19.754 -21.366  0.00  0.00    +0.077 C 
ATOM     11  C   UNL     1      33.575 -20.463 -21.027  0.00  0.00    +0.183 C 
ENDROOT
BRANCH  10  12
ATOM     12  C   UNL     1      34.632 -18.830 -22.512  0.00  0.00    +0.006 C 
ATOM     13  C   UNL     1      34.166 -19.268 -23.754  0.00  0.00    +0.003 C 
ATOM     14  C   UNL     1      35.070 -17.512 -22.362  0.00  0.00    +0.003 C 
ATOM     15  C   UNL     1      34.138 -18.393 -24.839  0.00  0.00    +0.037 C 
ATOM     16  C   UNL     1      35.043 -16.638 -23.448  0.00  0.00    +0.037 C 
ATOM     17  C   UNL     1      34.577 -17.077 -24.687  0.00  0.00    +0.134 C 
BRANCH  17  18
ATOM     18  O   UNL     1      34.549 -16.224 -25.746  0.00  0.00    -0.506 OA
ATOM     19  H   UNL     1      35.081 -16.395 -26.499  0.00  0.00    +0.292 HD
ENDBRANCH  17  18
ENDBRANCH  10  12
BRANCH   3  20
ATOM     20  O   UNL     1      35.466 -23.709 -16.381  0.00  0.00    -0.450 OA
BRANCH  20  26
ATOM     21  O   UNL     1      33.168 -23.316 -16.475  0.00  0.00    -0.316 OA
ATOM     22  C   UNL     1      32.674 -25.185 -14.351  0.00  0.00    +0.173 C 
ATOM     23  C   UNL     1      31.612 -24.199 -14.839  0.00  0.00    +0.169 C 
ATOM     24  C   UNL     1      34.081 -24.701 -14.702  0.00  0.00    +0.210 C 
ATOM     25  C   UNL     1      31.846 -23.832 -16.307  0.00  0.00    +0.177 C 
ATOM     26  C   UNL     1      34.173 -24.278 -16.168  0.00  0.00    +0.318 C 
BRANCH  22  27
ATOM     27  O   UNL     1      32.551 -25.299 -12.932  0.00  0.00    -0.379 OA
ATOM     28  H   UNL     1      31.915 -26.000 -12.718  0.00  0.00    +0.211 HD
ENDBRANCH  22  27
BRANCH  23  29
ATOM     29  O   UNL     1      30.322 -24.789 -14.701  0.00  0.00    -0.379 OA
ATOM     30  H   UNL     1      30.262 -25.237 -13.843  0.00  0.00    +0.211 HD
ENDBRANCH  23  29
BRANCH  24  31
ATOM     31  O   UNL     1      35.014 -25.759 -14.482  0.00  0.00    -0.377 OA
ATOM     32  H   UNL     1      34.580 -26.476 -13.994  0.00  0.00    +0.211 HD
ENDBRANCH  24  31
BRANCH  25  33
ATOM     33  C   UNL     1      30.869 -22.761 -16.783  0.00  0.00    +0.169 C 
BRANCH  33  34
ATOM     34  O   UNL     1      31.276 -22.319 -18.065  0.00  0.00    -0.379 OA
ATOM     35  H   UNL     1      31.466 -23.087 -18.626  0.00  0.00    +0.211 HD
ENDBRANCH  33  34
ENDBRANCH  25  33
ENDBRANCH  20  26
ENDBRANCH   3  20
TORSDOF 9
ENDMDL
