MODEL 1
REMARK VINA RESULT:     -11.8      0.000      0.000
REMARK  Name = 198752
REMARK  6 active torsions:
REMARK  status: ('A' for Active; 'I' for Inactive)
REMARK    1  A    between atoms: C_1  and  C_3
REMARK    2  A    between atoms: C_1  and  C_16
REMARK    3  A    between atoms: N_2  and  C_9
REMARK    4  A    between atoms: C_9  and  C_10
REMARK    5  A    between atoms: C_16  and  C_18
REMARK    6  A    between atoms: C_18  and  C_20
REMARK                            x       y       z     vdW  Elec       q    Type
REMARK                         _______ _______ _______ _____ _____    ______ ____
ROOT
ATOM      1  C   UNL     1      33.450 -15.457 -25.491  0.00  0.00    +0.008 C 
ENDROOT
BRANCH   1   3
ATOM      2  N   UNL     1      34.904 -18.287 -22.570  0.00  0.00    +0.390 N 
ATOM      3  C   UNL     1      34.407 -16.376 -24.737  0.00  0.00    -0.004 C 
ATOM      4  C   UNL     1      33.937 -17.833 -24.801  0.00  0.00    -0.023 C 
ATOM      5  C   UNL     1      34.548 -15.942 -23.274  0.00  0.00    -0.023 C 
ATOM      6  C   UNL     1      34.836 -18.745 -23.964  0.00  0.00    -0.077 C 
ATOM      7  C   UNL     1      35.427 -16.917 -22.487  0.00  0.00    -0.077 C 
ATOM      8  H   UNL     1      33.956 -18.285 -22.192  0.00  0.00    -0.079 HD
BRANCH   2   9
ATOM      9  C   UNL     1      35.724 -19.197 -21.770  0.00  0.00    -0.050 C 
BRANCH   9  10
ATOM     10  C   UNL     1      34.882 -20.153 -20.968  0.00  0.00    -0.043 C 
ATOM     11  C   UNL     1      33.499 -20.035 -20.998  0.00  0.00    -0.006 C 
ATOM     12  C   UNL     1      35.498 -21.138 -20.210  0.00  0.00    -0.006 C 
ATOM     13  C   UNL     1      32.718 -20.920 -20.254  0.00  0.00    -0.000 C 
ATOM     14  C   UNL     1      34.718 -22.023 -19.467  0.00  0.00    -0.000 C 
ATOM     15  C   UNL     1      33.327 -21.913 -19.488  0.00  0.00    -0.000 C 
ENDBRANCH   9  10
ENDBRANCH   2   9
ENDBRANCH   1   3
BRANCH   1  16
ATOM     16  C   UNL     1      33.573 -14.008 -25.019  0.00  0.00    +0.069 C 
BRANCH  16  18
ATOM     17  O   UNL     1      33.891 -13.428 -27.337  0.00  0.00    -0.291 OA
ATOM     18  C   UNL     1      33.854 -13.013 -26.160  0.00  0.00    +0.173 C 
BRANCH  18  20
ATOM     19  N   UNL     1      32.896  -9.157 -23.367  0.00  0.00    -0.333 N 
ATOM     20  C   UNL     1      34.071 -11.607 -25.859  0.00  0.00    +0.036 C 
ATOM     21  C   UNL     1      34.489  -8.892 -25.250  0.00  0.00    -0.009 C 
ATOM     22  C   UNL     1      34.826  -7.439 -24.982  0.00  0.00    +0.028 C 
ATOM     23  C   UNL     1      33.616  -9.656 -24.444  0.00  0.00    +0.041 C 
ATOM     24  C   UNL     1      35.060  -7.129 -23.504  0.00  0.00    +0.006 C 
ATOM     25  C   UNL     1      33.777  -6.961 -22.689  0.00  0.00    +0.022 C 
ATOM     26  C   UNL     1      33.440 -11.020 -24.762  0.00  0.00    +0.017 C 
ATOM     27  C   UNL     1      32.583  -7.755 -23.197  0.00  0.00    +0.087 C 
ATOM     28  C   UNL     1      34.897 -10.842 -26.667  0.00  0.00    +0.003 C 
ATOM     29  C   UNL     1      35.103  -9.497 -26.367  0.00  0.00    -0.003 C 
ATOM     30  H   UNL     1      32.580  -9.790 -22.683  0.00  0.00    +0.147 HD
ENDBRANCH  18  20
ENDBRANCH  16  18
ENDBRANCH   1  16
TORSDOF 6
ENDMDL
MODEL 2
REMARK VINA RESULT:     -11.7      4.595     12.405
REMARK  Name = 198752
REMARK  6 active torsions:
REMARK  status: ('A' for Active; 'I' for Inactive)
REMARK    1  A    between atoms: C_1  and  C_3
REMARK    2  A    between atoms: C_1  and  C_16
REMARK    3  A    between atoms: N_2  and  C_9
REMARK    4  A    between atoms: C_9  and  C_10
REMARK    5  A    between atoms: C_16  and  C_18
REMARK    6  A    between atoms: C_18  and  C_20
REMARK                            x       y       z     vdW  Elec       q    Type
REMARK                         _______ _______ _______ _____ _____    ______ ____
ROOT
ATOM      1  C   UNL     1      36.086 -21.292 -19.353  0.00  0.00    +0.008 C 
ENDROOT
BRANCH   1   3
ATOM      2  N   UNL     1      35.198 -18.313 -22.352  0.00  0.00    +0.390 N 
ATOM      3  C   UNL     1      35.908 -20.645 -20.724  0.00  0.00    -0.004 C 
ATOM      4  C   UNL     1      36.843 -19.443 -20.890  0.00  0.00    -0.023 C 
ATOM      5  C   UNL     1      34.456 -20.207 -20.943  0.00  0.00    -0.023 C 
ATOM      6  C   UNL     1      36.600 -18.729 -22.222  0.00  0.00    -0.077 C 
ATOM      7  C   UNL     1      34.293 -19.468 -22.272  0.00  0.00    -0.077 C 
ATOM      8  H   UNL     1      34.981 -17.689 -21.575  0.00  0.00    -0.079 HD
BRANCH   2   9
ATOM      9  C   UNL     1      34.992 -17.588 -23.606  0.00  0.00    -0.050 C 
BRANCH   9  10
ATOM     10  C   UNL     1      34.541 -16.171 -23.366  0.00  0.00    -0.043 C 
ATOM     11  C   UNL     1      34.616 -15.638 -22.087  0.00  0.00    -0.006 C 
ATOM     12  C   UNL     1      34.059 -15.418 -24.427  0.00  0.00    -0.006 C 
ATOM     13  C   UNL     1      34.198 -14.326 -21.865  0.00  0.00    -0.000 C 
ATOM     14  C   UNL     1      33.642 -14.106 -24.206  0.00  0.00    -0.000 C 
ATOM     15  C   UNL     1      33.711 -13.560 -22.923  0.00  0.00    -0.000 C 
ENDBRANCH   9  10
ENDBRANCH   2   9
ENDBRANCH   1   3
BRANCH   1  16
ATOM     16  C   UNL     1      34.845 -22.085 -18.942  0.00  0.00    +0.069 C 
BRANCH  16  18
ATOM     17  O   UNL     1      36.091 -22.913 -17.052  0.00  0.00    -0.291 OA
ATOM     18  C   UNL     1      34.960 -22.722 -17.544  0.00  0.00    +0.173 C 
BRANCH  18  20
ATOM     19  N   UNL     1      30.111 -22.910 -17.332  0.00  0.00    -0.333 N 
ATOM     20  C   UNL     1      33.758 -23.093 -16.815  0.00  0.00    +0.036 C 
ATOM     21  C   UNL     1      31.419 -23.817 -15.429  0.00  0.00    -0.009 C 
ATOM     22  C   UNL     1      30.229 -24.293 -14.619  0.00  0.00    +0.028 C 
ATOM     23  C   UNL     1      31.311 -23.217 -16.703  0.00  0.00    +0.041 C 
ATOM     24  C   UNL     1      29.168 -25.008 -15.455  0.00  0.00    +0.006 C 
ATOM     25  C   UNL     1      28.242 -24.069 -16.227  0.00  0.00    +0.022 C 
ATOM     26  C   UNL     1      32.501 -22.881 -17.383  0.00  0.00    +0.017 C 
ATOM     27  C   UNL     1      28.861 -22.738 -16.626  0.00  0.00    +0.087 C 
ATOM     28  C   UNL     1      33.855 -23.649 -15.549  0.00  0.00    +0.003 C 
ATOM     29  C   UNL     1      32.698 -24.006 -14.862  0.00  0.00    -0.003 C 
ATOM     30  H   UNL     1      30.112 -22.803 -18.311  0.00  0.00    +0.147 HD
ENDBRANCH  18  20
ENDBRANCH  16  18
ENDBRANCH   1  16
TORSDOF 6
ENDMDL
MODEL 3
REMARK VINA RESULT:     -11.5      5.439     13.586
REMARK  Name = 198752
REMARK  6 active torsions:
REMARK  status: ('A' for Active; 'I' for Inactive)
REMARK    1  A    between atoms: C_1  and  C_3
REMARK    2  A    between atoms: C_1  and  C_16
REMARK    3  A    between atoms: N_2  and  C_9
REMARK    4  A    between atoms: C_9  and  C_10
REMARK    5  A    between atoms: C_16  and  C_18
REMARK    6  A    between atoms: C_18  and  C_20
REMARK                            x       y       z     vdW  Elec       q    Type
REMARK                         _______ _______ _______ _____ _____    ______ ____
ROOT
ATOM      1  C   UNL     1      32.612 -22.394 -18.694  0.00  0.00    +0.008 C 
ENDROOT
BRANCH   1   3
ATOM      2  N   UNL     1      35.037 -19.642 -20.975  0.00  0.00    +0.390 N 
ATOM      3  C   UNL     1      33.432 -21.821 -19.846  0.00  0.00    -0.004 C 
ATOM      4  C   UNL     1      34.878 -21.553 -19.412  0.00  0.00    -0.023 C 
ATOM      5  C   UNL     1      32.805 -20.528 -20.380  0.00  0.00    -0.023 C 
ATOM      6  C   UNL     1      35.680 -20.886 -20.531  0.00  0.00    -0.077 C 
ATOM      7  C   UNL     1      33.676 -19.895 -21.467  0.00  0.00    -0.077 C 
ATOM      8  H   UNL     1      34.970 -19.018 -20.171  0.00  0.00    -0.079 HD
BRANCH   2   9
ATOM      9  C   UNL     1      35.841 -18.989 -22.008  0.00  0.00    -0.050 C 
BRANCH   9  10
ATOM     10  C   UNL     1      35.307 -17.626 -22.356  0.00  0.00    -0.043 C 
ATOM     11  C   UNL     1      35.158 -17.270 -23.689  0.00  0.00    -0.006 C 
ATOM     12  C   UNL     1      34.970 -16.743 -21.339  0.00  0.00    -0.006 C 
ATOM     13  C   UNL     1      34.663 -16.006 -24.011  0.00  0.00    -0.000 C 
ATOM     14  C   UNL     1      34.475 -15.480 -21.661  0.00  0.00    -0.000 C 
ATOM     15  C   UNL     1      34.322 -15.111 -22.998  0.00  0.00    -0.000 C 
ENDBRANCH   9  10
ENDBRANCH   2   9
ENDBRANCH   1   3
BRANCH   1  16
ATOM     16  C   UNL     1      33.420 -23.399 -17.875  0.00  0.00    +0.069 C 
BRANCH  16  18
ATOM     17  O   UNL     1      31.804 -23.177 -16.101  0.00  0.00    -0.291 OA
ATOM     18  C   UNL     1      32.972 -23.494 -16.404  0.00  0.00    +0.173 C 
BRANCH  18  20
ATOM     19  N   UNL     1      37.373 -25.204 -15.265  0.00  0.00    -0.333 N 
ATOM     20  C   UNL     1      33.908 -23.949 -15.389  0.00  0.00    +0.036 C 
ATOM     21  C   UNL     1      35.741 -24.817 -13.438  0.00  0.00    -0.009 C 
ATOM     22  C   UNL     1      36.661 -25.217 -12.302  0.00  0.00    +0.028 C 
ATOM     23  C   UNL     1      36.134 -24.790 -14.795  0.00  0.00    +0.041 C 
ATOM     24  C   UNL     1      38.075 -24.650 -12.434  0.00  0.00    +0.006 C 
ATOM     25  C   UNL     1      38.970 -25.420 -13.405  0.00  0.00    +0.022 C 
ATOM     26  C   UNL     1      35.200 -24.333 -15.749  0.00  0.00    +0.017 C 
ATOM     27  C   UNL     1      38.238 -26.112 -14.545  0.00  0.00    +0.087 C 
ATOM     28  C   UNL     1      33.517 -24.013 -14.061  0.00  0.00    +0.003 C 
ATOM     29  C   UNL     1      34.423 -24.445 -13.095  0.00  0.00    -0.003 C 
ATOM     30  H   UNL     1      37.679 -24.862 -16.136  0.00  0.00    +0.147 HD
ENDBRANCH  18  20
ENDBRANCH  16  18
ENDBRANCH   1  16
TORSDOF 6
ENDMDL
MODEL 4
REMARK VINA RESULT:     -11.4      1.276      1.651
REMARK  Name = 198752
REMARK  6 active torsions:
REMARK  status: ('A' for Active; 'I' for Inactive)
REMARK    1  A    between atoms: C_1  and  C_3
REMARK    2  A    between atoms: C_1  and  C_16
REMARK    3  A    between atoms: N_2  and  C_9
REMARK    4  A    between atoms: C_9  and  C_10
REMARK    5  A    between atoms: C_16  and  C_18
REMARK    6  A    between atoms: C_18  and  C_20
REMARK                            x       y       z     vdW  Elec       q    Type
REMARK                         _______ _______ _______ _____ _____    ______ ____
ROOT
ATOM      1  C   UNL     1      33.532 -14.846 -24.747  0.00  0.00    +0.008 C 
ENDROOT
BRANCH   1   3
ATOM      2  N   UNL     1      34.915 -18.225 -22.439  0.00  0.00    +0.390 N 
ATOM      3  C   UNL     1      34.480 -15.872 -24.134  0.00  0.00    -0.004 C 
ATOM      4  C   UNL     1      34.124 -17.291 -24.589  0.00  0.00    -0.023 C 
ATOM      5  C   UNL     1      34.457 -15.799 -22.604  0.00  0.00    -0.023 C 
ATOM      6  C   UNL     1      35.007 -18.334 -23.901  0.00  0.00    -0.077 C 
ATOM      7  C   UNL     1      35.328 -16.891 -21.981  0.00  0.00    -0.077 C 
ATOM      8  H   UNL     1      33.940 -18.359 -22.174  0.00  0.00    -0.079 HD
BRANCH   2   9
ATOM      9  C   UNL     1      35.723 -19.260 -21.795  0.00  0.00    -0.050 C 
BRANCH   9  10
ATOM     10  C   UNL     1      34.880 -20.194 -20.968  0.00  0.00    -0.043 C 
ATOM     11  C   UNL     1      35.497 -21.181 -20.211  0.00  0.00    -0.006 C 
ATOM     12  C   UNL     1      33.499 -20.056 -20.971  0.00  0.00    -0.006 C 
ATOM     13  C   UNL     1      34.717 -22.047 -19.445  0.00  0.00    -0.000 C 
ATOM     14  C   UNL     1      32.719 -20.920 -20.205  0.00  0.00    -0.000 C 
ATOM     15  C   UNL     1      33.328 -21.917 -19.442  0.00  0.00    -0.000 C 
ENDBRANCH   9  10
ENDBRANCH   2   9
ENDBRANCH   1   3
BRANCH   1  16
ATOM     16  C   UNL     1      34.199 -13.476 -24.882  0.00  0.00    +0.069 C 
BRANCH  16  18
ATOM     17  O   UNL     1      32.924 -12.736 -22.975  0.00  0.00    -0.291 OA
ATOM     18  C   UNL     1      33.561 -12.393 -23.993  0.00  0.00    +0.173 C 
BRANCH  18  20
ATOM     19  N   UNL     1      32.073  -7.799 -23.472  0.00  0.00    -0.333 N 
ATOM     20  C   UNL     1      33.705 -10.989 -24.343  0.00  0.00    +0.036 C 
ATOM     21  C   UNL     1      33.976  -8.266 -24.994  0.00  0.00    -0.009 C 
ATOM     22  C   UNL     1      34.242  -6.823 -25.377  0.00  0.00    +0.028 C 
ATOM     23  C   UNL     1      32.981  -8.661 -24.073  0.00  0.00    +0.041 C 
ATOM     24  C   UNL     1      34.203  -5.860 -24.191  0.00  0.00    +0.006 C 
ATOM     25  C   UNL     1      32.794  -5.462 -23.753  0.00  0.00    +0.022 C 
ATOM     26  C   UNL     1      32.880 -10.032 -23.752  0.00  0.00    +0.017 C 
ATOM     27  C   UNL     1      31.720  -6.507 -24.016  0.00  0.00    +0.087 C 
ATOM     28  C   UNL     1      34.654 -10.598 -25.274  0.00  0.00    +0.003 C 
ATOM     29  C   UNL     1      34.787  -9.250 -25.598  0.00  0.00    -0.003 C 
ATOM     30  H   UNL     1      31.647  -8.083 -22.631  0.00  0.00    +0.147 HD
ENDBRANCH  18  20
ENDBRANCH  16  18
ENDBRANCH   1  16
TORSDOF 6
ENDMDL
MODEL 5
REMARK VINA RESULT:     -11.4      1.486      1.873
REMARK  Name = 198752
REMARK  6 active torsions:
REMARK  status: ('A' for Active; 'I' for Inactive)
REMARK    1  A    between atoms: C_1  and  C_3
REMARK    2  A    between atoms: C_1  and  C_16
REMARK    3  A    between atoms: N_2  and  C_9
REMARK    4  A    between atoms: C_9  and  C_10
REMARK    5  A    between atoms: C_16  and  C_18
REMARK    6  A    between atoms: C_18  and  C_20
REMARK                            x       y       z     vdW  Elec       q    Type
REMARK                         _______ _______ _______ _____ _____    ______ ____
ROOT
ATOM      1  C   UNL     1      33.393 -13.732 -24.217  0.00  0.00    +0.008 C 
ENDROOT
BRANCH   1   3
ATOM      2  N   UNL     1      34.675 -17.689 -23.054  0.00  0.00    +0.390 N 
ATOM      3  C   UNL     1      34.310 -14.923 -23.953  0.00  0.00    -0.004 C 
ATOM      4  C   UNL     1      33.911 -16.127 -24.813  0.00  0.00    -0.023 C 
ATOM      5  C   UNL     1      34.291 -15.315 -22.472  0.00  0.00    -0.023 C 
ATOM      6  C   UNL     1      34.762 -17.354 -24.481  0.00  0.00    -0.077 C 
ATOM      7  C   UNL     1      35.130 -16.570 -22.218  0.00  0.00    -0.077 C 
ATOM      8  H   UNL     1      33.697 -17.870 -22.832  0.00  0.00    -0.079 HD
BRANCH   2   9
ATOM      9  C   UNL     1      35.452 -18.894 -22.761  0.00  0.00    -0.050 C 
BRANCH   9  10
ATOM     10  C   UNL     1      34.788 -19.749 -21.715  0.00  0.00    -0.043 C 
ATOM     11  C   UNL     1      33.402 -19.802 -21.656  0.00  0.00    -0.006 C 
ATOM     12  C   UNL     1      35.569 -20.473 -20.825  0.00  0.00    -0.006 C 
ATOM     13  C   UNL     1      32.787 -20.594 -20.686  0.00  0.00    -0.000 C 
ATOM     14  C   UNL     1      34.955 -21.265 -19.857  0.00  0.00    -0.000 C 
ATOM     15  C   UNL     1      33.562 -21.325 -19.787  0.00  0.00    -0.000 C 
ENDBRANCH   9  10
ENDBRANCH   2   9
ENDBRANCH   1   3
BRANCH   1  16
ATOM     16  C   UNL     1      34.110 -12.405 -23.965  0.00  0.00    +0.069 C 
BRANCH  16  18
ATOM     17  O   UNL     1      34.180 -11.981 -26.337  0.00  0.00    -0.291 OA
ATOM     18  C   UNL     1      34.134 -11.479 -25.195  0.00  0.00    +0.173 C 
BRANCH  18  20
ATOM     19  N   UNL     1      31.614  -7.328 -25.281  0.00  0.00    -0.333 N 
ATOM     20  C   UNL     1      34.102 -10.036 -25.017  0.00  0.00    +0.036 C 
ATOM     21  C   UNL     1      34.015  -7.246 -24.663  0.00  0.00    -0.009 C 
ATOM     22  C   UNL     1      34.069  -5.755 -24.396  0.00  0.00    +0.028 C 
ATOM     23  C   UNL     1      32.838  -7.934 -25.033  0.00  0.00    +0.041 C 
ATOM     24  C   UNL     1      32.875  -5.234 -23.596  0.00  0.00    +0.006 C 
ATOM     25  C   UNL     1      31.611  -5.019 -24.427  0.00  0.00    +0.022 C 
ATOM     26  C   UNL     1      32.908  -9.335 -25.186  0.00  0.00    +0.017 C 
ATOM     27  C   UNL     1      31.471  -5.933 -25.635  0.00  0.00    +0.087 C 
ATOM     28  C   UNL     1      35.261  -9.349 -24.691  0.00  0.00    +0.003 C 
ATOM     29  C   UNL     1      35.219  -7.968 -24.517  0.00  0.00    -0.003 C 
ATOM     30  H   UNL     1      30.799  -7.876 -25.214  0.00  0.00    +0.147 HD
ENDBRANCH  18  20
ENDBRANCH  16  18
ENDBRANCH   1  16
TORSDOF 6
ENDMDL
MODEL 6
REMARK VINA RESULT:     -11.3      1.880      2.568
REMARK  Name = 198752
REMARK  6 active torsions:
REMARK  status: ('A' for Active; 'I' for Inactive)
REMARK    1  A    between atoms: C_1  and  C_3
REMARK    2  A    between atoms: C_1  and  C_16
REMARK    3  A    between atoms: N_2  and  C_9
REMARK    4  A    between atoms: C_9  and  C_10
REMARK    5  A    between atoms: C_16  and  C_18
REMARK    6  A    between atoms: C_18  and  C_20
REMARK                            x       y       z     vdW  Elec       q    Type
REMARK                         _______ _______ _______ _____ _____    ______ ____
ROOT
ATOM      1  C   UNL     1      33.886 -15.853 -25.099  0.00  0.00    +0.008 C 
ENDROOT
BRANCH   1   3
ATOM      2  N   UNL     1      35.004 -18.853 -22.200  0.00  0.00    +0.390 N 
ATOM      3  C   UNL     1      34.732 -16.879 -24.350  0.00  0.00    -0.004 C 
ATOM      4  C   UNL     1      34.103 -18.274 -24.430  0.00  0.00    -0.023 C 
ATOM      5  C   UNL     1      34.914 -16.477 -22.883  0.00  0.00    -0.023 C 
ATOM      6  C   UNL     1      34.891 -19.288 -23.598  0.00  0.00    -0.077 C 
ATOM      7  C   UNL     1      35.675 -17.550 -22.102  0.00  0.00    -0.077 C 
ATOM      8  H   UNL     1      34.061 -18.749 -21.826  0.00  0.00    -0.079 HD
BRANCH   2   9
ATOM      9  C   UNL     1      35.714 -19.856 -21.406  0.00  0.00    -0.050 C 
BRANCH   9  10
ATOM     10  C   UNL     1      34.772 -20.676 -20.566  0.00  0.00    -0.043 C 
ATOM     11  C   UNL     1      35.283 -21.661 -19.732  0.00  0.00    -0.006 C 
ATOM     12  C   UNL     1      33.407 -20.437 -20.637  0.00  0.00    -0.006 C 
ATOM     13  C   UNL     1      34.410 -22.422 -18.954  0.00  0.00    -0.000 C 
ATOM     14  C   UNL     1      32.535 -21.197 -19.859  0.00  0.00    -0.000 C 
ATOM     15  C   UNL     1      33.036 -22.191 -19.017  0.00  0.00    -0.000 C 
ENDBRANCH   9  10
ENDBRANCH   2   9
ENDBRANCH   1   3
BRANCH   1  16
ATOM     16  C   UNL     1      33.414 -14.731 -24.174  0.00  0.00    +0.069 C 
BRANCH  16  18
ATOM     17  O   UNL     1      33.788 -13.238 -26.029  0.00  0.00    -0.291 OA
ATOM     18  C   UNL     1      33.437 -13.341 -24.835  0.00  0.00    +0.173 C 
BRANCH  18  20
ATOM     19  N   UNL     1      31.312 -11.453 -20.897  0.00  0.00    -0.333 N 
ATOM     20  C   UNL     1      33.052 -12.167 -24.069  0.00  0.00    +0.036 C 
ATOM     21  C   UNL     1      32.310  -9.909 -22.562  0.00  0.00    -0.009 C 
ATOM     22  C   UNL     1      32.004  -8.630 -21.809  0.00  0.00    +0.028 C 
ATOM     23  C   UNL     1      32.003 -11.199 -22.074  0.00  0.00    +0.041 C 
ATOM     24  C   UNL     1      32.301  -8.716 -20.313  0.00  0.00    +0.006 C 
ATOM     25  C   UNL     1      31.221  -9.429 -19.500  0.00  0.00    +0.022 C 
ATOM     26  C   UNL     1      32.403 -12.313 -22.842  0.00  0.00    +0.017 C 
ATOM     27  C   UNL     1      30.441 -10.492 -20.259  0.00  0.00    +0.087 C 
ATOM     28  C   UNL     1      33.316 -10.898 -24.559  0.00  0.00    +0.003 C 
ATOM     29  C   UNL     1      32.948  -9.780 -23.814  0.00  0.00    -0.003 C 
ATOM     30  H   UNL     1      31.420 -12.336 -20.474  0.00  0.00    +0.147 HD
ENDBRANCH  18  20
ENDBRANCH  16  18
ENDBRANCH   1  16
TORSDOF 6
ENDMDL
MODEL 7
REMARK VINA RESULT:     -11.3      4.809     12.992
REMARK  Name = 198752
REMARK  6 active torsions:
REMARK  status: ('A' for Active; 'I' for Inactive)
REMARK    1  A    between atoms: C_1  and  C_3
REMARK    2  A    between atoms: C_1  and  C_16
REMARK    3  A    between atoms: N_2  and  C_9
REMARK    4  A    between atoms: C_9  and  C_10
REMARK    5  A    between atoms: C_16  and  C_18
REMARK    6  A    between atoms: C_18  and  C_20
REMARK                            x       y       z     vdW  Elec       q    Type
REMARK                         _______ _______ _______ _____ _____    ______ ____
ROOT
ATOM      1  C   UNL     1      35.128 -21.185 -19.828  0.00  0.00    +0.008 C 
ENDROOT
BRANCH   1   3
ATOM      2  N   UNL     1      35.140 -18.000 -22.745  0.00  0.00    +0.390 N 
ATOM      3  C   UNL     1      35.296 -20.462 -21.160  0.00  0.00    -0.004 C 
ATOM      4  C   UNL     1      36.342 -19.347 -21.054  0.00  0.00    -0.023 C 
ATOM      5  C   UNL     1      33.965 -19.878 -21.643  0.00  0.00    -0.023 C 
ATOM      6  C   UNL     1      36.445 -18.553 -22.358  0.00  0.00    -0.077 C 
ATOM      7  C   UNL     1      34.146 -19.066 -22.927  0.00  0.00    -0.077 C 
ATOM      8  H   UNL     1      34.818 -17.395 -21.990  0.00  0.00    -0.079 HD
BRANCH   2   9
ATOM      9  C   UNL     1      35.263 -17.202 -23.964  0.00  0.00    -0.050 C 
BRANCH   9  10
ATOM     10  C   UNL     1      34.498 -15.909 -23.867  0.00  0.00    -0.043 C 
ATOM     11  C   UNL     1      33.804 -15.441 -24.975  0.00  0.00    -0.006 C 
ATOM     12  C   UNL     1      34.496 -15.203 -22.672  0.00  0.00    -0.006 C 
ATOM     13  C   UNL     1      33.096 -14.243 -24.885  0.00  0.00    -0.000 C 
ATOM     14  C   UNL     1      33.787 -14.006 -22.582  0.00  0.00    -0.000 C 
ATOM     15  C   UNL     1      33.087 -13.525 -23.689  0.00  0.00    -0.000 C 
ENDBRANCH   9  10
ENDBRANCH   2   9
ENDBRANCH   1   3
BRANCH   1  16
ATOM     16  C   UNL     1      36.447 -21.788 -19.345  0.00  0.00    +0.069 C 
BRANCH  16  18
ATOM     17  O   UNL     1      37.283 -20.371 -17.584  0.00  0.00    -0.291 OA
ATOM     18  C   UNL     1      36.766 -21.469 -17.873  0.00  0.00    +0.173 C 
BRANCH  18  20
ATOM     19  N   UNL     1      38.341 -24.691 -14.598  0.00  0.00    -0.333 N 
ATOM     20  C   UNL     1      36.462 -22.444 -16.837  0.00  0.00    +0.036 C 
ATOM     21  C   UNL     1      35.899 -24.323 -14.820  0.00  0.00    -0.009 C 
ATOM     22  C   UNL     1      35.484 -25.275 -13.716  0.00  0.00    +0.028 C 
ATOM     23  C   UNL     1      37.243 -24.057 -15.163  0.00  0.00    +0.041 C 
ATOM     24  C   UNL     1      36.340 -25.158 -12.455  0.00  0.00    +0.006 C 
ATOM     25  C   UNL     1      37.685 -25.878 -12.543  0.00  0.00    +0.022 C 
ATOM     26  C   UNL     1      37.496 -23.097 -16.165  0.00  0.00    +0.017 C 
ATOM     27  C   UNL     1      38.271 -25.979 -13.944  0.00  0.00    +0.087 C 
ATOM     28  C   UNL     1      35.145 -22.737 -16.522  0.00  0.00    +0.003 C 
ATOM     29  C   UNL     1      34.865 -23.668 -15.524  0.00  0.00    -0.003 C 
ATOM     30  H   UNL     1      39.216 -24.241 -14.646  0.00  0.00    +0.147 HD
ENDBRANCH  18  20
ENDBRANCH  16  18
ENDBRANCH   1  16
TORSDOF 6
ENDMDL
MODEL 8
REMARK VINA RESULT:     -11.3      2.467      4.802
REMARK  Name = 198752
REMARK  6 active torsions:
REMARK  status: ('A' for Active; 'I' for Inactive)
REMARK    1  A    between atoms: C_1  and  C_3
REMARK    2  A    between atoms: C_1  and  C_16
REMARK    3  A    between atoms: N_2  and  C_9
REMARK    4  A    between atoms: C_9  and  C_10
REMARK    5  A    between atoms: C_16  and  C_18
REMARK    6  A    between atoms: C_18  and  C_20
REMARK                            x       y       z     vdW  Elec       q    Type
REMARK                         _______ _______ _______ _____ _____    ______ ____
ROOT
ATOM      1  C   UNL     1      35.781 -18.361 -21.645  0.00  0.00    +0.008 C 
ENDROOT
BRANCH   1   3
ATOM      2  N   UNL     1      34.074 -21.725 -19.542  0.00  0.00    +0.390 N 
ATOM      3  C   UNL     1      35.218 -19.756 -21.388  0.00  0.00    -0.004 C 
ATOM      4  C   UNL     1      33.766 -19.683 -20.903  0.00  0.00    -0.023 C 
ATOM      5  C   UNL     1      36.068 -20.513 -20.363  0.00  0.00    -0.023 C 
ATOM      6  C   UNL     1      33.228 -21.070 -20.548  0.00  0.00    -0.077 C 
ATOM      7  C   UNL     1      35.453 -21.872 -20.025  0.00  0.00    -0.077 C 
ATOM      8  H   UNL     1      34.093 -21.133 -18.712  0.00  0.00    -0.079 HD
BRANCH   2   9
ATOM      9  C   UNL     1      33.519 -23.028 -19.175  0.00  0.00    -0.050 C 
BRANCH   9  10
ATOM     10  C   UNL     1      33.201 -23.108 -17.705  0.00  0.00    -0.043 C 
ATOM     11  C   UNL     1      31.877 -23.081 -17.290  0.00  0.00    -0.006 C 
ATOM     12  C   UNL     1      34.236 -23.208 -16.786  0.00  0.00    -0.006 C 
ATOM     13  C   UNL     1      31.583 -23.154 -15.928  0.00  0.00    -0.000 C 
ATOM     14  C   UNL     1      33.942 -23.282 -15.425  0.00  0.00    -0.000 C 
ATOM     15  C   UNL     1      32.615 -23.254 -14.996  0.00  0.00    -0.000 C 
ENDBRANCH   9  10
ENDBRANCH   2   9
ENDBRANCH   1   3
BRANCH   1  16
ATOM     16  C   UNL     1      35.018 -17.645 -22.760  0.00  0.00    +0.069 C 
BRANCH  16  18
ATOM     17  O   UNL     1      34.688 -15.811 -21.231  0.00  0.00    -0.291 OA
ATOM     18  C   UNL     1      34.667 -16.184 -22.422  0.00  0.00    +0.173 C 
BRANCH  18  20
ATOM     19  N   UNL     1      34.133 -11.603 -23.945  0.00  0.00    -0.333 N 
ATOM     20  C   UNL     1      34.315 -15.258 -23.486  0.00  0.00    +0.036 C 
ATOM     21  C   UNL     1      33.655 -13.446 -25.535  0.00  0.00    -0.009 C 
ATOM     22  C   UNL     1      33.327 -12.563 -26.722  0.00  0.00    +0.028 C 
ATOM     23  C   UNL     1      34.064 -12.949 -24.277  0.00  0.00    +0.041 C 
ATOM     24  C   UNL     1      34.297 -11.396 -26.902  0.00  0.00    +0.006 C 
ATOM     25  C   UNL     1      34.031 -10.212 -25.973  0.00  0.00    +0.022 C 
ATOM     26  C   UNL     1      34.406 -13.881 -23.274  0.00  0.00    +0.017 C 
ATOM     27  C   UNL     1      33.395 -10.571 -24.638  0.00  0.00    +0.087 C 
ATOM     28  C   UNL     1      33.878 -15.737 -24.711  0.00  0.00    +0.003 C 
ATOM     29  C   UNL     1      33.549 -14.840 -25.725  0.00  0.00    -0.003 C 
ATOM     30  H   UNL     1      34.714 -11.337 -23.196  0.00  0.00    +0.147 HD
ENDBRANCH  18  20
ENDBRANCH  16  18
ENDBRANCH   1  16
TORSDOF 6
ENDMDL
MODEL 9
REMARK VINA RESULT:     -10.9      3.399      5.123
REMARK  Name = 198752
REMARK  6 active torsions:
REMARK  status: ('A' for Active; 'I' for Inactive)
REMARK    1  A    between atoms: C_1  and  C_3
REMARK    2  A    between atoms: C_1  and  C_16
REMARK    3  A    between atoms: N_2  and  C_9
REMARK    4  A    between atoms: C_9  and  C_10
REMARK    5  A    between atoms: C_16  and  C_18
REMARK    6  A    between atoms: C_18  and  C_20
REMARK                            x       y       z     vdW  Elec       q    Type
REMARK                         _______ _______ _______ _____ _____    ______ ____
ROOT
ATOM      1  C   UNL     1      31.225 -12.285 -20.484  0.00  0.00    +0.008 C 
ENDROOT
BRANCH   1   3
ATOM      2  N   UNL     1      33.708 -14.745 -23.021  0.00  0.00    +0.390 N 
ATOM      3  C   UNL     1      32.427 -12.744 -21.303  0.00  0.00    -0.004 C 
ATOM      4  C   UNL     1      32.052 -12.924 -22.778  0.00  0.00    -0.023 C 
ATOM      5  C   UNL     1      33.003 -14.053 -20.752  0.00  0.00    -0.023 C 
ATOM      6  C   UNL     1      33.225 -13.479 -23.587  0.00  0.00    -0.077 C 
ATOM      7  C   UNL     1      34.145 -14.571 -21.629  0.00  0.00    -0.077 C 
ATOM      8  H   UNL     1      32.933 -15.408 -23.026  0.00  0.00    -0.079 HD
BRANCH   2   9
ATOM      9  C   UNL     1      34.795 -15.290 -23.834  0.00  0.00    -0.050 C 
BRANCH   9  10
ATOM     10  C   UNL     1      34.779 -16.795 -23.856  0.00  0.00    -0.043 C 
ATOM     11  C   UNL     1      35.556 -17.500 -22.947  0.00  0.00    -0.006 C 
ATOM     12  C   UNL     1      33.987 -17.458 -24.784  0.00  0.00    -0.006 C 
ATOM     13  C   UNL     1      35.541 -18.895 -22.968  0.00  0.00    -0.000 C 
ATOM     14  C   UNL     1      33.972 -18.851 -24.804  0.00  0.00    -0.000 C 
ATOM     15  C   UNL     1      34.749 -19.571 -23.896  0.00  0.00    -0.000 C 
ENDBRANCH   9  10
ENDBRANCH   2   9
ENDBRANCH   1   3
BRANCH   1  16
ATOM     16  C   UNL     1      30.672 -10.954 -20.994  0.00  0.00    +0.069 C 
BRANCH  16  18
ATOM     17  O   UNL     1      31.494  -9.688 -19.115  0.00  0.00    -0.291 OA
ATOM     18  C   UNL     1      31.345  -9.725 -20.354  0.00  0.00    +0.173 C 
BRANCH  18  20
ATOM     19  N   UNL     1      31.064  -7.308 -24.557  0.00  0.00    -0.333 N 
ATOM     20  C   UNL     1      31.797  -8.627 -21.192  0.00  0.00    +0.036 C 
ATOM     21  C   UNL     1      32.645  -6.499 -22.826  0.00  0.00    -0.009 C 
ATOM     22  C   UNL     1      33.139  -5.292 -23.599  0.00  0.00    +0.028 C 
ATOM     23  C   UNL     1      31.649  -7.381 -23.300  0.00  0.00    +0.041 C 
ATOM     24  C   UNL     1      32.020  -4.510 -24.288  0.00  0.00    +0.006 C 
ATOM     25  C   UNL     1      31.540  -5.130 -25.600  0.00  0.00    +0.022 C 
ATOM     26  C   UNL     1      31.231  -8.429 -22.452  0.00  0.00    +0.017 C 
ATOM     27  C   UNL     1      31.676  -6.643 -25.685  0.00  0.00    +0.087 C 
ATOM     28  C   UNL     1      32.800  -7.779 -20.748  0.00  0.00    +0.003 C 
ATOM     29  C   UNL     1      33.221  -6.727 -21.557  0.00  0.00    -0.003 C 
ATOM     30  H   UNL     1      30.185  -7.732 -24.687  0.00  0.00    +0.147 HD
ENDBRANCH  18  20
ENDBRANCH  16  18
ENDBRANCH   1  16
TORSDOF 6
ENDMDL
