MODEL 1
REMARK VINA RESULT:     -13.3      0.000      0.000
REMARK  Name = 45268539
REMARK  6 active torsions:
REMARK  status: ('A' for Active; 'I' for Inactive)
REMARK    1  A    between atoms: N_2  and  C_22
REMARK    2  A    between atoms: N_3  and  C_7
REMARK    3  A    between atoms: N_3  and  O_12
REMARK    4  A    between atoms: C_8  and  C_14
REMARK    5  A    between atoms: C_15  and  C_16
REMARK    6  A    between atoms: C_22  and  C_26
REMARK                            x       y       z     vdW  Elec       q    Type
REMARK                         _______ _______ _______ _____ _____    ______ ____
ROOT
ATOM      1  O   UNL     1      32.044 -23.719 -17.159  0.00  0.00    -0.273 OA
ATOM      2  N   UNL     1      34.217 -23.268 -16.307  0.00  0.00    -0.253 N 
ATOM      3  C   UNL     1      35.343 -22.613 -16.844  0.00  0.00    +0.052 C 
ATOM      4  C   UNL     1      35.075 -22.160 -18.135  0.00  0.00    +0.018 C 
ATOM      5  C   UNL     1      33.170 -23.272 -17.214  0.00  0.00    +0.252 C 
ATOM      6  C   UNL     1      33.708 -22.549 -18.425  0.00  0.00    +0.202 C 
ATOM      7  C   UNL     1      36.000 -21.483 -18.901  0.00  0.00    -0.001 C 
ATOM      8  C   UNL     1      36.581 -22.396 -16.267  0.00  0.00    +0.015 C 
ATOM      9  C   UNL     1      37.252 -21.259 -18.325  0.00  0.00    -0.000 C 
ATOM     10  C   UNL     1      37.539 -21.711 -17.022  0.00  0.00    +0.001 C 
ENDROOT
BRANCH   7  11
ATOM     11  C   UNL     1      35.727 -21.010 -20.246  0.00  0.00    -0.000 C 
ATOM     12  C   UNL     1      35.673 -19.708 -20.622  0.00  0.00    -0.000 C 
BRANCH  12  13
ATOM     13  C   UNL     1      35.413 -19.228 -21.991  0.00  0.00    -0.000 C 
ATOM     14  C   UNL     1      35.143 -20.141 -23.011  0.00  0.00    -0.000 C 
ATOM     15  C   UNL     1      35.436 -17.861 -22.267  0.00  0.00    -0.000 C 
ATOM     16  C   UNL     1      34.896 -19.686 -24.307  0.00  0.00    +0.000 C 
ATOM     17  C   UNL     1      35.190 -17.406 -23.562  0.00  0.00    +0.000 C 
ATOM     18  C   UNL     1      34.920 -18.319 -24.582  0.00  0.00    +0.000 C 
ENDBRANCH  12  13
ENDBRANCH   7  11
BRANCH   6  19
ATOM     19  N   UNL     1      33.025 -22.349 -19.496  0.00  0.00    -0.075 NA
BRANCH  19  20
ATOM     20  O   UNL     1      32.476 -21.064 -19.437  0.00  0.00    -0.294 OA
ATOM     21  H   UNL     1      32.955 -20.368 -19.033  0.00  0.00    +0.238 HD
ENDBRANCH  19  20
ENDBRANCH   6  19
BRANCH   2  22
ATOM     22  C   UNL     1      34.189 -23.845 -14.986  0.00  0.00    +0.128 C 
BRANCH  22  26
ATOM     23  F   UNL     1      36.946 -27.637 -16.276  0.00  0.00    -0.204 F 
ATOM     24  O   UNL     1      35.913 -23.496 -12.812  0.00  0.00    -0.448 OA
ATOM     25  O   UNL     1      37.514 -24.387 -11.260  0.00  0.00    -0.311 OA
ATOM     26  C   UNL     1      35.366 -24.743 -14.739  0.00  0.00    +0.034 C 
ATOM     27  C   UNL     1      36.211 -24.544 -13.647  0.00  0.00    +0.138 C 
ATOM     28  C   UNL     1      37.295 -25.401 -13.421  0.00  0.00    +0.043 C 
ATOM     29  C   UNL     1      35.616 -25.791 -15.625  0.00  0.00    +0.030 C 
ATOM     30  C   UNL     1      38.190 -25.173 -12.242  0.00  0.00    +0.176 C 
ATOM     31  C   UNL     1      37.545 -26.441 -14.321  0.00  0.00    +0.031 C 
ATOM     32  C   UNL     1      36.706 -26.636 -15.420  0.00  0.00    +0.140 C 
ATOM     33  C   UNL     1      36.949 -23.225 -11.862  0.00  0.00    +0.361 C 
ENDBRANCH  22  26
ENDBRANCH   2  22
TORSDOF 6
ENDMDL
MODEL 2
REMARK VINA RESULT:     -12.6      5.832     10.128
REMARK  Name = 45268539
REMARK  6 active torsions:
REMARK  status: ('A' for Active; 'I' for Inactive)
REMARK    1  A    between atoms: N_2  and  C_22
REMARK    2  A    between atoms: N_3  and  C_7
REMARK    3  A    between atoms: N_3  and  O_12
REMARK    4  A    between atoms: C_8  and  C_14
REMARK    5  A    between atoms: C_15  and  C_16
REMARK    6  A    between atoms: C_22  and  C_26
REMARK                            x       y       z     vdW  Elec       q    Type
REMARK                         _______ _______ _______ _____ _____    ______ ____
ROOT
ATOM      1  O   UNL     1      34.665 -16.294 -20.975  0.00  0.00    -0.273 OA
ATOM      2  N   UNL     1      34.283 -16.483 -23.313  0.00  0.00    -0.253 N 
ATOM      3  C   UNL     1      34.056 -15.535 -24.330  0.00  0.00    +0.052 C 
ATOM      4  C   UNL     1      34.067 -14.243 -23.804  0.00  0.00    +0.018 C 
ATOM      5  C   UNL     1      34.452 -15.862 -22.087  0.00  0.00    +0.252 C 
ATOM      6  C   UNL     1      34.314 -14.387 -22.382  0.00  0.00    +0.202 C 
ATOM      7  C   UNL     1      33.870 -13.117 -24.575  0.00  0.00    -0.001 C 
ATOM      8  C   UNL     1      33.842 -15.742 -25.680  0.00  0.00    +0.015 C 
ATOM      9  C   UNL     1      33.654 -13.317 -25.939  0.00  0.00    -0.000 C 
ATOM     10  C   UNL     1      33.639 -14.615 -26.486  0.00  0.00    +0.001 C 
ENDROOT
BRANCH   7  11
ATOM     11  C   UNL     1      33.878 -11.771 -24.033  0.00  0.00    -0.000 C 
ATOM     12  C   UNL     1      32.809 -11.140 -23.487  0.00  0.00    -0.000 C 
BRANCH  12  13
ATOM     13  C   UNL     1      32.821  -9.779 -22.921  0.00  0.00    -0.000 C 
ATOM     14  C   UNL     1      31.930  -9.439 -21.903  0.00  0.00    -0.000 C 
ATOM     15  C   UNL     1      33.725  -8.832 -23.401  0.00  0.00    -0.000 C 
ATOM     16  C   UNL     1      31.942  -8.151 -21.367  0.00  0.00    +0.000 C 
ATOM     17  C   UNL     1      33.737  -7.544 -22.866  0.00  0.00    +0.000 C 
ATOM     18  C   UNL     1      32.845  -7.203 -21.849  0.00  0.00    +0.000 C 
ENDBRANCH  12  13
ENDBRANCH   7  11
BRANCH   6  19
ATOM     19  N   UNL     1      34.408 -13.471 -21.486  0.00  0.00    -0.075 NA
BRANCH  19  20
ATOM     20  O   UNL     1      33.220 -13.447 -20.749  0.00  0.00    -0.294 OA
ATOM     21  H   UNL     1      32.412 -13.228 -21.170  0.00  0.00    +0.238 HD
ENDBRANCH  19  20
ENDBRANCH   6  19
BRANCH   2  22
ATOM     22  C   UNL     1      34.329 -17.905 -23.549  0.00  0.00    +0.128 C 
BRANCH  22  26
ATOM     23  F   UNL     1      38.897 -18.653 -22.059  0.00  0.00    -0.204 F 
ATOM     24  O   UNL     1      33.530 -19.745 -21.601  0.00  0.00    -0.448 OA
ATOM     25  O   UNL     1      34.025 -21.604 -20.165  0.00  0.00    -0.311 OA
ATOM     26  C   UNL     1      35.307 -18.595 -22.643  0.00  0.00    +0.034 C 
ATOM     27  C   UNL     1      34.879 -19.507 -21.678  0.00  0.00    +0.138 C 
ATOM     28  C   UNL     1      35.805 -20.154 -20.851  0.00  0.00    +0.043 C 
ATOM     29  C   UNL     1      36.666 -18.309 -22.771  0.00  0.00    +0.030 C 
ATOM     30  C   UNL     1      35.327 -21.132 -19.822  0.00  0.00    +0.176 C 
ATOM     31  C   UNL     1      37.165 -19.853 -20.978  0.00  0.00    +0.031 C 
ATOM     32  C   UNL     1      37.594 -18.934 -21.937  0.00  0.00    +0.140 C 
ATOM     33  C   UNL     1      33.160 -20.506 -20.446  0.00  0.00    +0.361 C 
ENDBRANCH  22  26
ENDBRANCH   2  22
TORSDOF 6
ENDMDL
MODEL 3
REMARK VINA RESULT:     -12.2      4.256     10.532
REMARK  Name = 45268539
REMARK  6 active torsions:
REMARK  status: ('A' for Active; 'I' for Inactive)
REMARK    1  A    between atoms: N_2  and  C_22
REMARK    2  A    between atoms: N_3  and  C_7
REMARK    3  A    between atoms: N_3  and  O_12
REMARK    4  A    between atoms: C_8  and  C_14
REMARK    5  A    between atoms: C_15  and  C_16
REMARK    6  A    between atoms: C_22  and  C_26
REMARK                            x       y       z     vdW  Elec       q    Type
REMARK                         _______ _______ _______ _____ _____    ______ ____
ROOT
ATOM      1  O   UNL     1      37.849 -18.328 -22.152  0.00  0.00    -0.273 OA
ATOM      2  N   UNL     1      35.533 -18.834 -22.328  0.00  0.00    -0.253 N 
ATOM      3  C   UNL     1      34.669 -19.656 -21.580  0.00  0.00    +0.052 C 
ATOM      4  C   UNL     1      35.363 -20.274 -20.539  0.00  0.00    +0.018 C 
ATOM      5  C   UNL     1      36.820 -18.874 -21.817  0.00  0.00    +0.252 C 
ATOM      6  C   UNL     1      36.735 -19.815 -20.639  0.00  0.00    +0.202 C 
ATOM      7  C   UNL     1      34.764 -21.136 -19.645  0.00  0.00    -0.001 C 
ATOM      8  C   UNL     1      33.318 -19.891 -21.759  0.00  0.00    +0.015 C 
ATOM      9  C   UNL     1      33.401 -21.378 -19.819  0.00  0.00    -0.000 C 
ATOM     10  C   UNL     1      32.685 -20.762 -20.865  0.00  0.00    +0.001 C 
ENDROOT
BRANCH   7  11
ATOM     11  C   UNL     1      35.481 -21.783 -18.561  0.00  0.00    -0.000 C 
ATOM     12  C   UNL     1      34.907 -22.465 -17.540  0.00  0.00    -0.000 C 
BRANCH  12  13
ATOM     13  C   UNL     1      35.635 -23.136 -16.449  0.00  0.00    -0.000 C 
ATOM     14  C   UNL     1      34.976 -24.056 -15.632  0.00  0.00    -0.000 C 
ATOM     15  C   UNL     1      36.984 -22.854 -16.233  0.00  0.00    -0.000 C 
ATOM     16  C   UNL     1      35.666 -24.692 -14.599  0.00  0.00    +0.000 C 
ATOM     17  C   UNL     1      37.674 -23.490 -15.201  0.00  0.00    +0.000 C 
ATOM     18  C   UNL     1      37.015 -24.408 -14.384  0.00  0.00    +0.000 C 
ENDBRANCH  12  13
ENDBRANCH   7  11
BRANCH   6  19
ATOM     19  N   UNL     1      37.740 -20.117 -19.896  0.00  0.00    -0.075 NA
BRANCH  19  20
ATOM     20  O   UNL     1      38.093 -18.990 -19.148  0.00  0.00    -0.294 OA
ATOM     21  H   UNL     1      38.619 -18.317 -19.533  0.00  0.00    +0.238 HD
ENDBRANCH  19  20
ENDBRANCH   6  19
BRANCH   2  22
ATOM     22  C   UNL     1      35.105 -18.063 -23.470  0.00  0.00    +0.128 C 
BRANCH  22  26
ATOM     23  F   UNL     1      34.891 -14.501 -20.167  0.00  0.00    -0.204 F 
ATOM     24  O   UNL     1      34.005 -16.257 -25.300  0.00  0.00    -0.448 OA
ATOM     25  O   UNL     1      32.720 -14.283 -25.760  0.00  0.00    -0.311 OA
ATOM     26  C   UNL     1      34.751 -16.653 -23.097  0.00  0.00    +0.034 C 
ATOM     27  C   UNL     1      34.206 -15.773 -24.032  0.00  0.00    +0.138 C 
ATOM     28  C   UNL     1      33.866 -14.466 -23.663  0.00  0.00    +0.043 C 
ATOM     29  C   UNL     1      34.981 -16.221 -21.791  0.00  0.00    +0.030 C 
ATOM     30  C   UNL     1      33.279 -13.535 -24.680  0.00  0.00    +0.176 C 
ATOM     31  C   UNL     1      34.110 -14.037 -22.355  0.00  0.00    +0.031 C 
ATOM     32  C   UNL     1      34.664 -14.914 -21.421  0.00  0.00    +0.140 C 
ATOM     33  C   UNL     1      33.664 -15.235 -26.243  0.00  0.00    +0.361 C 
ENDBRANCH  22  26
ENDBRANCH   2  22
TORSDOF 6
ENDMDL
MODEL 4
REMARK VINA RESULT:     -12.1      7.860     13.292
REMARK  Name = 45268539
REMARK  6 active torsions:
REMARK  status: ('A' for Active; 'I' for Inactive)
REMARK    1  A    between atoms: N_2  and  C_22
REMARK    2  A    between atoms: N_3  and  C_7
REMARK    3  A    between atoms: N_3  and  O_12
REMARK    4  A    between atoms: C_8  and  C_14
REMARK    5  A    between atoms: C_15  and  C_16
REMARK    6  A    between atoms: C_22  and  C_26
REMARK                            x       y       z     vdW  Elec       q    Type
REMARK                         _______ _______ _______ _____ _____    ______ ____
ROOT
ATOM      1  O   UNL     1      32.027 -12.239 -20.228  0.00  0.00    -0.273 OA
ATOM      2  N   UNL     1      32.510 -12.260 -22.556  0.00  0.00    -0.253 N 
ATOM      3  C   UNL     1      33.230 -13.145 -23.380  0.00  0.00    +0.052 C 
ATOM      4  C   UNL     1      33.741 -14.204 -22.629  0.00  0.00    +0.018 C 
ATOM      5  C   UNL     1      32.516 -12.694 -21.241  0.00  0.00    +0.252 C 
ATOM      6  C   UNL     1      33.320 -13.972 -21.262  0.00  0.00    +0.202 C 
ATOM      7  C   UNL     1      34.490 -15.223 -23.181  0.00  0.00    -0.001 C 
ATOM      8  C   UNL     1      33.461 -13.075 -24.742  0.00  0.00    +0.015 C 
ATOM      9  C   UNL     1      34.727 -15.159 -24.554  0.00  0.00    -0.000 C 
ATOM     10  C   UNL     1      34.218 -14.096 -25.327  0.00  0.00    +0.001 C 
ENDROOT
BRANCH   7  11
ATOM     11  C   UNL     1      35.025 -16.326 -22.404  0.00  0.00    -0.000 C 
ATOM     12  C   UNL     1      34.561 -17.600 -22.430  0.00  0.00    -0.000 C 
BRANCH  12  13
ATOM     13  C   UNL     1      35.115 -18.724 -21.655  0.00  0.00    -0.000 C 
ATOM     14  C   UNL     1      36.487 -18.793 -21.410  0.00  0.00    -0.000 C 
ATOM     15  C   UNL     1      34.269 -19.719 -21.166  0.00  0.00    -0.000 C 
ATOM     16  C   UNL     1      37.012 -19.858 -20.676  0.00  0.00    +0.000 C 
ATOM     17  C   UNL     1      34.793 -20.782 -20.432  0.00  0.00    +0.000 C 
ATOM     18  C   UNL     1      36.165 -20.853 -20.188  0.00  0.00    +0.000 C 
ENDBRANCH  12  13
ENDBRANCH   7  11
BRANCH   6  19
ATOM     19  N   UNL     1      33.555 -14.682 -20.216  0.00  0.00    -0.075 NA
BRANCH  19  20
ATOM     20  O   UNL     1      32.362 -15.292 -19.817  0.00  0.00    -0.294 OA
ATOM     21  H   UNL     1      32.384 -16.023 -19.231  0.00  0.00    +0.238 HD
ENDBRANCH  19  20
ENDBRANCH   6  19
BRANCH   2  22
ATOM     22  C   UNL     1      31.862 -11.068 -23.046  0.00  0.00    +0.128 C 
BRANCH  22  26
ATOM     23  F   UNL     1      35.448  -8.143 -24.541  0.00  0.00    -0.204 F 
ATOM     24  O   UNL     1      31.533  -9.339 -20.872  0.00  0.00    -0.448 OA
ATOM     25  O   UNL     1      32.417  -7.679 -19.380  0.00  0.00    -0.311 OA
ATOM     26  C   UNL     1      32.712  -9.846 -22.853  0.00  0.00    +0.034 C 
ATOM     27  C   UNL     1      32.524  -9.000 -21.759  0.00  0.00    +0.138 C 
ATOM     28  C   UNL     1      33.336  -7.872 -21.584  0.00  0.00    +0.043 C 
ATOM     29  C   UNL     1      33.702  -9.554 -23.791  0.00  0.00    +0.030 C 
ATOM     30  C   UNL     1      33.120  -6.976 -20.403  0.00  0.00    +0.176 C 
ATOM     31  C   UNL     1      34.318  -7.582 -22.536  0.00  0.00    +0.031 C 
ATOM     32  C   UNL     1      34.502  -8.422 -23.635  0.00  0.00    +0.140 C 
ATOM     33  C   UNL     1      31.256  -8.307 -19.919  0.00  0.00    +0.361 C 
ENDBRANCH  22  26
ENDBRANCH   2  22
TORSDOF 6
ENDMDL
MODEL 5
REMARK VINA RESULT:     -12.1      6.748     12.609
REMARK  Name = 45268539
REMARK  6 active torsions:
REMARK  status: ('A' for Active; 'I' for Inactive)
REMARK    1  A    between atoms: N_2  and  C_22
REMARK    2  A    between atoms: N_3  and  C_7
REMARK    3  A    between atoms: N_3  and  O_12
REMARK    4  A    between atoms: C_8  and  C_14
REMARK    5  A    between atoms: C_15  and  C_16
REMARK    6  A    between atoms: C_22  and  C_26
REMARK                            x       y       z     vdW  Elec       q    Type
REMARK                         _______ _______ _______ _____ _____    ______ ____
ROOT
ATOM      1  O   UNL     1      34.413 -13.204 -21.342  0.00  0.00    -0.273 OA
ATOM      2  N   UNL     1      34.224 -14.001 -23.573  0.00  0.00    -0.253 N 
ATOM      3  C   UNL     1      34.347 -15.279 -24.151  0.00  0.00    +0.052 C 
ATOM      4  C   UNL     1      34.638 -16.231 -23.174  0.00  0.00    +0.018 C 
ATOM      5  C   UNL     1      34.427 -14.056 -22.204  0.00  0.00    +0.252 C 
ATOM      6  C   UNL     1      34.701 -15.512 -21.916  0.00  0.00    +0.202 C 
ATOM      7  C   UNL     1      34.813 -17.569 -23.457  0.00  0.00    -0.001 C 
ATOM      8  C   UNL     1      34.218 -15.651 -25.477  0.00  0.00    +0.015 C 
ATOM      9  C   UNL     1      34.684 -17.952 -24.793  0.00  0.00    -0.000 C 
ATOM     10  C   UNL     1      34.391 -17.004 -25.792  0.00  0.00    +0.001 C 
ENDROOT
BRANCH   7  11
ATOM     11  C   UNL     1      35.117 -18.563 -22.444  0.00  0.00    -0.000 C 
ATOM     12  C   UNL     1      34.200 -19.291 -21.761  0.00  0.00    -0.000 C 
BRANCH  12  13
ATOM     13  C   UNL     1      34.509 -20.313 -20.745  0.00  0.00    -0.000 C 
ATOM     14  C   UNL     1      33.475 -20.988 -20.097  0.00  0.00    -0.000 C 
ATOM     15  C   UNL     1      35.836 -20.607 -20.433  0.00  0.00    -0.000 C 
ATOM     16  C   UNL     1      33.768 -21.956 -19.135  0.00  0.00    +0.000 C 
ATOM     17  C   UNL     1      36.129 -21.574 -19.472  0.00  0.00    +0.000 C 
ATOM     18  C   UNL     1      35.095 -22.248 -18.823  0.00  0.00    +0.000 C 
ENDBRANCH  12  13
ENDBRANCH   7  11
BRANCH   6  19
ATOM     19  N   UNL     1      34.944 -15.971 -20.739  0.00  0.00    -0.075 NA
BRANCH  19  20
ATOM     20  O   UNL     1      33.788 -15.836 -19.964  0.00  0.00    -0.294 OA
ATOM     21  H   UNL     1      33.796 -16.096 -19.063  0.00  0.00    +0.238 HD
ENDBRANCH  19  20
ENDBRANCH   6  19
BRANCH   2  22
ATOM     22  C   UNL     1      33.926 -12.811 -24.332  0.00  0.00    +0.128 C 
BRANCH  22  26
ATOM     23  F   UNL     1      30.351 -11.597 -21.267  0.00  0.00    -0.204 F 
ATOM     24  O   UNL     1      34.754 -10.143 -24.220  0.00  0.00    -0.448 OA
ATOM     25  O   UNL     1      34.267  -7.827 -23.815  0.00  0.00    -0.311 OA
ATOM     26  C   UNL     1      33.212 -11.781 -23.506  0.00  0.00    +0.034 C 
ATOM     27  C   UNL     1      33.650 -10.457 -23.467  0.00  0.00    +0.138 C 
ATOM     28  C   UNL     1      32.964  -9.503 -22.705  0.00  0.00    +0.043 C 
ATOM     29  C   UNL     1      32.096 -12.163 -22.762  0.00  0.00    +0.030 C 
ATOM     30  C   UNL     1      33.447  -8.086 -22.676  0.00  0.00    +0.176 C 
ATOM     31  C   UNL     1      31.853  -9.898 -21.953  0.00  0.00    +0.031 C 
ATOM     32  C   UNL     1      31.419 -11.224 -21.984  0.00  0.00    +0.140 C 
ATOM     33  C   UNL     1      35.267  -8.835 -23.944  0.00  0.00    +0.361 C 
ENDBRANCH  22  26
ENDBRANCH   2  22
TORSDOF 6
ENDMDL
MODEL 6
REMARK VINA RESULT:     -11.9      5.883      9.784
REMARK  Name = 45268539
REMARK  6 active torsions:
REMARK  status: ('A' for Active; 'I' for Inactive)
REMARK    1  A    between atoms: N_2  and  C_22
REMARK    2  A    between atoms: N_3  and  C_7
REMARK    3  A    between atoms: N_3  and  O_12
REMARK    4  A    between atoms: C_8  and  C_14
REMARK    5  A    between atoms: C_15  and  C_16
REMARK    6  A    between atoms: C_22  and  C_26
REMARK                            x       y       z     vdW  Elec       q    Type
REMARK                         _______ _______ _______ _____ _____    ______ ____
ROOT
ATOM      1  O   UNL     1      34.043 -16.690 -26.332  0.00  0.00    -0.273 OA
ATOM      2  N   UNL     1      34.217 -17.072 -23.992  0.00  0.00    -0.253 N 
ATOM      3  C   UNL     1      34.179 -16.217 -22.873  0.00  0.00    +0.052 C 
ATOM      4  C   UNL     1      34.003 -14.893 -23.276  0.00  0.00    +0.018 C 
ATOM      5  C   UNL     1      34.068 -16.354 -25.167  0.00  0.00    +0.252 C 
ATOM      6  C   UNL     1      33.926 -14.917 -24.724  0.00  0.00    +0.202 C 
ATOM      7  C   UNL     1      33.930 -13.842 -22.387  0.00  0.00    -0.001 C 
ATOM      8  C   UNL     1      34.290 -16.534 -21.532  0.00  0.00    +0.015 C 
ATOM      9  C   UNL     1      34.041 -14.153 -21.031  0.00  0.00    -0.000 C 
ATOM     10  C   UNL     1      34.219 -15.485 -20.608  0.00  0.00    +0.001 C 
ENDROOT
BRANCH   7  11
ATOM     11  C   UNL     1      33.749 -12.462 -22.801  0.00  0.00    -0.000 C 
ATOM     12  C   UNL     1      32.721 -11.661 -22.425  0.00  0.00    -0.000 C 
BRANCH  12  13
ATOM     13  C   UNL     1      32.546 -10.255 -22.830  0.00  0.00    -0.000 C 
ATOM     14  C   UNL     1      33.639  -9.520 -23.290  0.00  0.00    -0.000 C 
ATOM     15  C   UNL     1      31.286  -9.659 -22.756  0.00  0.00    -0.000 C 
ATOM     16  C   UNL     1      33.472  -8.188 -23.673  0.00  0.00    +0.000 C 
ATOM     17  C   UNL     1      31.120  -8.329 -23.140  0.00  0.00    +0.000 C 
ATOM     18  C   UNL     1      32.213  -7.593 -23.598  0.00  0.00    +0.000 C 
ENDBRANCH  12  13
ENDBRANCH   7  11
BRANCH   6  19
ATOM     19  N   UNL     1      33.768 -13.934 -25.537  0.00  0.00    -0.075 NA
BRANCH  19  20
ATOM     20  O   UNL     1      32.597 -14.148 -26.270  0.00  0.00    -0.294 OA
ATOM     21  H   UNL     1      31.949 -14.746 -25.953  0.00  0.00    +0.238 HD
ENDBRANCH  19  20
ENDBRANCH   6  19
BRANCH   2  22
ATOM     22  C   UNL     1      34.388 -18.500 -23.894  0.00  0.00    +0.128 C 
BRANCH  22  26
ATOM     23  F   UNL     1      38.927 -18.305 -22.162  0.00  0.00    -0.204 F 
ATOM     24  O   UNL     1      33.749 -20.086 -21.681  0.00  0.00    -0.448 OA
ATOM     25  O   UNL     1      34.421 -21.584 -19.930  0.00  0.00    -0.311 OA
ATOM     26  C   UNL     1      35.401 -18.876 -22.854  0.00  0.00    +0.034 C 
ATOM     27  C   UNL     1      35.053 -19.667 -21.758  0.00  0.00    +0.138 C 
ATOM     28  C   UNL     1      36.015 -20.023 -20.804  0.00  0.00    +0.043 C 
ATOM     29  C   UNL     1      36.712 -18.418 -22.988  0.00  0.00    +0.030 C 
ATOM     30  C   UNL     1      35.623 -20.874 -19.635  0.00  0.00    +0.176 C 
ATOM     31  C   UNL     1      37.324 -19.550 -20.941  0.00  0.00    +0.031 C 
ATOM     32  C   UNL     1      37.671 -18.751 -22.032  0.00  0.00    +0.140 C 
ATOM     33  C   UNL     1      33.427 -20.689 -20.423  0.00  0.00    +0.361 C 
ENDBRANCH  22  26
ENDBRANCH   2  22
TORSDOF 6
ENDMDL
MODEL 7
REMARK VINA RESULT:     -11.7      2.483      3.359
REMARK  Name = 45268539
REMARK  6 active torsions:
REMARK  status: ('A' for Active; 'I' for Inactive)
REMARK    1  A    between atoms: N_2  and  C_22
REMARK    2  A    between atoms: N_3  and  C_7
REMARK    3  A    between atoms: N_3  and  O_12
REMARK    4  A    between atoms: C_8  and  C_14
REMARK    5  A    between atoms: C_15  and  C_16
REMARK    6  A    between atoms: C_22  and  C_26
REMARK                            x       y       z     vdW  Elec       q    Type
REMARK                         _______ _______ _______ _____ _____    ______ ____
ROOT
ATOM      1  O   UNL     1      37.671 -22.849 -15.917  0.00  0.00    -0.273 OA
ATOM      2  N   UNL     1      35.356 -23.362 -16.081  0.00  0.00    -0.253 N 
ATOM      3  C   UNL     1      34.355 -23.008 -17.007  0.00  0.00    +0.052 C 
ATOM      4  C   UNL     1      34.884 -22.191 -18.006  0.00  0.00    +0.018 C 
ATOM      5  C   UNL     1      36.573 -22.800 -16.428  0.00  0.00    +0.252 C 
ATOM      6  C   UNL     1      36.290 -22.024 -17.692  0.00  0.00    +0.202 C 
ATOM      7  C   UNL     1      34.128 -21.693 -19.046  0.00  0.00    -0.001 C 
ATOM      8  C   UNL     1      33.018 -23.359 -17.020  0.00  0.00    +0.015 C 
ATOM      9  C   UNL     1      32.777 -22.043 -19.068  0.00  0.00    -0.000 C 
ATOM     10  C   UNL     1      32.228 -22.867 -18.066  0.00  0.00    +0.001 C 
ENDROOT
BRANCH   7  11
ATOM     11  C   UNL     1      34.672 -20.841 -20.088  0.00  0.00    -0.000 C 
ATOM     12  C   UNL     1      33.953 -19.978 -20.849  0.00  0.00    -0.000 C 
BRANCH  12  13
ATOM     13  C   UNL     1      34.507 -19.101 -21.895  0.00  0.00    -0.000 C 
ATOM     14  C   UNL     1      34.525 -19.525 -23.224  0.00  0.00    -0.000 C 
ATOM     15  C   UNL     1      35.012 -17.845 -21.557  0.00  0.00    -0.000 C 
ATOM     16  C   UNL     1      35.050 -18.694 -24.214  0.00  0.00    +0.000 C 
ATOM     17  C   UNL     1      35.537 -17.015 -22.547  0.00  0.00    +0.000 C 
ATOM     18  C   UNL     1      35.556 -17.439 -23.876  0.00  0.00    +0.000 C 
ENDBRANCH  12  13
ENDBRANCH   7  11
BRANCH   6  19
ATOM     19  N   UNL     1      37.182 -21.352 -18.329  0.00  0.00    -0.075 NA
BRANCH  19  20
ATOM     20  O   UNL     1      37.593 -20.286 -17.524  0.00  0.00    -0.294 OA
ATOM     21  H   UNL     1      38.501 -20.062 -17.471  0.00  0.00    +0.238 HD
ENDBRANCH  19  20
ENDBRANCH   6  19
BRANCH   2  22
ATOM     22  C   UNL     1      35.114 -24.202 -14.933  0.00  0.00    +0.128 C 
BRANCH  22  26
ATOM     23  F   UNL     1      37.374 -22.436 -11.007  0.00  0.00    -0.204 F 
ATOM     24  O   UNL     1      37.261 -25.972 -15.214  0.00  0.00    -0.448 OA
ATOM     25  O   UNL     1      39.557 -26.541 -14.805  0.00  0.00    -0.311 OA
ATOM     26  C   UNL     1      36.279 -24.212 -13.987  0.00  0.00    +0.034 C 
ATOM     27  C   UNL     1      37.335 -25.108 -14.150  0.00  0.00    +0.138 C 
ATOM     28  C   UNL     1      38.423 -25.093 -13.268  0.00  0.00    +0.043 C 
ATOM     29  C   UNL     1      36.295 -23.309 -12.924  0.00  0.00    +0.030 C 
ATOM     30  C   UNL     1      39.549 -26.062 -13.461  0.00  0.00    +0.176 C 
ATOM     31  C   UNL     1      38.425 -24.192 -12.199  0.00  0.00    +0.031 C 
ATOM     32  C   UNL     1      37.365 -23.301 -12.029  0.00  0.00    +0.140 C 
ATOM     33  C   UNL     1      38.258 -26.999 -15.173  0.00  0.00    +0.361 C 
ENDBRANCH  22  26
ENDBRANCH   2  22
TORSDOF 6
ENDMDL
MODEL 8
REMARK VINA RESULT:     -11.6      1.923      2.537
REMARK  Name = 45268539
REMARK  6 active torsions:
REMARK  status: ('A' for Active; 'I' for Inactive)
REMARK    1  A    between atoms: N_2  and  C_22
REMARK    2  A    between atoms: N_3  and  C_7
REMARK    3  A    between atoms: N_3  and  O_12
REMARK    4  A    between atoms: C_8  and  C_14
REMARK    5  A    between atoms: C_15  and  C_16
REMARK    6  A    between atoms: C_22  and  C_26
REMARK                            x       y       z     vdW  Elec       q    Type
REMARK                         _______ _______ _______ _____ _____    ______ ____
ROOT
ATOM      1  O   UNL     1      32.024 -24.093 -16.306  0.00  0.00    -0.273 OA
ATOM      2  N   UNL     1      34.288 -23.882 -15.614  0.00  0.00    -0.253 N 
ATOM      3  C   UNL     1      35.410 -23.246 -16.178  0.00  0.00    +0.052 C 
ATOM      4  C   UNL     1      35.069 -22.633 -17.384  0.00  0.00    +0.018 C 
ATOM      5  C   UNL     1      33.171 -23.716 -16.416  0.00  0.00    +0.252 C 
ATOM      6  C   UNL     1      33.658 -22.898 -17.588  0.00  0.00    +0.202 C 
ATOM      7  C   UNL     1      35.974 -21.935 -18.155  0.00  0.00    -0.001 C 
ATOM      8  C   UNL     1      36.705 -23.175 -15.697  0.00  0.00    +0.015 C 
ATOM      9  C   UNL     1      37.283 -21.859 -17.676  0.00  0.00    -0.000 C 
ATOM     10  C   UNL     1      37.645 -22.473 -16.461  0.00  0.00    +0.001 C 
ENDROOT
BRANCH   7  11
ATOM     11  C   UNL     1      35.625 -21.297 -19.411  0.00  0.00    -0.000 C 
ATOM     12  C   UNL     1      36.357 -20.339 -20.033  0.00  0.00    -0.000 C 
BRANCH  12  13
ATOM     13  C   UNL     1      36.012 -19.703 -21.317  0.00  0.00    -0.000 C 
ATOM     14  C   UNL     1      36.893 -18.796 -21.905  0.00  0.00    -0.000 C 
ATOM     15  C   UNL     1      34.804 -20.010 -21.944  0.00  0.00    -0.000 C 
ATOM     16  C   UNL     1      36.566 -18.194 -23.121  0.00  0.00    +0.000 C 
ATOM     17  C   UNL     1      34.478 -19.409 -23.159  0.00  0.00    +0.000 C 
ATOM     18  C   UNL     1      35.358 -18.500 -23.747  0.00  0.00    +0.000 C 
ENDBRANCH  12  13
ENDBRANCH   7  11
BRANCH   6  19
ATOM     19  N   UNL     1      32.903 -22.534 -18.563  0.00  0.00    -0.075 NA
BRANCH  19  20
ATOM     20  O   UNL     1      31.701 -22.051 -18.039  0.00  0.00    -0.294 OA
ATOM     21  H   UNL     1      31.417 -22.326 -17.188  0.00  0.00    +0.238 HD
ENDBRANCH  19  20
ENDBRANCH   6  19
BRANCH   2  22
ATOM     22  C   UNL     1      34.328 -24.602 -14.365  0.00  0.00    +0.128 C 
BRANCH  22  26
ATOM     23  F   UNL     1      37.179 -22.309 -11.162  0.00  0.00    -0.204 F 
ATOM     24  O   UNL     1      36.493 -26.294 -14.885  0.00  0.00    -0.448 OA
ATOM     25  O   UNL     1      38.857 -26.711 -14.883  0.00  0.00    -0.311 OA
ATOM     26  C   UNL     1      35.651 -24.453 -13.672  0.00  0.00    +0.034 C 
ATOM     27  C   UNL     1      36.713 -25.314 -13.950  0.00  0.00    +0.138 C 
ATOM     28  C   UNL     1      37.947 -25.152 -13.307  0.00  0.00    +0.043 C 
ATOM     29  C   UNL     1      35.812 -23.437 -12.730  0.00  0.00    +0.030 C 
ATOM     30  C   UNL     1      39.076 -26.085 -13.619  0.00  0.00    +0.176 C 
ATOM     31  C   UNL     1      38.095 -24.138 -12.355  0.00  0.00    +0.031 C 
ATOM     32  C   UNL     1      37.031 -23.282 -12.070  0.00  0.00    +0.140 C 
ATOM     33  C   UNL     1      37.544 -27.264 -14.939  0.00  0.00    +0.361 C 
ENDBRANCH  22  26
ENDBRANCH   2  22
TORSDOF 6
ENDMDL
MODEL 9
REMARK VINA RESULT:     -11.5      3.765      8.958
REMARK  Name = 45268539
REMARK  6 active torsions:
REMARK  status: ('A' for Active; 'I' for Inactive)
REMARK    1  A    between atoms: N_2  and  C_22
REMARK    2  A    between atoms: N_3  and  C_7
REMARK    3  A    between atoms: N_3  and  O_12
REMARK    4  A    between atoms: C_8  and  C_14
REMARK    5  A    between atoms: C_15  and  C_16
REMARK    6  A    between atoms: C_22  and  C_26
REMARK                            x       y       z     vdW  Elec       q    Type
REMARK                         _______ _______ _______ _____ _____    ______ ____
ROOT
ATOM      1  O   UNL     1      33.660 -20.498 -21.234  0.00  0.00    -0.273 OA
ATOM      2  N   UNL     1      35.698 -20.608 -20.016  0.00  0.00    -0.253 N 
ATOM      3  C   UNL     1      36.084 -21.293 -18.848  0.00  0.00    +0.052 C 
ATOM      4  C   UNL     1      35.019 -22.041 -18.346  0.00  0.00    +0.018 C 
ATOM      5  C   UNL     1      34.376 -20.874 -20.331  0.00  0.00    +0.252 C 
ATOM      6  C   UNL     1      33.905 -21.814 -19.247  0.00  0.00    +0.202 C 
ATOM      7  C   UNL     1      35.113 -22.812 -17.207  0.00  0.00    -0.001 C 
ATOM      8  C   UNL     1      37.308 -21.296 -18.205  0.00  0.00    +0.015 C 
ATOM      9  C   UNL     1      36.346 -22.820 -16.552  0.00  0.00    -0.000 C 
ATOM     10  C   UNL     1      37.432 -22.071 -17.045  0.00  0.00    +0.001 C 
ENDROOT
BRANCH   7  11
ATOM     11  C   UNL     1      34.008 -23.591 -16.679  0.00  0.00    -0.000 C 
ATOM     12  C   UNL     1      33.056 -23.125 -15.832  0.00  0.00    -0.000 C 
BRANCH  12  13
ATOM     13  C   UNL     1      31.924 -23.911 -15.310  0.00  0.00    -0.000 C 
ATOM     14  C   UNL     1      31.983 -24.451 -14.026  0.00  0.00    -0.000 C 
ATOM     15  C   UNL     1      30.792 -24.113 -16.100  0.00  0.00    -0.000 C 
ATOM     16  C   UNL     1      30.911 -25.195 -13.531  0.00  0.00    +0.000 C 
ATOM     17  C   UNL     1      29.721 -24.856 -15.606  0.00  0.00    +0.000 C 
ATOM     18  C   UNL     1      29.780 -25.398 -14.322  0.00  0.00    +0.000 C 
ENDBRANCH  12  13
ENDBRANCH   7  11
BRANCH   6  19
ATOM     19  N   UNL     1      32.714 -22.293 -19.189  0.00  0.00    -0.075 NA
BRANCH  19  20
ATOM     20  O   UNL     1      31.862 -21.304 -18.686  0.00  0.00    -0.294 OA
ATOM     21  H   UNL     1      30.981 -21.520 -18.452  0.00  0.00    +0.238 HD
ENDBRANCH  19  20
ENDBRANCH   6  19
BRANCH   2  22
ATOM     22  C   UNL     1      36.585 -19.752 -20.764  0.00  0.00    +0.128 C 
BRANCH  22  26
ATOM     23  F   UNL     1      35.075 -20.234 -25.361  0.00  0.00    -0.204 F 
ATOM     24  O   UNL     1      35.560 -17.151 -20.836  0.00  0.00    -0.448 OA
ATOM     25  O   UNL     1      34.895 -15.209 -22.081  0.00  0.00    -0.311 OA
ATOM     26  C   UNL     1      35.922 -19.181 -21.984  0.00  0.00    +0.034 C 
ATOM     27  C   UNL     1      35.417 -17.880 -21.990  0.00  0.00    +0.138 C 
ATOM     28  C   UNL     1      34.815 -17.357 -23.141  0.00  0.00    +0.043 C 
ATOM     29  C   UNL     1      35.806 -19.974 -23.125  0.00  0.00    +0.030 C 
ATOM     30  C   UNL     1      34.281 -15.957 -23.130  0.00  0.00    +0.176 C 
ATOM     31  C   UNL     1      34.693 -18.163 -24.277  0.00  0.00    +0.031 C 
ATOM     32  C   UNL     1      35.189 -19.468 -24.269  0.00  0.00    +0.140 C 
ATOM     33  C   UNL     1      34.819 -15.926 -20.852  0.00  0.00    +0.361 C 
ENDBRANCH  22  26
ENDBRANCH   2  22
TORSDOF 6
ENDMDL
