MODEL 1
REMARK VINA RESULT:     -13.2      0.000      0.000
REMARK  Name = 11224409
REMARK  8 active torsions:
REMARK  status: ('A' for Active; 'I' for Inactive)
REMARK    1  A    between atoms: C_2  and  N_10
REMARK    2  A    between atoms: C_5  and  C_20
REMARK    3  A    between atoms: C_11  and  C_14
REMARK    4  A    between atoms: C_14  and  N_16
REMARK    5  A    between atoms: C_21  and  C_26
REMARK    6  A    between atoms: C_26  and  N_27
REMARK    7  A    between atoms: N_27  and  C_30
REMARK    8  A    between atoms: C_30  and  C_34
REMARK                            x       y       z     vdW  Elec       q    Type
REMARK                         _______ _______ _______ _____ _____    ______ ____
ROOT
ATOM      1  F   UNL     1      32.714 -20.957 -19.739  0.00  0.00    -0.204 F 
ATOM      2  C   UNL     1      35.169 -19.294 -21.841  0.00  0.00    +0.059 C 
ATOM      3  C   UNL     1      33.941 -19.700 -21.316  0.00  0.00    +0.045 C 
ATOM      4  C   UNL     1      36.356 -19.765 -21.280  0.00  0.00    +0.015 C 
ATOM      5  C   UNL     1      35.089 -21.047 -19.672  0.00  0.00    +0.028 C 
ATOM      6  C   UNL     1      33.902 -20.577 -20.232  0.00  0.00    +0.141 C 
ATOM      7  C   UNL     1      36.317 -20.641 -20.195  0.00  0.00    +0.004 C 
ENDROOT
BRANCH   2  10
ATOM      8  O   UNL     1      35.125 -17.554 -25.039  0.00  0.00    -0.434 OA
ATOM      9  O   UNL     1      34.735 -19.777 -24.813  0.00  0.00    -0.226 OA
ATOM     10  N   UNL     1      35.209 -18.400 -22.948  0.00  0.00    -0.221 N 
ATOM     11  C   UNL     1      35.214 -16.427 -24.158  0.00  0.00    +0.210 C 
ATOM     12  C   UNL     1      35.608 -17.024 -22.824  0.00  0.00    +0.147 C 
ATOM     13  C   UNL     1      34.987 -18.701 -24.290  0.00  0.00    +0.409 C 
BRANCH  11  14
ATOM     14  C   UNL     1      33.865 -15.722 -24.125  0.00  0.00    +0.135 C 
BRANCH  14  16
ATOM     15  O   UNL     1      33.209 -15.707 -26.954  0.00  0.00    -0.275 OA
ATOM     16  N   UNL     1      33.848 -14.594 -25.009  0.00  0.00    -0.301 N 
ATOM     17  C   UNL     1      33.520 -14.678 -26.358  0.00  0.00    +0.223 C 
ATOM     18  C   UNL     1      33.557 -13.341 -27.048  0.00  0.00    +0.095 C 
ATOM     19  H   UNL     1      34.082 -13.711 -24.641  0.00  0.00    +0.150 HD
ENDBRANCH  14  16
ENDBRANCH  11  14
ENDBRANCH   2  10
BRANCH   5  20
ATOM     20  C   UNL     1      35.053 -21.956 -18.547  0.00  0.00    +0.002 C 
ATOM     21  C   UNL     1      34.984 -23.711 -16.380  0.00  0.00    -0.044 C 
ATOM     22  C   UNL     1      33.933 -22.760 -18.336  0.00  0.00    -0.000 C 
ATOM     23  C   UNL     1      36.139 -22.030 -17.674  0.00  0.00    -0.000 C 
ATOM     24  C   UNL     1      33.899 -23.639 -17.253  0.00  0.00    -0.006 C 
ATOM     25  C   UNL     1      36.104 -22.907 -16.590  0.00  0.00    -0.006 C 
BRANCH  21  26
ATOM     26  C   UNL     1      34.947 -24.651 -15.222  0.00  0.00    -0.054 C 
BRANCH  26  27
ATOM     27  N   UNL     1      36.236 -24.740 -14.534  0.00  0.00    +0.390 N 
ATOM     28  H   UNL     1      36.080 -24.726 -13.526  0.00  0.00    -0.083 HD
ATOM     29  H   UNL     1      36.813 -23.947 -14.814  0.00  0.00    -0.083 HD
BRANCH  27  30
ATOM     30  C   UNL     1      36.926 -25.969 -14.893  0.00  0.00    -0.031 C 
BRANCH  30  34
ATOM     31  N   UNL     1      39.220 -26.881 -14.719  0.00  0.00    -0.170 NA
ATOM     32  N   UNL     1      40.426 -26.294 -14.687  0.00  0.00    -0.157 N 
ATOM     33  N   UNL     1      40.490 -24.954 -14.757  0.00  0.00    -0.162 NA
ATOM     34  C   UNL     1      38.422 -25.814 -14.821  0.00  0.00    +0.077 C 
ATOM     35  C   UNL     1      39.193 -24.644 -14.844  0.00  0.00    +0.133 C 
ATOM     36  H   UNL     1      41.247 -26.833 -14.613  0.00  0.00    +0.197 HD
ENDBRANCH  30  34
ENDBRANCH  27  30
ENDBRANCH  26  27
ENDBRANCH  21  26
ENDBRANCH   5  20
TORSDOF 8
ENDMDL
MODEL 2
REMARK VINA RESULT:     -13.1      4.358     11.500
REMARK  Name = 11224409
REMARK  8 active torsions:
REMARK  status: ('A' for Active; 'I' for Inactive)
REMARK    1  A    between atoms: C_2  and  N_10
REMARK    2  A    between atoms: C_5  and  C_20
REMARK    3  A    between atoms: C_11  and  C_14
REMARK    4  A    between atoms: C_14  and  N_16
REMARK    5  A    between atoms: C_21  and  C_26
REMARK    6  A    between atoms: C_26  and  N_27
REMARK    7  A    between atoms: N_27  and  C_30
REMARK    8  A    between atoms: C_30  and  C_34
REMARK                            x       y       z     vdW  Elec       q    Type
REMARK                         _______ _______ _______ _____ _____    ______ ____
ROOT
ATOM      1  F   UNL     1      37.257 -19.849 -20.953  0.00  0.00    -0.204 F 
ATOM      2  C   UNL     1      34.869 -21.720 -18.952  0.00  0.00    +0.059 C 
ATOM      3  C   UNL     1      36.079 -21.216 -19.431  0.00  0.00    +0.045 C 
ATOM      4  C   UNL     1      33.668 -21.330 -19.545  0.00  0.00    +0.015 C 
ATOM      5  C   UNL     1      34.886 -19.935 -21.096  0.00  0.00    +0.028 C 
ATOM      6  C   UNL     1      36.087 -20.324 -20.504  0.00  0.00    +0.141 C 
ATOM      7  C   UNL     1      33.676 -20.437 -20.616  0.00  0.00    +0.004 C 
ENDROOT
BRANCH   2  10
ATOM      8  O   UNL     1      35.444 -23.772 -16.000  0.00  0.00    -0.434 OA
ATOM      9  O   UNL     1      36.894 -22.187 -16.730  0.00  0.00    -0.226 OA
ATOM     10  N   UNL     1      34.861 -22.630 -17.858  0.00  0.00    -0.221 N 
ATOM     11  C   UNL     1      34.086 -24.137 -16.280  0.00  0.00    +0.210 C 
ATOM     12  C   UNL     1      33.847 -23.636 -17.689  0.00  0.00    +0.147 C 
ATOM     13  C   UNL     1      35.831 -22.777 -16.869  0.00  0.00    +0.409 C 
BRANCH  11  14
ATOM     14  C   UNL     1      33.178 -23.482 -15.248  0.00  0.00    +0.135 C 
BRANCH  14  16
ATOM     15  O   UNL     1      31.876 -25.220 -13.321  0.00  0.00    -0.275 OA
ATOM     16  N   UNL     1      31.850 -24.015 -15.315  0.00  0.00    -0.301 N 
ATOM     17  C   UNL     1      31.304 -24.845 -14.341  0.00  0.00    +0.223 C 
ATOM     18  C   UNL     1      29.884 -25.240 -14.646  0.00  0.00    +0.095 C 
ATOM     19  H   UNL     1      31.293 -23.781 -16.093  0.00  0.00    +0.150 HD
ENDBRANCH  14  16
ENDBRANCH  11  14
ENDBRANCH   2  10
BRANCH   5  20
ATOM     20  C   UNL     1      34.889 -19.010 -22.209  0.00  0.00    +0.002 C 
ATOM     21  C   UNL     1      34.893 -17.226 -24.353  0.00  0.00    -0.044 C 
ATOM     22  C   UNL     1      34.708 -19.481 -23.508  0.00  0.00    -0.000 C 
ATOM     23  C   UNL     1      35.073 -17.645 -21.981  0.00  0.00    -0.000 C 
ATOM     24  C   UNL     1      34.709 -18.589 -24.581  0.00  0.00    -0.006 C 
ATOM     25  C   UNL     1      35.075 -16.753 -23.053  0.00  0.00    -0.006 C 
BRANCH  21  26
ATOM     26  C   UNL     1      34.895 -16.272 -25.500  0.00  0.00    -0.054 C 
BRANCH  26  27
ATOM     27  N   UNL     1      33.542 -15.907 -25.924  0.00  0.00    +0.390 N 
ATOM     28  H   UNL     1      32.888 -16.111 -25.168  0.00  0.00    -0.083 HD
ATOM     29  H   UNL     1      33.301 -16.446 -26.755  0.00  0.00    -0.083 HD
BRANCH  27  30
ATOM     30  C   UNL     1      33.470 -14.491 -26.248  0.00  0.00    -0.031 C 
BRANCH  30  34
ATOM     31  N   UNL     1      34.083 -12.473 -24.952  0.00  0.00    -0.170 NA
ATOM     32  N   UNL     1      33.770 -12.065 -23.712  0.00  0.00    -0.157 N 
ATOM     33  N   UNL     1      32.977 -12.846 -22.961  0.00  0.00    -0.162 NA
ATOM     34  C   UNL     1      33.424 -13.634 -25.010  0.00  0.00    +0.077 C 
ATOM     35  C   UNL     1      32.753 -13.861 -23.801  0.00  0.00    +0.133 C 
ATOM     36  H   UNL     1      34.116 -11.213 -23.361  0.00  0.00    +0.197 HD
ENDBRANCH  30  34
ENDBRANCH  27  30
ENDBRANCH  26  27
ENDBRANCH  21  26
ENDBRANCH   5  20
TORSDOF 8
ENDMDL
MODEL 3
REMARK VINA RESULT:     -13.0      4.355     11.571
REMARK  Name = 11224409
REMARK  8 active torsions:
REMARK  status: ('A' for Active; 'I' for Inactive)
REMARK    1  A    between atoms: C_2  and  N_10
REMARK    2  A    between atoms: C_5  and  C_20
REMARK    3  A    between atoms: C_11  and  C_14
REMARK    4  A    between atoms: C_14  and  N_16
REMARK    5  A    between atoms: C_21  and  C_26
REMARK    6  A    between atoms: C_26  and  N_27
REMARK    7  A    between atoms: N_27  and  C_30
REMARK    8  A    between atoms: C_30  and  C_34
REMARK                            x       y       z     vdW  Elec       q    Type
REMARK                         _______ _______ _______ _____ _____    ______ ____
ROOT
ATOM      1  F   UNL     1      33.328 -22.765 -18.462  0.00  0.00    -0.204 F 
ATOM      2  C   UNL     1      35.951 -23.476 -16.049  0.00  0.00    +0.059 C 
ATOM      3  C   UNL     1      34.716 -23.497 -16.698  0.00  0.00    +0.045 C 
ATOM      4  C   UNL     1      36.989 -22.692 -16.552  0.00  0.00    +0.015 C 
ATOM      5  C   UNL     1      35.559 -21.951 -18.352  0.00  0.00    +0.028 C 
ATOM      6  C   UNL     1      34.520 -22.734 -17.849  0.00  0.00    +0.141 C 
ATOM      7  C   UNL     1      36.794 -21.930 -17.704  0.00  0.00    +0.004 C 
ENDROOT
BRANCH   2  10
ATOM      8  O   UNL     1      36.503 -25.987 -13.471  0.00  0.00    -0.434 OA
ATOM      9  O   UNL     1      36.401 -26.462 -15.686  0.00  0.00    -0.226 OA
ATOM     10  N   UNL     1      36.150 -24.254 -14.874  0.00  0.00    -0.221 N 
ATOM     11  C   UNL     1      36.618 -24.801 -12.674  0.00  0.00    +0.210 C 
ATOM     12  C   UNL     1      36.048 -23.704 -13.548  0.00  0.00    +0.147 C 
ATOM     13  C   UNL     1      36.361 -25.629 -14.792  0.00  0.00    +0.409 C 
BRANCH  11  14
ATOM     14  C   UNL     1      38.083 -24.586 -12.321  0.00  0.00    +0.135 C 
BRANCH  14  16
ATOM     15  O   UNL     1      39.627 -24.270 -14.760  0.00  0.00    -0.275 OA
ATOM     16  N   UNL     1      38.918 -25.563 -12.957  0.00  0.00    -0.301 N 
ATOM     17  C   UNL     1      39.625 -25.325 -14.131  0.00  0.00    +0.223 C 
ATOM     18  C   UNL     1      40.441 -26.512 -14.567  0.00  0.00    +0.095 C 
ATOM     19  H   UNL     1      38.993 -26.452 -12.539  0.00  0.00    +0.150 HD
ENDBRANCH  14  16
ENDBRANCH  11  14
ENDBRANCH   2  10
BRANCH   5  20
ATOM     20  C   UNL     1      35.361 -21.158 -19.546  0.00  0.00    +0.002 C 
ATOM     21  C   UNL     1      34.978 -19.631 -21.849  0.00  0.00    -0.044 C 
ATOM     22  C   UNL     1      36.458 -20.615 -20.213  0.00  0.00    -0.000 C 
ATOM     23  C   UNL     1      34.071 -20.937 -20.031  0.00  0.00    -0.000 C 
ATOM     24  C   UNL     1      36.268 -19.852 -21.365  0.00  0.00    -0.006 C 
ATOM     25  C   UNL     1      33.880 -20.173 -21.182  0.00  0.00    -0.006 C 
BRANCH  21  26
ATOM     26  C   UNL     1      34.775 -18.815 -23.081  0.00  0.00    -0.054 C 
BRANCH  26  27
ATOM     27  N   UNL     1      35.777 -17.758 -23.222  0.00  0.00    +0.390 N 
ATOM     28  H   UNL     1      36.162 -17.785 -24.167  0.00  0.00    -0.083 HD
ATOM     29  H   UNL     1      36.515 -17.911 -22.536  0.00  0.00    -0.083 HD
BRANCH  27  30
ATOM     30  C   UNL     1      35.183 -16.452 -22.986  0.00  0.00    -0.031 C 
BRANCH  30  34
ATOM     31  N   UNL     1      33.653 -14.886 -24.140  0.00  0.00    -0.170 NA
ATOM     32  N   UNL     1      33.302 -14.749 -25.428  0.00  0.00    -0.157 N 
ATOM     33  N   UNL     1      33.838 -15.586 -26.332  0.00  0.00    -0.162 NA
ATOM     34  C   UNL     1      34.504 -15.913 -24.217  0.00  0.00    +0.077 C 
ATOM     35  C   UNL     1      34.616 -16.339 -25.548  0.00  0.00    +0.133 C 
ATOM     36  H   UNL     1      32.664 -14.052 -25.705  0.00  0.00    +0.197 HD
ENDBRANCH  30  34
ENDBRANCH  27  30
ENDBRANCH  26  27
ENDBRANCH  21  26
ENDBRANCH   5  20
TORSDOF 8
ENDMDL
MODEL 4
REMARK VINA RESULT:     -13.0      1.417      1.822
REMARK  Name = 11224409
REMARK  8 active torsions:
REMARK  status: ('A' for Active; 'I' for Inactive)
REMARK    1  A    between atoms: C_2  and  N_10
REMARK    2  A    between atoms: C_5  and  C_20
REMARK    3  A    between atoms: C_11  and  C_14
REMARK    4  A    between atoms: C_14  and  N_16
REMARK    5  A    between atoms: C_21  and  C_26
REMARK    6  A    between atoms: C_26  and  N_27
REMARK    7  A    between atoms: N_27  and  C_30
REMARK    8  A    between atoms: C_30  and  C_34
REMARK                            x       y       z     vdW  Elec       q    Type
REMARK                         _______ _______ _______ _____ _____    ______ ____
ROOT
ATOM      1  F   UNL     1      32.847 -21.110 -19.785  0.00  0.00    -0.204 F 
ATOM      2  C   UNL     1      35.244 -19.282 -21.817  0.00  0.00    +0.059 C 
ATOM      3  C   UNL     1      34.032 -19.775 -21.330  0.00  0.00    +0.045 C 
ATOM      4  C   UNL     1      36.443 -19.660 -21.212  0.00  0.00    +0.015 C 
ATOM      5  C   UNL     1      35.219 -21.023 -19.637  0.00  0.00    +0.028 C 
ATOM      6  C   UNL     1      34.020 -20.646 -20.241  0.00  0.00    +0.141 C 
ATOM      7  C   UNL     1      36.431 -20.531 -20.122  0.00  0.00    +0.004 C 
ENDROOT
BRANCH   2  10
ATOM      8  O   UNL     1      35.119 -17.559 -25.022  0.00  0.00    -0.434 OA
ATOM      9  O   UNL     1      34.735 -19.781 -24.774  0.00  0.00    -0.226 OA
ATOM     10  N   UNL     1      35.256 -18.394 -22.929  0.00  0.00    -0.221 N 
ATOM     11  C   UNL     1      35.229 -16.427 -24.149  0.00  0.00    +0.210 C 
ATOM     12  C   UNL     1      35.657 -17.017 -22.822  0.00  0.00    +0.147 C 
ATOM     13  C   UNL     1      35.000 -18.702 -24.263  0.00  0.00    +0.409 C 
BRANCH  11  14
ATOM     14  C   UNL     1      33.881 -15.722 -24.086  0.00  0.00    +0.135 C 
BRANCH  14  16
ATOM     15  O   UNL     1      33.230 -15.741 -26.915  0.00  0.00    -0.275 OA
ATOM     16  N   UNL     1      33.840 -14.601 -24.977  0.00  0.00    -0.301 N 
ATOM     17  C   UNL     1      33.517 -14.702 -26.326  0.00  0.00    +0.223 C 
ATOM     18  C   UNL     1      33.525 -13.369 -27.025  0.00  0.00    +0.095 C 
ATOM     19  H   UNL     1      34.054 -13.710 -24.615  0.00  0.00    +0.150 HD
ENDBRANCH  14  16
ENDBRANCH  11  14
ENDBRANCH   2  10
BRANCH   5  20
ATOM     20  C   UNL     1      35.211 -21.927 -18.506  0.00  0.00    +0.002 C 
ATOM     21  C   UNL     1      35.196 -23.666 -16.326  0.00  0.00    -0.044 C 
ATOM     22  C   UNL     1      36.328 -22.014 -17.676  0.00  0.00    -0.000 C 
ATOM     23  C   UNL     1      34.086 -22.709 -18.246  0.00  0.00    -0.000 C 
ATOM     24  C   UNL     1      36.320 -22.884 -16.585  0.00  0.00    -0.006 C 
ATOM     25  C   UNL     1      34.078 -23.579 -17.156  0.00  0.00    -0.006 C 
BRANCH  21  26
ATOM     26  C   UNL     1      35.188 -24.595 -15.159  0.00  0.00    -0.054 C 
BRANCH  26  27
ATOM     27  N   UNL     1      36.501 -25.193 -14.912  0.00  0.00    +0.390 N 
ATOM     28  H   UNL     1      37.226 -24.506 -15.120  0.00  0.00    -0.083 HD
ATOM     29  H   UNL     1      36.607 -26.011 -15.511  0.00  0.00    -0.083 HD
BRANCH  27  30
ATOM     30  C   UNL     1      36.623 -25.609 -13.524  0.00  0.00    -0.031 C 
BRANCH  30  34
ATOM     31  N   UNL     1      38.591 -24.436 -12.590  0.00  0.00    -0.170 NA
ATOM     32  N   UNL     1      38.709 -23.392 -11.754  0.00  0.00    -0.157 N 
ATOM     33  N   UNL     1      37.590 -22.815 -11.286  0.00  0.00    -0.162 NA
ATOM     34  C   UNL     1      37.262 -24.544 -12.673  0.00  0.00    +0.077 C 
ATOM     35  C   UNL     1      36.654 -23.561 -11.881  0.00  0.00    +0.133 C 
ATOM     36  H   UNL     1      39.596 -23.058 -11.488  0.00  0.00    +0.197 HD
ENDBRANCH  30  34
ENDBRANCH  27  30
ENDBRANCH  26  27
ENDBRANCH  21  26
ENDBRANCH   5  20
TORSDOF 8
ENDMDL
MODEL 5
REMARK VINA RESULT:     -12.8      6.963     10.451
REMARK  Name = 11224409
REMARK  8 active torsions:
REMARK  status: ('A' for Active; 'I' for Inactive)
REMARK    1  A    between atoms: C_2  and  N_10
REMARK    2  A    between atoms: C_5  and  C_20
REMARK    3  A    between atoms: C_11  and  C_14
REMARK    4  A    between atoms: C_14  and  N_16
REMARK    5  A    between atoms: C_21  and  C_26
REMARK    6  A    between atoms: C_26  and  N_27
REMARK    7  A    between atoms: N_27  and  C_30
REMARK    8  A    between atoms: C_30  and  C_34
REMARK                            x       y       z     vdW  Elec       q    Type
REMARK                         _______ _______ _______ _____ _____    ______ ____
ROOT
ATOM      1  F   UNL     1      31.874 -13.438 -21.673  0.00  0.00    -0.204 F 
ATOM      2  C   UNL     1      32.379  -9.909 -22.381  0.00  0.00    +0.059 C 
ATOM      3  C   UNL     1      31.921 -11.080 -21.776  0.00  0.00    +0.045 C 
ATOM      4  C   UNL     1      33.241  -9.982 -23.475  0.00  0.00    +0.015 C 
ATOM      5  C   UNL     1      33.185 -12.394 -23.360  0.00  0.00    +0.028 C 
ATOM      6  C   UNL     1      32.324 -12.322 -22.266  0.00  0.00    +0.141 C 
ATOM      7  C   UNL     1      33.645 -11.224 -23.965  0.00  0.00    +0.004 C 
ENDROOT
BRANCH   2  10
ATOM      8  O   UNL     1      31.619  -6.868 -20.529  0.00  0.00    -0.434 OA
ATOM      9  O   UNL     1      32.740  -8.631 -19.644  0.00  0.00    -0.226 OA
ATOM     10  N   UNL     1      31.967  -8.641 -21.881  0.00  0.00    -0.221 N 
ATOM     11  C   UNL     1      31.224  -6.450 -21.842  0.00  0.00    +0.210 C 
ATOM     12  C   UNL     1      31.144  -7.736 -22.637  0.00  0.00    +0.147 C 
ATOM     13  C   UNL     1      32.182  -8.122 -20.606  0.00  0.00    +0.409 C 
BRANCH  11  14
ATOM     14  C   UNL     1      32.262  -5.475 -22.380  0.00  0.00    +0.135 C 
BRANCH  14  16
ATOM     15  O   UNL     1      33.160  -5.190 -25.127  0.00  0.00    -0.275 OA
ATOM     16  N   UNL     1      33.341  -6.168 -23.020  0.00  0.00    -0.301 N 
ATOM     17  C   UNL     1      33.704  -5.968 -24.348  0.00  0.00    +0.223 C 
ATOM     18  C   UNL     1      34.887  -6.806 -24.757  0.00  0.00    +0.095 C 
ATOM     19  H   UNL     1      33.853  -6.821 -22.490  0.00  0.00    +0.150 HD
ENDBRANCH  14  16
ENDBRANCH  11  14
ENDBRANCH   2  10
BRANCH   5  20
ATOM     20  C   UNL     1      33.606 -13.681 -23.872  0.00  0.00    +0.002 C 
ATOM     21  C   UNL     1      34.415 -16.162 -24.857  0.00  0.00    -0.044 C 
ATOM     22  C   UNL     1      34.555 -14.430 -23.178  0.00  0.00    -0.000 C 
ATOM     23  C   UNL     1      33.061 -14.172 -25.059  0.00  0.00    -0.000 C 
ATOM     24  C   UNL     1      34.959 -15.672 -23.670  0.00  0.00    -0.006 C 
ATOM     25  C   UNL     1      33.466 -15.412 -25.552  0.00  0.00    -0.006 C 
BRANCH  21  26
ATOM     26  C   UNL     1      34.848 -17.489 -25.383  0.00  0.00    -0.054 C 
BRANCH  26  27
ATOM     27  N   UNL     1      34.118 -18.598 -24.766  0.00  0.00    +0.390 N 
ATOM     28  H   UNL     1      33.529 -19.044 -25.470  0.00  0.00    -0.083 HD
ATOM     29  H   UNL     1      33.544 -18.232 -24.007  0.00  0.00    -0.083 HD
BRANCH  27  30
ATOM     30  C   UNL     1      35.041 -19.581 -24.222  0.00  0.00    -0.031 C 
BRANCH  30  34
ATOM     31  N   UNL     1      34.594 -19.736 -21.793  0.00  0.00    -0.170 NA
ATOM     32  N   UNL     1      35.253 -19.270 -20.721  0.00  0.00    -0.157 N 
ATOM     33  N   UNL     1      36.384 -18.571 -20.917  0.00  0.00    -0.162 NA
ATOM     34  C   UNL     1      35.378 -19.297 -22.782  0.00  0.00    +0.077 C 
ATOM     35  C   UNL     1      36.464 -18.589 -22.250  0.00  0.00    +0.133 C 
ATOM     36  H   UNL     1      34.915 -19.435 -19.811  0.00  0.00    +0.197 HD
ENDBRANCH  30  34
ENDBRANCH  27  30
ENDBRANCH  26  27
ENDBRANCH  21  26
ENDBRANCH   5  20
TORSDOF 8
ENDMDL
MODEL 6
REMARK VINA RESULT:     -12.7      3.683     11.644
REMARK  Name = 11224409
REMARK  8 active torsions:
REMARK  status: ('A' for Active; 'I' for Inactive)
REMARK    1  A    between atoms: C_2  and  N_10
REMARK    2  A    between atoms: C_5  and  C_20
REMARK    3  A    between atoms: C_11  and  C_14
REMARK    4  A    between atoms: C_14  and  N_16
REMARK    5  A    between atoms: C_21  and  C_26
REMARK    6  A    between atoms: C_26  and  N_27
REMARK    7  A    between atoms: N_27  and  C_30
REMARK    8  A    between atoms: C_30  and  C_34
REMARK                            x       y       z     vdW  Elec       q    Type
REMARK                         _______ _______ _______ _____ _____    ______ ____
ROOT
ATOM      1  F   UNL     1      37.394 -20.140 -20.500  0.00  0.00    -0.204 F 
ATOM      2  C   UNL     1      35.050 -21.950 -18.392  0.00  0.00    +0.059 C 
ATOM      3  C   UNL     1      36.247 -21.436 -18.894  0.00  0.00    +0.045 C 
ATOM      4  C   UNL     1      33.844 -21.653 -19.026  0.00  0.00    +0.015 C 
ATOM      5  C   UNL     1      35.029 -20.330 -20.663  0.00  0.00    +0.028 C 
ATOM      6  C   UNL     1      36.236 -20.626 -20.030  0.00  0.00    +0.141 C 
ATOM      7  C   UNL     1      33.833 -20.843 -20.162  0.00  0.00    +0.004 C 
ENDROOT
BRANCH   2  10
ATOM      8  O   UNL     1      34.484 -24.284 -15.655  0.00  0.00    -0.434 OA
ATOM      9  O   UNL     1      33.030 -23.981 -17.370  0.00  0.00    -0.226 OA
ATOM     10  N   UNL     1      35.062 -22.776 -17.233  0.00  0.00    -0.221 N 
ATOM     11  C   UNL     1      35.842 -23.918 -15.377  0.00  0.00    +0.210 C 
ATOM     12  C   UNL     1      36.078 -22.683 -16.219  0.00  0.00    +0.147 C 
ATOM     13  C   UNL     1      34.093 -23.696 -16.838  0.00  0.00    +0.409 C 
BRANCH  11  14
ATOM     14  C   UNL     1      36.750 -25.082 -15.750  0.00  0.00    +0.135 C 
BRANCH  14  16
ATOM     15  O   UNL     1      38.537 -27.134 -14.736  0.00  0.00    -0.275 OA
ATOM     16  N   UNL     1      38.068 -24.902 -15.215  0.00  0.00    -0.301 N 
ATOM     17  C   UNL     1      38.858 -25.948 -14.749  0.00  0.00    +0.223 C 
ATOM     18  C   UNL     1      40.206 -25.484 -14.265  0.00  0.00    +0.095 C 
ATOM     19  H   UNL     1      38.433 -23.989 -15.175  0.00  0.00    +0.150 HD
ENDBRANCH  14  16
ENDBRANCH  11  14
ENDBRANCH   2  10
BRANCH   5  20
ATOM     20  C   UNL     1      35.013 -19.491 -21.842  0.00  0.00    +0.002 C 
ATOM     21  C   UNL     1      34.985 -17.873 -24.114  0.00  0.00    -0.044 C 
ATOM     22  C   UNL     1      35.078 -18.104 -21.711  0.00  0.00    -0.000 C 
ATOM     23  C   UNL     1      34.935 -20.069 -23.110  0.00  0.00    -0.000 C 
ATOM     24  C   UNL     1      35.064 -17.295 -22.848  0.00  0.00    -0.006 C 
ATOM     25  C   UNL     1      34.920 -19.260 -24.245  0.00  0.00    -0.006 C 
BRANCH  21  26
ATOM     26  C   UNL     1      34.970 -17.007 -25.329  0.00  0.00    -0.054 C 
BRANCH  26  27
ATOM     27  N   UNL     1      33.660 -16.399 -25.566  0.00  0.00    +0.390 N 
ATOM     28  H   UNL     1      33.138 -16.377 -24.689  0.00  0.00    -0.083 HD
ATOM     29  H   UNL     1      33.161 -16.955 -26.260  0.00  0.00    -0.083 HD
BRANCH  27  30
ATOM     30  C   UNL     1      33.807 -15.043 -26.069  0.00  0.00    -0.031 C 
BRANCH  30  34
ATOM     31  N   UNL     1      33.911 -12.730 -25.194  0.00  0.00    -0.170 NA
ATOM     32  N   UNL     1      33.606 -12.202 -23.998  0.00  0.00    -0.157 N 
ATOM     33  N   UNL     1      33.151 -13.017 -23.033  0.00  0.00    -0.162 NA
ATOM     34  C   UNL     1      33.622 -14.018 -24.981  0.00  0.00    +0.077 C 
ATOM     35  C   UNL     1      33.161 -14.192 -23.669  0.00  0.00    +0.133 C 
ATOM     36  H   UNL     1      33.715 -11.237 -23.832  0.00  0.00    +0.197 HD
ENDBRANCH  30  34
ENDBRANCH  27  30
ENDBRANCH  26  27
ENDBRANCH  21  26
ENDBRANCH   5  20
TORSDOF 8
ENDMDL
MODEL 7
REMARK VINA RESULT:     -12.6      6.454     10.541
REMARK  Name = 11224409
REMARK  8 active torsions:
REMARK  status: ('A' for Active; 'I' for Inactive)
REMARK    1  A    between atoms: C_2  and  N_10
REMARK    2  A    between atoms: C_5  and  C_20
REMARK    3  A    between atoms: C_11  and  C_14
REMARK    4  A    between atoms: C_14  and  N_16
REMARK    5  A    between atoms: C_21  and  C_26
REMARK    6  A    between atoms: C_26  and  N_27
REMARK    7  A    between atoms: N_27  and  C_30
REMARK    8  A    between atoms: C_30  and  C_34
REMARK                            x       y       z     vdW  Elec       q    Type
REMARK                         _______ _______ _______ _____ _____    ______ ____
ROOT
ATOM      1  F   UNL     1      31.900 -13.420 -21.547  0.00  0.00    -0.204 F 
ATOM      2  C   UNL     1      32.403  -9.936 -22.456  0.00  0.00    +0.059 C 
ATOM      3  C   UNL     1      31.945 -11.071 -21.785  0.00  0.00    +0.045 C 
ATOM      4  C   UNL     1      33.265 -10.071 -23.544  0.00  0.00    +0.015 C 
ATOM      5  C   UNL     1      33.211 -12.473 -23.291  0.00  0.00    +0.028 C 
ATOM      6  C   UNL     1      32.349 -12.339 -22.203  0.00  0.00    +0.141 C 
ATOM      7  C   UNL     1      33.670 -11.339 -23.961  0.00  0.00    +0.004 C 
ENDROOT
BRANCH   2  10
ATOM      8  O   UNL     1      31.638  -6.796 -20.781  0.00  0.00    -0.434 OA
ATOM      9  O   UNL     1      32.752  -8.507 -19.794  0.00  0.00    -0.226 OA
ATOM     10  N   UNL     1      31.990  -8.643 -22.030  0.00  0.00    -0.221 N 
ATOM     11  C   UNL     1      31.249  -6.451 -22.117  0.00  0.00    +0.210 C 
ATOM     12  C   UNL     1      31.172  -7.780 -22.839  0.00  0.00    +0.147 C 
ATOM     13  C   UNL     1      32.200  -8.053 -20.785  0.00  0.00    +0.409 C 
BRANCH  11  14
ATOM     14  C   UNL     1      32.291  -5.509 -22.704  0.00  0.00    +0.135 C 
BRANCH  14  16
ATOM     15  O   UNL     1      30.681  -3.905 -24.512  0.00  0.00    -0.275 OA
ATOM     16  N   UNL     1      31.901  -4.139 -22.541  0.00  0.00    -0.301 N 
ATOM     17  C   UNL     1      31.124  -3.445 -23.463  0.00  0.00    +0.223 C 
ATOM     18  C   UNL     1      30.842  -2.030 -23.033  0.00  0.00    +0.095 C 
ATOM     19  H   UNL     1      32.201  -3.664 -21.732  0.00  0.00    +0.150 HD
ENDBRANCH  14  16
ENDBRANCH  11  14
ENDBRANCH   2  10
BRANCH   5  20
ATOM     20  C   UNL     1      33.632 -13.787 -23.727  0.00  0.00    +0.002 C 
ATOM     21  C   UNL     1      34.443 -16.320 -24.568  0.00  0.00    -0.044 C 
ATOM     22  C   UNL     1      34.576 -14.498 -22.987  0.00  0.00    -0.000 C 
ATOM     23  C   UNL     1      33.094 -14.342 -24.889  0.00  0.00    -0.000 C 
ATOM     24  C   UNL     1      34.981 -15.766 -23.407  0.00  0.00    -0.006 C 
ATOM     25  C   UNL     1      33.500 -15.608 -25.310  0.00  0.00    -0.006 C 
BRANCH  21  26
ATOM     26  C   UNL     1      34.877 -17.675 -25.017  0.00  0.00    -0.054 C 
BRANCH  26  27
ATOM     27  N   UNL     1      35.708 -18.353 -24.021  0.00  0.00    +0.390 N 
ATOM     28  H   UNL     1      36.292 -17.664 -23.547  0.00  0.00    -0.083 HD
ATOM     29  H   UNL     1      36.290 -19.043 -24.495  0.00  0.00    -0.083 HD
BRANCH  27  30
ATOM     30  C   UNL     1      34.880 -19.034 -23.039  0.00  0.00    -0.031 C 
BRANCH  30  34
ATOM     31  N   UNL     1      36.700 -18.631 -21.411  0.00  0.00    -0.170 NA
ATOM     32  N   UNL     1      37.067 -19.269 -20.289  0.00  0.00    -0.157 N 
ATOM     33  N   UNL     1      36.364 -20.347 -19.904  0.00  0.00    -0.162 NA
ATOM     34  C   UNL     1      35.652 -19.369 -21.790  0.00  0.00    +0.077 C 
ATOM     35  C   UNL     1      35.448 -20.411 -20.875  0.00  0.00    +0.133 C 
ATOM     36  H   UNL     1      37.836 -18.955 -19.760  0.00  0.00    +0.197 HD
ENDBRANCH  30  34
ENDBRANCH  27  30
ENDBRANCH  26  27
ENDBRANCH  21  26
ENDBRANCH   5  20
TORSDOF 8
ENDMDL
MODEL 8
REMARK VINA RESULT:     -12.6      1.422      1.889
REMARK  Name = 11224409
REMARK  8 active torsions:
REMARK  status: ('A' for Active; 'I' for Inactive)
REMARK    1  A    between atoms: C_2  and  N_10
REMARK    2  A    between atoms: C_5  and  C_20
REMARK    3  A    between atoms: C_11  and  C_14
REMARK    4  A    between atoms: C_14  and  N_16
REMARK    5  A    between atoms: C_21  and  C_26
REMARK    6  A    between atoms: C_26  and  N_27
REMARK    7  A    between atoms: N_27  and  C_30
REMARK    8  A    between atoms: C_30  and  C_34
REMARK                            x       y       z     vdW  Elec       q    Type
REMARK                         _______ _______ _______ _____ _____    ______ ____
ROOT
ATOM      1  F   UNL     1      37.213 -21.162 -19.737  0.00  0.00    -0.204 F 
ATOM      2  C   UNL     1      34.999 -19.323 -21.956  0.00  0.00    +0.059 C 
ATOM      3  C   UNL     1      36.164 -19.822 -21.373  0.00  0.00    +0.045 C 
ATOM      4  C   UNL     1      33.753 -19.695 -21.450  0.00  0.00    +0.015 C 
ATOM      5  C   UNL     1      34.838 -21.062 -19.780  0.00  0.00    +0.028 C 
ATOM      6  C   UNL     1      36.084 -20.691 -20.285  0.00  0.00    +0.141 C 
ATOM      7  C   UNL     1      33.672 -20.565 -20.363  0.00  0.00    +0.004 C 
ENDROOT
BRANCH   2  10
ATOM      8  O   UNL     1      35.042 -17.595 -25.160  0.00  0.00    -0.434 OA
ATOM      9  O   UNL     1      34.560 -19.799 -24.928  0.00  0.00    -0.226 OA
ATOM     10  N   UNL     1      35.081 -18.436 -23.066  0.00  0.00    -0.221 N 
ATOM     11  C   UNL     1      35.173 -16.469 -24.283  0.00  0.00    +0.210 C 
ATOM     12  C   UNL     1      35.535 -17.076 -22.944  0.00  0.00    +0.147 C 
ATOM     13  C   UNL     1      34.853 -18.732 -24.407  0.00  0.00    +0.409 C 
BRANCH  11  14
ATOM     14  C   UNL     1      33.854 -15.709 -24.259  0.00  0.00    +0.135 C 
BRANCH  14  16
ATOM     15  O   UNL     1      32.503 -13.558 -22.851  0.00  0.00    -0.275 OA
ATOM     16  N   UNL     1      34.064 -14.300 -24.414  0.00  0.00    -0.301 N 
ATOM     17  C   UNL     1      33.368 -13.334 -23.694  0.00  0.00    +0.223 C 
ATOM     18  C   UNL     1      33.803 -11.933 -24.034  0.00  0.00    +0.095 C 
ATOM     19  H   UNL     1      34.738 -13.999 -25.066  0.00  0.00    +0.150 HD
ENDBRANCH  14  16
ENDBRANCH  11  14
ENDBRANCH   2  10
BRANCH   5  20
ATOM     20  C   UNL     1      34.750 -21.964 -18.652  0.00  0.00    +0.002 C 
ATOM     21  C   UNL     1      34.578 -23.700 -16.475  0.00  0.00    -0.044 C 
ATOM     22  C   UNL     1      35.815 -22.069 -17.758  0.00  0.00    -0.000 C 
ATOM     23  C   UNL     1      33.598 -22.727 -18.457  0.00  0.00    -0.000 C 
ATOM     24  C   UNL     1      35.729 -22.937 -16.669  0.00  0.00    -0.006 C 
ATOM     25  C   UNL     1      33.512 -23.596 -17.369  0.00  0.00    -0.006 C 
BRANCH  21  26
ATOM     26  C   UNL     1      34.487 -24.628 -15.311  0.00  0.00    -0.054 C 
BRANCH  26  27
ATOM     27  N   UNL     1      35.754 -24.739 -14.585  0.00  0.00    +0.390 N 
ATOM     28  H   UNL     1      35.562 -24.804 -13.585  0.00  0.00    -0.083 HD
ATOM     29  H   UNL     1      36.319 -23.914 -14.784  0.00  0.00    -0.083 HD
BRANCH  27  30
ATOM     30  C   UNL     1      36.486 -25.921 -15.009  0.00  0.00    -0.031 C 
BRANCH  30  34
ATOM     31  N   UNL     1      38.749 -26.897 -14.784  0.00  0.00    -0.170 NA
ATOM     32  N   UNL     1      39.913 -26.391 -14.346  0.00  0.00    -0.157 N 
ATOM     33  N   UNL     1      39.941 -25.115 -13.930  0.00  0.00    -0.162 NA
ATOM     34  C   UNL     1      37.943 -25.841 -14.638  0.00  0.00    +0.077 C 
ATOM     35  C   UNL     1      38.667 -24.759 -14.118  0.00  0.00    +0.133 C 
ATOM     36  H   UNL     1      40.727 -26.944 -14.329  0.00  0.00    +0.197 HD
ENDBRANCH  30  34
ENDBRANCH  27  30
ENDBRANCH  26  27
ENDBRANCH  21  26
ENDBRANCH   5  20
TORSDOF 8
ENDMDL
MODEL 9
REMARK VINA RESULT:     -12.6      4.136     11.603
REMARK  Name = 11224409
REMARK  8 active torsions:
REMARK  status: ('A' for Active; 'I' for Inactive)
REMARK    1  A    between atoms: C_2  and  N_10
REMARK    2  A    between atoms: C_5  and  C_20
REMARK    3  A    between atoms: C_11  and  C_14
REMARK    4  A    between atoms: C_14  and  N_16
REMARK    5  A    between atoms: C_21  and  C_26
REMARK    6  A    between atoms: C_26  and  N_27
REMARK    7  A    between atoms: N_27  and  C_30
REMARK    8  A    between atoms: C_30  and  C_34
REMARK                            x       y       z     vdW  Elec       q    Type
REMARK                         _______ _______ _______ _____ _____    ______ ____
ROOT
ATOM      1  F   UNL     1      37.393 -19.603 -21.028  0.00  0.00    -0.204 F 
ATOM      2  C   UNL     1      35.154 -21.643 -19.019  0.00  0.00    +0.059 C 
ATOM      3  C   UNL     1      36.323 -21.058 -19.508  0.00  0.00    +0.045 C 
ATOM      4  C   UNL     1      33.923 -21.325 -19.593  0.00  0.00    +0.015 C 
ATOM      5  C   UNL     1      35.030 -19.839 -21.144  0.00  0.00    +0.028 C 
ATOM      6  C   UNL     1      36.261 -20.157 -20.570  0.00  0.00    +0.141 C 
ATOM      7  C   UNL     1      33.861 -20.423 -20.655  0.00  0.00    +0.004 C 
ENDROOT
BRANCH   2  10
ATOM      8  O   UNL     1      35.959 -23.793 -16.193  0.00  0.00    -0.434 OA
ATOM      9  O   UNL     1      37.444 -22.373 -17.154  0.00  0.00    -0.226 OA
ATOM     10  N   UNL     1      35.219 -22.564 -17.936  0.00  0.00    -0.221 N 
ATOM     11  C   UNL     1      34.541 -23.996 -16.248  0.00  0.00    +0.210 C 
ATOM     12  C   UNL     1      34.136 -23.450 -17.601  0.00  0.00    +0.147 C 
ATOM     13  C   UNL     1      36.313 -22.835 -17.117  0.00  0.00    +0.409 C 
BRANCH  11  14
ATOM     14  C   UNL     1      33.893 -23.258 -15.085  0.00  0.00    +0.135 C 
BRANCH  14  16
ATOM     15  O   UNL     1      33.746 -24.910 -12.701  0.00  0.00    -0.275 OA
ATOM     16  N   UNL     1      34.762 -23.222 -13.945  0.00  0.00    -0.301 N 
ATOM     17  C   UNL     1      34.617 -24.055 -12.841  0.00  0.00    +0.223 C 
ATOM     18  C   UNL     1      35.679 -23.824 -11.799  0.00  0.00    +0.095 C 
ATOM     19  H   UNL     1      35.501 -22.571 -13.944  0.00  0.00    +0.150 HD
ENDBRANCH  14  16
ENDBRANCH  11  14
ENDBRANCH   2  10
BRANCH   5  20
ATOM     20  C   UNL     1      34.960 -18.904 -22.246  0.00  0.00    +0.002 C 
ATOM     21  C   UNL     1      34.823 -17.102 -24.370  0.00  0.00    -0.044 C 
ATOM     22  C   UNL     1      34.708 -19.366 -23.537  0.00  0.00    -0.000 C 
ATOM     23  C   UNL     1      35.143 -17.540 -22.017  0.00  0.00    -0.000 C 
ATOM     24  C   UNL     1      34.639 -18.465 -24.600  0.00  0.00    -0.006 C 
ATOM     25  C   UNL     1      35.075 -16.639 -23.079  0.00  0.00    -0.006 C 
BRANCH  21  26
ATOM     26  C   UNL     1      34.749 -16.138 -25.507  0.00  0.00    -0.054 C 
BRANCH  26  27
ATOM     27  N   UNL     1      33.374 -15.903 -25.950  0.00  0.00    +0.390 N 
ATOM     28  H   UNL     1      32.731 -16.180 -25.209  0.00  0.00    -0.083 HD
ATOM     29  H   UNL     1      33.202 -16.453 -26.791  0.00  0.00    -0.083 HD
BRANCH  27  30
ATOM     30  C   UNL     1      33.167 -14.497 -26.260  0.00  0.00    -0.031 C 
BRANCH  30  34
ATOM     31  N   UNL     1      34.227 -12.584 -25.102  0.00  0.00    -0.170 NA
ATOM     32  N   UNL     1      34.110 -12.105 -23.853  0.00  0.00    -0.157 N 
ATOM     33  N   UNL     1      33.277 -12.728 -23.003  0.00  0.00    -0.162 NA
ATOM     34  C   UNL     1      33.384 -13.620 -25.055  0.00  0.00    +0.077 C 
ATOM     35  C   UNL     1      32.808 -13.707 -23.780  0.00  0.00    +0.133 C 
ATOM     36  H   UNL     1      34.624 -11.316 -23.567  0.00  0.00    +0.197 HD
ENDBRANCH  30  34
ENDBRANCH  27  30
ENDBRANCH  26  27
ENDBRANCH  21  26
ENDBRANCH   5  20
TORSDOF 8
ENDMDL
