MODEL 1
REMARK VINA RESULT:     -14.0      0.000      0.000
REMARK  Name = 11974440
REMARK  4 active torsions:
REMARK  status: ('A' for Active; 'I' for Inactive)
REMARK    1  A    between atoms: C_1  and  C_25
REMARK    2  A    between atoms: C_2  and  N_31
REMARK    3  A    between atoms: C_5  and  C_12
REMARK    4  A    between atoms: C_17  and  C_21
REMARK                            x       y       z     vdW  Elec       q    Type
REMARK                         _______ _______ _______ _____ _____    ______ ____
ROOT
ATOM      1  C   UNL     1      34.723 -19.875 -20.514  0.00  0.00    +0.009 C 
ATOM      2  C   UNL     1      35.852 -20.911 -20.273  0.00  0.00    -0.057 C 
ATOM      3  C   UNL     1      35.636 -21.644 -18.933  0.00  0.00    +0.009 C 
ATOM      4  C   UNL     1      33.341 -20.570 -20.518  0.00  0.00    +0.028 C 
ATOM      5  C   UNL     1      34.214 -22.071 -18.728  0.00  0.00    +0.025 C 
ATOM      6  C   UNL     1      33.181 -21.603 -19.441  0.00  0.00    -0.026 C 
ENDROOT
BRANCH   5  12
ATOM      7  O   UNL     1      32.931 -23.791 -17.838  0.00  0.00    -0.270 OA
ATOM      8  N   UNL     1      34.808 -23.171 -16.615  0.00  0.00    -0.267 N 
ATOM      9  N   UNL     1      37.056 -24.285 -15.474  0.00  0.00    -0.292 N 
ATOM     10  N   UNL     1      36.020 -25.871 -14.392  0.00  0.00    -0.132 NA
ATOM     11  N   UNL     1      37.385 -26.048 -14.244  0.00  0.00    -0.125 NA
ATOM     12  C   UNL     1      33.927 -23.081 -17.689  0.00  0.00    +0.245 C 
ATOM     13  C   UNL     1      35.966 -22.289 -16.365  0.00  0.00    +0.119 C 
ATOM     14  C   UNL     1      34.557 -24.176 -15.570  0.00  0.00    +0.160 C 
ATOM     15  C   UNL     1      37.246 -23.120 -16.310  0.00  0.00    +0.130 C 
ATOM     16  C   UNL     1      35.834 -24.803 -15.139  0.00  0.00    +0.164 A 
ATOM     17  C   UNL     1      37.989 -25.084 -14.903  0.00  0.00    +0.238 A 
BRANCH  17  21
ATOM     18  F   UNL     1      40.098 -25.868 -15.716  0.00  0.00    -0.163 F 
ATOM     19  F   UNL     1      39.786 -23.722 -15.702  0.00  0.00    -0.163 F 
ATOM     20  F   UNL     1      40.091 -24.786 -13.831  0.00  0.00    -0.163 F 
ATOM     21  C   UNL     1      39.441 -24.872 -15.036  0.00  0.00    +0.452 C 
ENDBRANCH  17  21
ENDBRANCH   5  12
BRANCH   1  25
ATOM     22  F   UNL     1      35.328 -17.103 -20.494  0.00  0.00    -0.204 F 
ATOM     23  F   UNL     1      34.786 -19.488 -25.385  0.00  0.00    -0.202 F 
ATOM     24  F   UNL     1      35.369 -16.823 -25.217  0.00  0.00    -0.202 F 
ATOM     25  C   UNL     1      34.899 -19.050 -21.780  0.00  0.00    +0.006 C 
ATOM     26  C   UNL     1      35.196 -17.694 -21.689  0.00  0.00    +0.138 C 
ATOM     27  C   UNL     1      34.759 -19.661 -23.023  0.00  0.00    +0.030 C 
ATOM     28  C   UNL     1      34.919 -18.907 -24.185  0.00  0.00    +0.167 C 
ATOM     29  C   UNL     1      35.356 -16.941 -22.851  0.00  0.00    +0.061 C 
ATOM     30  C   UNL     1      35.218 -17.547 -24.100  0.00  0.00    +0.170 C 
ENDBRANCH   1  25
BRANCH   2  31
ATOM     31  N   UNL     1      37.172 -20.275 -20.270  0.00  0.00    +0.382 N 
ATOM     32  H   UNL     1      37.318 -19.800 -19.379  0.00  0.00    -0.089 HD
ATOM     33  H   UNL     1      37.225 -19.597 -21.029  0.00  0.00    -0.089 HD
ATOM     34  H   UNL     1      37.893 -20.986 -20.397  0.00  0.00    -0.089 HD
ENDBRANCH   2  31
TORSDOF 4
ENDMDL
MODEL 2
REMARK VINA RESULT:     -13.4      3.842      4.775
REMARK  Name = 11974440
REMARK  4 active torsions:
REMARK  status: ('A' for Active; 'I' for Inactive)
REMARK    1  A    between atoms: C_1  and  C_25
REMARK    2  A    between atoms: C_2  and  N_31
REMARK    3  A    between atoms: C_5  and  C_12
REMARK    4  A    between atoms: C_17  and  C_21
REMARK                            x       y       z     vdW  Elec       q    Type
REMARK                         _______ _______ _______ _____ _____    ______ ____
ROOT
ATOM      1  C   UNL     1      35.274 -19.912 -21.762  0.00  0.00    +0.009 C 
ATOM      2  C   UNL     1      34.098 -20.008 -20.756  0.00  0.00    -0.057 C 
ATOM      3  C   UNL     1      34.320 -21.176 -19.775  0.00  0.00    +0.009 C 
ATOM      4  C   UNL     1      36.613 -19.715 -21.013  0.00  0.00    +0.028 C 
ATOM      5  C   UNL     1      35.722 -21.233 -19.247  0.00  0.00    +0.025 C 
ATOM      6  C   UNL     1      36.753 -20.572 -19.789  0.00  0.00    -0.026 C 
ENDROOT
BRANCH   5  12
ATOM      7  O   UNL     1      37.059 -21.882 -17.462  0.00  0.00    -0.270 OA
ATOM      8  N   UNL     1      35.004 -22.952 -17.648  0.00  0.00    -0.267 N 
ATOM      9  N   UNL     1      32.763 -23.511 -16.144  0.00  0.00    -0.292 N 
ATOM     10  N   UNL     1      33.821 -24.343 -14.428  0.00  0.00    -0.132 NA
ATOM     11  N   UNL     1      32.473 -24.265 -14.126  0.00  0.00    -0.125 NA
ATOM     12  C   UNL     1      35.988 -22.051 -18.046  0.00  0.00    +0.245 C 
ATOM     13  C   UNL     1      33.744 -23.236 -18.364  0.00  0.00    +0.119 C 
ATOM     14  C   UNL     1      35.233 -23.773 -16.448  0.00  0.00    +0.160 C 
ATOM     15  C   UNL     1      32.554 -22.935 -17.455  0.00  0.00    +0.130 C 
ATOM     16  C   UNL     1      33.984 -23.881 -15.650  0.00  0.00    +0.164 A 
ATOM     17  C   UNL     1      31.855 -23.761 -15.171  0.00  0.00    +0.238 A 
BRANCH  17  21
ATOM     18  F   UNL     1      30.050 -22.203 -14.985  0.00  0.00    -0.163 F 
ATOM     19  F   UNL     1      29.918 -23.675 -16.572  0.00  0.00    -0.163 F 
ATOM     20  F   UNL     1      29.632 -24.281 -14.503  0.00  0.00    -0.163 F 
ATOM     21  C   UNL     1      30.414 -23.487 -15.305  0.00  0.00    +0.452 C 
ENDBRANCH  17  21
ENDBRANCH   5  12
BRANCH   1  25
ATOM     22  F   UNL     1      34.965 -20.473 -24.526  0.00  0.00    -0.204 F 
ATOM     23  F   UNL     1      34.922 -15.209 -23.043  0.00  0.00    -0.202 F 
ATOM     24  F   UNL     1      34.634 -15.894 -25.673  0.00  0.00    -0.202 F 
ATOM     25  C   UNL     1      35.100 -18.831 -22.818  0.00  0.00    +0.006 C 
ATOM     26  C   UNL     1      34.953 -19.185 -24.155  0.00  0.00    +0.138 C 
ATOM     27  C   UNL     1      35.090 -17.492 -22.437  0.00  0.00    +0.030 C 
ATOM     28  C   UNL     1      34.932 -16.499 -23.403  0.00  0.00    +0.167 C 
ATOM     29  C   UNL     1      34.795 -18.192 -25.121  0.00  0.00    +0.061 C 
ATOM     30  C   UNL     1      34.783 -16.848 -24.745  0.00  0.00    +0.170 C 
ENDBRANCH   1  25
BRANCH   2  31
ATOM     31  N   UNL     1      32.817 -20.190 -21.445  0.00  0.00    +0.382 N 
ATOM     32  H   UNL     1      32.640 -19.389 -22.052  0.00  0.00    -0.089 HD
ATOM     33  H   UNL     1      32.069 -20.266 -20.756  0.00  0.00    -0.089 HD
ATOM     34  H   UNL     1      32.851 -21.041 -22.007  0.00  0.00    -0.089 HD
ENDBRANCH   2  31
TORSDOF 4
ENDMDL
MODEL 3
REMARK VINA RESULT:     -13.2      3.829      5.755
REMARK  Name = 11974440
REMARK  4 active torsions:
REMARK  status: ('A' for Active; 'I' for Inactive)
REMARK    1  A    between atoms: C_1  and  C_25
REMARK    2  A    between atoms: C_2  and  N_31
REMARK    3  A    between atoms: C_5  and  C_12
REMARK    4  A    between atoms: C_17  and  C_21
REMARK                            x       y       z     vdW  Elec       q    Type
REMARK                         _______ _______ _______ _____ _____    ______ ____
ROOT
ATOM      1  C   UNL     1      34.513 -16.748 -23.335  0.00  0.00    +0.009 C 
ATOM      2  C   UNL     1      34.925 -16.113 -21.982  0.00  0.00    -0.057 C 
ATOM      3  C   UNL     1      35.307 -17.207 -20.965  0.00  0.00    +0.009 C 
ATOM      4  C   UNL     1      35.667 -17.607 -23.904  0.00  0.00    +0.028 C 
ATOM      5  C   UNL     1      36.186 -18.268 -21.555  0.00  0.00    +0.025 C 
ATOM      6  C   UNL     1      36.362 -18.447 -22.871  0.00  0.00    -0.026 C 
ENDROOT
BRANCH   5  12
ATOM      7  O   UNL     1      37.998 -18.770 -20.192  0.00  0.00    -0.270 OA
ATOM      8  N   UNL     1      36.337 -20.390 -20.331  0.00  0.00    -0.267 N 
ATOM      9  N   UNL     1      34.716 -21.907 -18.699  0.00  0.00    -0.292 N 
ATOM     10  N   UNL     1      36.303 -22.657 -17.405  0.00  0.00    -0.132 NA
ATOM     11  N   UNL     1      35.083 -23.074 -16.901  0.00  0.00    -0.125 NA
ATOM     12  C   UNL     1      36.919 -19.164 -20.638  0.00  0.00    +0.245 C 
ATOM     13  C   UNL     1      35.086 -20.927 -20.905  0.00  0.00    +0.119 C 
ATOM     14  C   UNL     1      37.037 -21.300 -19.411  0.00  0.00    +0.160 C 
ATOM     15  C   UNL     1      34.080 -21.198 -19.788  0.00  0.00    +0.130 C 
ATOM     16  C   UNL     1      36.067 -21.950 -18.491  0.00  0.00    +0.164 A 
ATOM     17  C   UNL     1      34.142 -22.611 -17.694  0.00  0.00    +0.238 A 
BRANCH  17  21
ATOM     18  F   UNL     1      32.223 -22.637 -16.266  0.00  0.00    -0.163 F 
ATOM     19  F   UNL     1      31.931 -21.926 -18.294  0.00  0.00    -0.163 F 
ATOM     20  F   UNL     1      32.257 -24.043 -17.924  0.00  0.00    -0.163 F 
ATOM     21  C   UNL     1      32.688 -22.796 -17.548  0.00  0.00    +0.452 C 
ENDBRANCH  17  21
ENDBRANCH   5  12
BRANCH   1  25
ATOM     22  F   UNL     1      33.284 -17.497 -25.781  0.00  0.00    -0.204 F 
ATOM     23  F   UNL     1      33.959 -12.145 -24.878  0.00  0.00    -0.202 F 
ATOM     24  F   UNL     1      32.788 -13.008 -27.193  0.00  0.00    -0.202 F 
ATOM     25  C   UNL     1      34.046 -15.742 -24.376  0.00  0.00    +0.006 C 
ATOM     26  C   UNL     1      33.451 -16.187 -25.552  0.00  0.00    +0.138 C 
ATOM     27  C   UNL     1      34.220 -14.381 -24.143  0.00  0.00    +0.030 C 
ATOM     28  C   UNL     1      33.794 -13.457 -25.096  0.00  0.00    +0.167 C 
ATOM     29  C   UNL     1      33.024 -15.262 -26.505  0.00  0.00    +0.061 C 
ATOM     30  C   UNL     1      33.196 -13.896 -26.276  0.00  0.00    +0.170 C 
ENDBRANCH   1  25
BRANCH   2  31
ATOM     31  N   UNL     1      33.847 -15.290 -21.426  0.00  0.00    +0.382 N 
ATOM     32  H   UNL     1      32.996 -15.849 -21.355  0.00  0.00    -0.089 HD
ATOM     33  H   UNL     1      33.679 -14.492 -22.036  0.00  0.00    -0.089 HD
ATOM     34  H   UNL     1      34.114 -14.961 -20.498  0.00  0.00    -0.089 HD
ENDBRANCH   2  31
TORSDOF 4
ENDMDL
MODEL 4
REMARK VINA RESULT:     -13.1      3.914     10.024
REMARK  Name = 11974440
REMARK  4 active torsions:
REMARK  status: ('A' for Active; 'I' for Inactive)
REMARK    1  A    between atoms: C_1  and  C_25
REMARK    2  A    between atoms: C_2  and  N_31
REMARK    3  A    between atoms: C_5  and  C_12
REMARK    4  A    between atoms: C_17  and  C_21
REMARK                            x       y       z     vdW  Elec       q    Type
REMARK                         _______ _______ _______ _____ _____    ______ ____
ROOT
ATOM      1  C   UNL     1      34.858 -21.801 -19.421  0.00  0.00    +0.009 C 
ATOM      2  C   UNL     1      36.133 -20.939 -19.609  0.00  0.00    -0.057 C 
ATOM      3  C   UNL     1      36.229 -20.426 -21.061  0.00  0.00    +0.009 C 
ATOM      4  C   UNL     1      33.593 -20.980 -19.768  0.00  0.00    +0.028 C 
ATOM      5  C   UNL     1      34.925 -19.900 -21.578  0.00  0.00    +0.025 C 
ATOM      6  C   UNL     1      33.740 -20.134 -20.998  0.00  0.00    -0.026 C 
ENDROOT
BRANCH   5  12
ATOM      7  O   UNL     1      34.851 -19.620 -23.883  0.00  0.00    -0.270 OA
ATOM      8  N   UNL     1      35.041 -17.679 -22.617  0.00  0.00    -0.267 N 
ATOM      9  N   UNL     1      33.820 -15.228 -22.301  0.00  0.00    -0.292 N 
ATOM     10  N   UNL     1      33.824 -14.679 -24.412  0.00  0.00    -0.132 NA
ATOM     11  N   UNL     1      33.126 -13.717 -23.702  0.00  0.00    -0.125 NA
ATOM     12  C   UNL     1      34.939 -19.056 -22.790  0.00  0.00    +0.245 C 
ATOM     13  C   UNL     1      35.224 -16.975 -21.332  0.00  0.00    +0.119 C 
ATOM     14  C   UNL     1      35.045 -16.810 -23.805  0.00  0.00    +0.160 C 
ATOM     15  C   UNL     1      34.068 -16.003 -21.105  0.00  0.00    +0.130 C 
ATOM     16  C   UNL     1      34.236 -15.588 -23.554  0.00  0.00    +0.164 A 
ATOM     17  C   UNL     1      33.135 -14.068 -22.435  0.00  0.00    +0.238 A 
BRANCH  17  21
ATOM     18  F   UNL     1      31.509 -12.484 -21.678  0.00  0.00    -0.163 F 
ATOM     19  F   UNL     1      31.921 -14.169 -20.377  0.00  0.00    -0.163 F 
ATOM     20  F   UNL     1      33.391 -12.583 -20.595  0.00  0.00    -0.163 F 
ATOM     21  C   UNL     1      32.508 -13.351 -21.311  0.00  0.00    +0.452 C 
ENDBRANCH  17  21
ENDBRANCH   5  12
BRANCH   1  25
ATOM     22  F   UNL     1      32.438 -22.911 -18.440  0.00  0.00    -0.204 F 
ATOM     23  F   UNL     1      36.759 -23.030 -15.090  0.00  0.00    -0.202 F 
ATOM     24  F   UNL     1      34.364 -24.065 -14.275  0.00  0.00    -0.202 F 
ATOM     25  C   UNL     1      34.722 -22.413 -18.035  0.00  0.00    +0.006 C 
ATOM     26  C   UNL     1      33.501 -22.938 -17.625  0.00  0.00    +0.138 C 
ATOM     27  C   UNL     1      35.824 -22.441 -17.185  0.00  0.00    +0.030 C 
ATOM     28  C   UNL     1      35.703 -23.000 -15.913  0.00  0.00    +0.167 C 
ATOM     29  C   UNL     1      33.380 -23.498 -16.354  0.00  0.00    +0.061 C 
ATOM     30  C   UNL     1      34.481 -23.529 -15.498  0.00  0.00    +0.170 C 
ENDBRANCH   1  25
BRANCH   2  31
ATOM     31  N   UNL     1      37.345 -21.696 -19.282  0.00  0.00    +0.382 N 
ATOM     32  H   UNL     1      37.190 -22.233 -18.428  0.00  0.00    -0.089 HD
ATOM     33  H   UNL     1      38.121 -21.051 -19.142  0.00  0.00    -0.089 HD
ATOM     34  H   UNL     1      37.565 -22.334 -20.048  0.00  0.00    -0.089 HD
ENDBRANCH   2  31
TORSDOF 4
ENDMDL
MODEL 5
REMARK VINA RESULT:     -13.0      0.712      1.513
REMARK  Name = 11974440
REMARK  4 active torsions:
REMARK  status: ('A' for Active; 'I' for Inactive)
REMARK    1  A    between atoms: C_1  and  C_25
REMARK    2  A    between atoms: C_2  and  N_31
REMARK    3  A    between atoms: C_5  and  C_12
REMARK    4  A    between atoms: C_17  and  C_21
REMARK                            x       y       z     vdW  Elec       q    Type
REMARK                         _______ _______ _______ _____ _____    ______ ____
ROOT
ATOM      1  C   UNL     1      34.744 -19.724 -20.472  0.00  0.00    +0.009 C 
ATOM      2  C   UNL     1      35.862 -20.786 -20.299  0.00  0.00    -0.057 C 
ATOM      3  C   UNL     1      35.639 -21.600 -19.008  0.00  0.00    +0.009 C 
ATOM      4  C   UNL     1      33.355 -20.403 -20.517  0.00  0.00    +0.028 C 
ATOM      5  C   UNL     1      34.213 -22.024 -18.828  0.00  0.00    +0.025 C 
ATOM      6  C   UNL     1      33.185 -21.500 -19.508  0.00  0.00    -0.026 C 
ENDROOT
BRANCH   5  12
ATOM      7  O   UNL     1      32.954 -23.830 -18.086  0.00  0.00    -0.270 OA
ATOM      8  N   UNL     1      34.751 -23.210 -16.747  0.00  0.00    -0.267 N 
ATOM      9  N   UNL     1      36.984 -24.305 -15.559  0.00  0.00    -0.292 N 
ATOM     10  N   UNL     1      35.959 -25.979 -14.607  0.00  0.00    -0.132 NA
ATOM     11  N   UNL     1      37.321 -26.117 -14.405  0.00  0.00    -0.125 NA
ATOM     12  C   UNL     1      33.917 -23.095 -17.855  0.00  0.00    +0.245 C 
ATOM     13  C   UNL     1      35.864 -22.304 -16.400  0.00  0.00    +0.119 C 
ATOM     14  C   UNL     1      34.490 -24.276 -15.766  0.00  0.00    +0.160 C 
ATOM     15  C   UNL     1      37.170 -23.093 -16.327  0.00  0.00    +0.130 C 
ATOM     16  C   UNL     1      35.768 -24.881 -15.308  0.00  0.00    +0.164 A 
ATOM     17  C   UNL     1      37.919 -25.101 -14.987  0.00  0.00    +0.238 A 
BRANCH  17  21
ATOM     18  F   UNL     1      40.101 -25.820 -15.652  0.00  0.00    -0.163 F 
ATOM     19  F   UNL     1      39.705 -23.689 -15.719  0.00  0.00    -0.163 F 
ATOM     20  F   UNL     1      39.940 -24.689 -13.803  0.00  0.00    -0.163 F 
ATOM     21  C   UNL     1      39.367 -24.834 -15.041  0.00  0.00    +0.452 C 
ENDBRANCH  17  21
ENDBRANCH   5  12
BRANCH   1  25
ATOM     22  F   UNL     1      35.022 -20.710 -23.118  0.00  0.00    -0.204 F 
ATOM     23  F   UNL     1      35.175 -15.283 -22.463  0.00  0.00    -0.202 F 
ATOM     24  F   UNL     1      35.429 -16.370 -24.958  0.00  0.00    -0.202 F 
ATOM     25  C   UNL     1      34.928 -18.822 -21.683  0.00  0.00    +0.006 C 
ATOM     26  C   UNL     1      35.056 -19.381 -22.950  0.00  0.00    +0.138 C 
ATOM     27  C   UNL     1      34.967 -17.442 -21.512  0.00  0.00    +0.030 C 
ATOM     28  C   UNL     1      35.136 -16.612 -22.620  0.00  0.00    +0.167 C 
ATOM     29  C   UNL     1      35.225 -18.551 -24.058  0.00  0.00    +0.061 C 
ATOM     30  C   UNL     1      35.264 -17.167 -23.894  0.00  0.00    +0.170 C 
ENDBRANCH   1  25
BRANCH   2  31
ATOM     31  N   UNL     1      37.189 -20.165 -20.257  0.00  0.00    +0.382 N 
ATOM     32  H   UNL     1      37.576 -20.126 -21.201  0.00  0.00    -0.089 HD
ATOM     33  H   UNL     1      37.804 -20.717 -19.661  0.00  0.00    -0.089 HD
ATOM     34  H   UNL     1      37.110 -19.219 -19.884  0.00  0.00    -0.089 HD
ENDBRANCH   2  31
TORSDOF 4
ENDMDL
MODEL 6
REMARK VINA RESULT:     -13.0      1.558      1.951
REMARK  Name = 11974440
REMARK  4 active torsions:
REMARK  status: ('A' for Active; 'I' for Inactive)
REMARK    1  A    between atoms: C_1  and  C_25
REMARK    2  A    between atoms: C_2  and  N_31
REMARK    3  A    between atoms: C_5  and  C_12
REMARK    4  A    between atoms: C_17  and  C_21
REMARK                            x       y       z     vdW  Elec       q    Type
REMARK                         _______ _______ _______ _____ _____    ______ ____
ROOT
ATOM      1  C   UNL     1      35.115 -21.294 -20.167  0.00  0.00    +0.009 C 
ATOM      2  C   UNL     1      33.721 -21.189 -19.495  0.00  0.00    -0.057 C 
ATOM      3  C   UNL     1      33.499 -22.365 -18.523  0.00  0.00    +0.009 C 
ATOM      4  C   UNL     1      36.232 -21.303 -19.097  0.00  0.00    +0.028 C 
ATOM      5  C   UNL     1      34.693 -22.637 -17.659  0.00  0.00    +0.025 C 
ATOM      6  C   UNL     1      35.919 -22.156 -17.903  0.00  0.00    -0.026 C 
ENDROOT
BRANCH   5  12
ATOM      7  O   UNL     1      33.446 -24.077 -16.330  0.00  0.00    -0.270 OA
ATOM      8  N   UNL     1      35.563 -23.527 -15.543  0.00  0.00    -0.267 N 
ATOM      9  N   UNL     1      37.873 -24.737 -14.652  0.00  0.00    -0.292 N 
ATOM     10  N   UNL     1      36.915 -26.049 -13.195  0.00  0.00    -0.132 NA
ATOM     11  N   UNL     1      38.263 -26.360 -13.258  0.00  0.00    -0.125 NA
ATOM     12  C   UNL     1      34.512 -23.472 -16.453  0.00  0.00    +0.245 C 
ATOM     13  C   UNL     1      36.821 -22.757 -15.620  0.00  0.00    +0.119 C 
ATOM     14  C   UNL     1      35.419 -24.359 -14.338  0.00  0.00    +0.160 C 
ATOM     15  C   UNL     1      38.010 -23.714 -15.665  0.00  0.00    +0.130 C 
ATOM     16  C   UNL     1      36.692 -25.068 -14.045  0.00  0.00    +0.164 A 
ATOM     17  C   UNL     1      38.819 -25.560 -14.140  0.00  0.00    +0.238 A 
BRANCH  17  21
ATOM     18  F   UNL     1      40.948 -26.650 -14.189  0.00  0.00    -0.163 F 
ATOM     19  F   UNL     1      40.433 -25.421 -15.900  0.00  0.00    -0.163 F 
ATOM     20  F   UNL     1      40.936 -24.484 -14.004  0.00  0.00    -0.163 F 
ATOM     21  C   UNL     1      40.235 -25.532 -14.546  0.00  0.00    +0.452 C 
ENDBRANCH  17  21
ENDBRANCH   5  12
BRANCH   1  25
ATOM     22  F   UNL     1      37.391 -19.602 -20.086  0.00  0.00    -0.204 F 
ATOM     23  F   UNL     1      33.879 -18.840 -24.208  0.00  0.00    -0.202 F 
ATOM     24  F   UNL     1      36.116 -17.282 -24.007  0.00  0.00    -0.202 F 
ATOM     25  C   UNL     1      35.388 -20.212 -21.201  0.00  0.00    +0.006 C 
ATOM     26  C   UNL     1      36.527 -19.422 -21.094  0.00  0.00    +0.138 C 
ATOM     27  C   UNL     1      34.491 -20.021 -22.248  0.00  0.00    +0.030 C 
ATOM     28  C   UNL     1      34.739 -19.030 -23.198  0.00  0.00    +0.167 C 
ATOM     29  C   UNL     1      36.775 -18.431 -22.044  0.00  0.00    +0.061 C 
ATOM     30  C   UNL     1      35.880 -18.235 -23.096  0.00  0.00    +0.170 C 
ENDBRANCH   1  25
BRANCH   2  31
ATOM     31  N   UNL     1      32.645 -21.174 -20.492  0.00  0.00    +0.382 N 
ATOM     32  H   UNL     1      33.029 -21.408 -21.408  0.00  0.00    -0.089 HD
ATOM     33  H   UNL     1      32.226 -20.246 -20.525  0.00  0.00    -0.089 HD
ATOM     34  H   UNL     1      31.936 -21.861 -20.236  0.00  0.00    -0.089 HD
ENDBRANCH   2  31
TORSDOF 4
ENDMDL
MODEL 7
REMARK VINA RESULT:     -12.8      3.740     10.008
REMARK  Name = 11974440
REMARK  4 active torsions:
REMARK  status: ('A' for Active; 'I' for Inactive)
REMARK    1  A    between atoms: C_1  and  C_25
REMARK    2  A    between atoms: C_2  and  N_31
REMARK    3  A    between atoms: C_5  and  C_12
REMARK    4  A    between atoms: C_17  and  C_21
REMARK                            x       y       z     vdW  Elec       q    Type
REMARK                         _______ _______ _______ _____ _____    ______ ____
ROOT
ATOM      1  C   UNL     1      35.152 -21.296 -18.737  0.00  0.00    +0.009 C 
ATOM      2  C   UNL     1      33.944 -21.568 -19.671  0.00  0.00    -0.057 C 
ATOM      3  C   UNL     1      33.836 -20.469 -20.748  0.00  0.00    +0.009 C 
ATOM      4  C   UNL     1      36.465 -21.237 -19.553  0.00  0.00    +0.028 C 
ATOM      5  C   UNL     1      35.159 -20.130 -21.367  0.00  0.00    +0.025 C 
ATOM      6  C   UNL     1      36.341 -20.480 -20.843  0.00  0.00    -0.026 C 
ENDROOT
BRANCH   5  12
ATOM      7  O   UNL     1      35.090 -20.025 -23.686  0.00  0.00    -0.270 OA
ATOM      8  N   UNL     1      35.254 -17.993 -22.570  0.00  0.00    -0.267 N 
ATOM      9  N   UNL     1      34.006 -15.539 -22.442  0.00  0.00    -0.292 N 
ATOM     10  N   UNL     1      34.012 -15.150 -24.588  0.00  0.00    -0.132 NA
ATOM     11  N   UNL     1      33.301 -14.145 -23.954  0.00  0.00    -0.125 NA
ATOM     12  C   UNL     1      35.168 -19.380 -22.639  0.00  0.00    +0.245 C 
ATOM     13  C   UNL     1      35.426 -17.193 -21.340  0.00  0.00    +0.119 C 
ATOM     14  C   UNL     1      35.253 -17.216 -23.819  0.00  0.00    +0.160 C 
ATOM     15  C   UNL     1      34.259 -16.219 -21.190  0.00  0.00    +0.130 C 
ATOM     16  C   UNL     1      34.431 -15.988 -23.663  0.00  0.00    +0.164 A 
ATOM     17  C   UNL     1      33.309 -14.399 -22.664  0.00  0.00    +0.238 A 
BRANCH  17  21
ATOM     18  F   UNL     1      31.854 -12.601 -22.053  0.00  0.00    -0.163 F 
ATOM     19  F   UNL     1      31.871 -14.338 -20.755  0.00  0.00    -0.163 F 
ATOM     20  F   UNL     1      33.570 -12.982 -20.773  0.00  0.00    -0.163 F 
ATOM     21  C   UNL     1      32.671 -13.608 -21.599  0.00  0.00    +0.452 C 
ENDBRANCH  17  21
ENDBRANCH   5  12
BRANCH   1  25
ATOM     22  F   UNL     1      37.579 -21.730 -17.333  0.00  0.00    -0.204 F 
ATOM     23  F   UNL     1      33.247 -24.681 -15.772  0.00  0.00    -0.202 F 
ATOM     24  F   UNL     1      35.649 -24.996 -14.505  0.00  0.00    -0.202 F 
ATOM     25  C   UNL     1      35.288 -22.292 -17.595  0.00  0.00    +0.006 C 
ATOM     26  C   UNL     1      36.513 -22.448 -16.954  0.00  0.00    +0.138 C 
ATOM     27  C   UNL     1      34.184 -23.042 -17.202  0.00  0.00    +0.030 C 
ATOM     28  C   UNL     1      34.306 -23.956 -16.155  0.00  0.00    +0.167 C 
ATOM     29  C   UNL     1      36.635 -23.362 -15.908  0.00  0.00    +0.061 C 
ATOM     30  C   UNL     1      35.531 -24.116 -15.508  0.00  0.00    +0.170 C 
ENDBRANCH   1  25
BRANCH   2  31
ATOM     31  N   UNL     1      32.688 -21.632 -18.918  0.00  0.00    +0.382 N 
ATOM     32  H   UNL     1      32.595 -20.796 -18.341  0.00  0.00    -0.089 HD
ATOM     33  H   UNL     1      32.691 -22.458 -18.322  0.00  0.00    -0.089 HD
ATOM     34  H   UNL     1      31.904 -21.684 -19.569  0.00  0.00    -0.089 HD
ENDBRANCH   2  31
TORSDOF 4
ENDMDL
MODEL 8
REMARK VINA RESULT:     -12.7      3.673      4.510
REMARK  Name = 11974440
REMARK  4 active torsions:
REMARK  status: ('A' for Active; 'I' for Inactive)
REMARK    1  A    between atoms: C_1  and  C_25
REMARK    2  A    between atoms: C_2  and  N_31
REMARK    3  A    between atoms: C_5  and  C_12
REMARK    4  A    between atoms: C_17  and  C_21
REMARK                            x       y       z     vdW  Elec       q    Type
REMARK                         _______ _______ _______ _____ _____    ______ ____
ROOT
ATOM      1  C   UNL     1      35.315 -20.253 -21.206  0.00  0.00    +0.009 C 
ATOM      2  C   UNL     1      34.117 -20.330 -20.225  0.00  0.00    -0.057 C 
ATOM      3  C   UNL     1      34.292 -21.511 -19.249  0.00  0.00    +0.009 C 
ATOM      4  C   UNL     1      36.643 -20.092 -20.428  0.00  0.00    +0.028 C 
ATOM      5  C   UNL     1      35.681 -21.603 -18.692  0.00  0.00    +0.025 C 
ATOM      6  C   UNL     1      36.738 -20.961 -19.208  0.00  0.00    -0.026 C 
ENDROOT
BRANCH   5  12
ATOM      7  O   UNL     1      36.964 -22.289 -16.882  0.00  0.00    -0.270 OA
ATOM      8  N   UNL     1      34.896 -23.322 -17.127  0.00  0.00    -0.267 N 
ATOM      9  N   UNL     1      32.610 -23.856 -15.683  0.00  0.00    -0.292 N 
ATOM     10  N   UNL     1      33.611 -24.720 -13.949  0.00  0.00    -0.132 NA
ATOM     11  N   UNL     1      32.257 -24.622 -13.679  0.00  0.00    -0.125 NA
ATOM     12  C   UNL     1      35.904 -22.435 -17.493  0.00  0.00    +0.245 C 
ATOM     13  C   UNL     1      33.649 -23.579 -17.876  0.00  0.00    +0.119 C 
ATOM     14  C   UNL     1      35.082 -24.157 -15.930  0.00  0.00    +0.160 C 
ATOM     15  C   UNL     1      32.442 -23.265 -16.994  0.00  0.00    +0.130 C 
ATOM     16  C   UNL     1      33.812 -24.251 -15.163  0.00  0.00    +0.164 A 
ATOM     17  C   UNL     1      31.674 -24.099 -14.735  0.00  0.00    +0.238 A 
BRANCH  17  21
ATOM     18  F   UNL     1      29.879 -22.532 -14.513  0.00  0.00    -0.163 F 
ATOM     19  F   UNL     1      29.789 -23.901 -16.194  0.00  0.00    -0.163 F 
ATOM     20  F   UNL     1      29.424 -24.632 -14.179  0.00  0.00    -0.163 F 
ATOM     21  C   UNL     1      30.241 -23.799 -14.901  0.00  0.00    +0.452 C 
ENDBRANCH  17  21
ENDBRANCH   5  12
BRANCH   1  25
ATOM     22  F   UNL     1      35.440 -17.485 -20.596  0.00  0.00    -0.204 F 
ATOM     23  F   UNL     1      34.694 -18.839 -25.842  0.00  0.00    -0.202 F 
ATOM     24  F   UNL     1      34.835 -16.209 -25.112  0.00  0.00    -0.202 F 
ATOM     25  C   UNL     1      35.187 -19.161 -22.257  0.00  0.00    +0.006 C 
ATOM     26  C   UNL     1      35.260 -17.824 -21.880  0.00  0.00    +0.138 C 
ATOM     27  C   UNL     1      34.997 -19.510 -23.591  0.00  0.00    +0.030 C 
ATOM     28  C   UNL     1      34.879 -18.510 -24.557  0.00  0.00    +0.167 C 
ATOM     29  C   UNL     1      35.142 -16.825 -22.846  0.00  0.00    +0.061 C 
ATOM     30  C   UNL     1      34.951 -17.168 -24.185  0.00  0.00    +0.170 C 
ENDBRANCH   1  25
BRANCH   2  31
ATOM     31  N   UNL     1      32.846 -20.479 -20.942  0.00  0.00    +0.382 N 
ATOM     32  H   UNL     1      32.118 -19.959 -20.452  0.00  0.00    -0.089 HD
ATOM     33  H   UNL     1      32.592 -21.465 -20.981  0.00  0.00    -0.089 HD
ATOM     34  H   UNL     1      32.946 -20.115 -21.889  0.00  0.00    -0.089 HD
ENDBRANCH   2  31
TORSDOF 4
ENDMDL
MODEL 9
REMARK VINA RESULT:     -12.6     10.202     15.933
REMARK  Name = 11974440
REMARK  4 active torsions:
REMARK  status: ('A' for Active; 'I' for Inactive)
REMARK    1  A    between atoms: C_1  and  C_25
REMARK    2  A    between atoms: C_2  and  N_31
REMARK    3  A    between atoms: C_5  and  C_12
REMARK    4  A    between atoms: C_17  and  C_21
REMARK                            x       y       z     vdW  Elec       q    Type
REMARK                         _______ _______ _______ _____ _____    ______ ____
ROOT
ATOM      1  C   UNL     1      33.470 -12.307 -22.885  0.00  0.00    +0.009 C 
ATOM      2  C   UNL     1      32.061 -12.319 -22.237  0.00  0.00    -0.057 C 
ATOM      3  C   UNL     1      31.833 -11.036 -21.413  0.00  0.00    +0.009 C 
ATOM      4  C   UNL     1      33.637 -11.067 -23.796  0.00  0.00    +0.028 C 
ATOM      5  C   UNL     1      32.282  -9.798 -22.130  0.00  0.00    +0.025 C 
ATOM      6  C   UNL     1      33.081  -9.804 -23.205  0.00  0.00    -0.026 C 
ENDROOT
BRANCH   5  12
ATOM      7  O   UNL     1      31.787  -8.306 -20.420  0.00  0.00    -0.270 OA
ATOM      8  N   UNL     1      31.419  -7.546 -22.586  0.00  0.00    -0.267 N 
ATOM      9  N   UNL     1      32.060  -5.424 -24.224  0.00  0.00    -0.292 N 
ATOM     10  N   UNL     1      31.469  -3.852 -22.831  0.00  0.00    -0.132 NA
ATOM     11  N   UNL     1      32.055  -3.268 -23.940  0.00  0.00    -0.125 NA
ATOM     12  C   UNL     1      31.806  -8.489 -21.639  0.00  0.00    +0.245 C 
ATOM     13  C   UNL     1      31.356  -7.755 -24.046  0.00  0.00    +0.119 C 
ATOM     14  C   UNL     1      30.952  -6.228 -22.129  0.00  0.00    +0.160 C 
ATOM     15  C   UNL     1      32.268  -6.754 -24.752  0.00  0.00    +0.130 C 
ATOM     16  C   UNL     1      31.481  -5.157 -23.013  0.00  0.00    +0.164 A 
ATOM     17  C   UNL     1      32.404  -4.231 -24.765  0.00  0.00    +0.238 A 
BRANCH  17  21
ATOM     18  F   UNL     1      34.189  -4.865 -26.226  0.00  0.00    -0.163 F 
ATOM     19  F   UNL     1      32.280  -4.405 -27.147  0.00  0.00    -0.163 F 
ATOM     20  F   UNL     1      33.500  -2.805 -26.321  0.00  0.00    -0.163 F 
ATOM     21  C   UNL     1      33.070  -4.084 -26.070  0.00  0.00    +0.452 C 
ENDBRANCH  17  21
ENDBRANCH   5  12
BRANCH   1  25
ATOM     22  F   UNL     1      35.053 -14.403 -21.813  0.00  0.00    -0.204 F 
ATOM     23  F   UNL     1      33.190 -15.060 -26.913  0.00  0.00    -0.202 F 
ATOM     24  F   UNL     1      34.727 -17.001 -25.755  0.00  0.00    -0.202 F 
ATOM     25  C   UNL     1      33.809 -13.574 -23.656  0.00  0.00    +0.006 C 
ATOM     26  C   UNL     1      34.592 -14.558 -23.062  0.00  0.00    +0.138 C 
ATOM     27  C   UNL     1      33.334 -13.737 -24.954  0.00  0.00    +0.030 C 
ATOM     28  C   UNL     1      33.644 -14.896 -25.663  0.00  0.00    +0.167 C 
ATOM     29  C   UNL     1      34.901 -15.718 -23.771  0.00  0.00    +0.061 C 
ATOM     30  C   UNL     1      34.427 -15.887 -25.072  0.00  0.00    +0.170 C 
ENDBRANCH   1  25
BRANCH   2  31
ATOM     31  N   UNL     1      31.879 -13.489 -21.372  0.00  0.00    +0.382 N 
ATOM     32  H   UNL     1      31.183 -13.276 -20.657  0.00  0.00    -0.089 HD
ATOM     33  H   UNL     1      32.765 -13.722 -20.926  0.00  0.00    -0.089 HD
ATOM     34  H   UNL     1      31.559 -14.279 -21.932  0.00  0.00    -0.089 HD
ENDBRANCH   2  31
TORSDOF 4
ENDMDL
