MODEL 1
REMARK VINA RESULT:     -12.5      0.000      0.000
REMARK  Name = 4261
REMARK  8 active torsions:
REMARK  status: ('A' for Active; 'I' for Inactive)
REMARK    1  A    between atoms: C_1  and  C_20
REMARK    2  A    between atoms: C_2  and  C_9
REMARK    3  A    between atoms: N_8  and  C_11
REMARK    4  A    between atoms: C_12  and  N_17
REMARK    5  A    between atoms: C_20  and  N_22
REMARK    6  A    between atoms: C_23  and  O_25
REMARK    7  A    between atoms: O_25  and  C_26
REMARK    8  A    between atoms: C_26  and  C_28
REMARK                            x       y       z     vdW  Elec       q    Type
REMARK                         _______ _______ _______ _____ _____    ______ ____
ROOT
ATOM      1  C   UNL     1      34.962 -20.175 -20.774  0.00  0.00    -0.002 C 
ATOM      2  C   UNL     1      33.930 -22.085 -19.035  0.00  0.00    +0.054 C 
ATOM      3  C   UNL     1      33.587 -20.262 -20.584  0.00  0.00    -0.002 C 
ATOM      4  C   UNL     1      35.826 -21.034 -20.103  0.00  0.00    -0.002 C 
ATOM      5  C   UNL     1      33.070 -21.219 -19.712  0.00  0.00    +0.004 C 
ATOM      6  C   UNL     1      35.309 -21.991 -19.231  0.00  0.00    +0.004 C 
ENDROOT
BRANCH   2   9
ATOM      7  O   UNL     1      33.785 -24.257 -18.218  0.00  0.00    -0.270 OA
ATOM      8  N   UNL     1      32.463 -22.616 -17.185  0.00  0.00    -0.279 N 
ATOM      9  C   UNL     1      33.391 -23.083 -18.128  0.00  0.00    +0.250 C 
ATOM     10  H   UNL     1      32.248 -21.657 -17.236  0.00  0.00    +0.155 HD
BRANCH   8  11
ATOM     11  C   UNL     1      31.796 -23.343 -16.170  0.00  0.00    +0.064 C 
ATOM     12  C   UNL     1      30.413 -23.427 -16.161  0.00  0.00    +0.055 C 
ATOM     13  C   UNL     1      32.562 -23.964 -15.194  0.00  0.00    +0.016 C 
ATOM     14  C   UNL     1      29.779 -24.149 -15.149  0.00  0.00    +0.015 C 
ATOM     15  C   UNL     1      31.927 -24.686 -14.184  0.00  0.00    +0.001 C 
ATOM     16  C   UNL     1      30.536 -24.778 -14.161  0.00  0.00    +0.001 C 
BRANCH  12  17
ATOM     17  N   UNL     1      29.627 -22.798 -17.152  0.00  0.00    -0.356 N 
ATOM     18  H   UNL     1      28.980 -22.101 -16.897  0.00  0.00    +0.142 HD
ATOM     19  H   UNL     1      29.725 -23.057 -18.096  0.00  0.00    +0.142 HD
ENDBRANCH  12  17
ENDBRANCH   8  11
ENDBRANCH   2   9
BRANCH   1  20
ATOM     20  C   UNL     1      35.519 -19.144 -21.711  0.00  0.00    +0.119 C 
BRANCH  20  22
ATOM     21  O   UNL     1      35.166 -16.722 -23.275  0.00  0.00    -0.226 OA
ATOM     22  N   UNL     1      35.303 -17.800 -21.226  0.00  0.00    -0.267 N 
ATOM     23  C   UNL     1      35.145 -16.706 -22.049  0.00  0.00    +0.402 C 
ATOM     24  H   UNL     1      35.266 -17.658 -20.252  0.00  0.00    +0.153 HD
BRANCH  23  25
ATOM     25  O   UNL     1      34.959 -15.583 -21.291  0.00  0.00    -0.430 OA
BRANCH  25  26
ATOM     26  C   UNL     1      33.619 -15.346 -20.844  0.00  0.00    +0.238 C 
BRANCH  26  28
ATOM     27  N   UNL     1      33.098 -12.523 -23.285  0.00  0.00    -0.243 NA
ATOM     28  C   UNL     1      33.129 -14.054 -21.429  0.00  0.00    +0.040 C 
ATOM     29  C   UNL     1      32.295 -13.223 -20.702  0.00  0.00    +0.002 C 
ATOM     30  C   UNL     1      33.503 -13.673 -22.700  0.00  0.00    +0.098 C 
ATOM     31  C   UNL     1      31.857 -12.033 -21.270  0.00  0.00    +0.020 C 
ATOM     32  C   UNL     1      32.283 -11.731 -22.553  0.00  0.00    +0.099 C 
ENDBRANCH  26  28
ENDBRANCH  25  26
ENDBRANCH  23  25
ENDBRANCH  20  22
ENDBRANCH   1  20
TORSDOF 8
ENDMDL
MODEL 2
REMARK VINA RESULT:     -12.4      3.252     11.664
REMARK  Name = 4261
REMARK  8 active torsions:
REMARK  status: ('A' for Active; 'I' for Inactive)
REMARK    1  A    between atoms: C_1  and  C_20
REMARK    2  A    between atoms: C_2  and  C_9
REMARK    3  A    between atoms: N_8  and  C_11
REMARK    4  A    between atoms: C_12  and  N_17
REMARK    5  A    between atoms: C_20  and  N_22
REMARK    6  A    between atoms: C_23  and  O_25
REMARK    7  A    between atoms: O_25  and  C_26
REMARK    8  A    between atoms: C_26  and  C_28
REMARK                            x       y       z     vdW  Elec       q    Type
REMARK                         _______ _______ _______ _____ _____    ______ ____
ROOT
ATOM      1  C   UNL     1      33.890 -14.486 -23.093  0.00  0.00    -0.002 C 
ATOM      2  C   UNL     1      32.534 -12.160 -22.395  0.00  0.00    +0.054 C 
ATOM      3  C   UNL     1      34.035 -13.344 -23.873  0.00  0.00    -0.002 C 
ATOM      4  C   UNL     1      33.074 -14.476 -21.967  0.00  0.00    -0.002 C 
ATOM      5  C   UNL     1      33.355 -12.178 -23.523  0.00  0.00    +0.004 C 
ATOM      6  C   UNL     1      32.394 -13.310 -21.617  0.00  0.00    +0.004 C 
ENDROOT
BRANCH   2   9
ATOM      7  O   UNL     1      30.688 -11.034 -21.538  0.00  0.00    -0.270 OA
ATOM      8  N   UNL     1      32.513  -9.744 -22.254  0.00  0.00    -0.279 N 
ATOM      9  C   UNL     1      31.824 -10.945 -22.031  0.00  0.00    +0.250 C 
ATOM     10  H   UNL     1      33.409  -9.833 -22.653  0.00  0.00    +0.155 HD
BRANCH   8  11
ATOM     11  C   UNL     1      32.090  -8.421 -21.978  0.00  0.00    +0.064 C 
ATOM     12  C   UNL     1      32.323  -7.856 -20.735  0.00  0.00    +0.055 C 
ATOM     13  C   UNL     1      31.443  -7.715 -22.980  0.00  0.00    +0.016 C 
ATOM     14  C   UNL     1      31.896  -6.551 -20.487  0.00  0.00    +0.015 C 
ATOM     15  C   UNL     1      31.018  -6.410 -22.733  0.00  0.00    +0.001 C 
ATOM     16  C   UNL     1      31.244  -5.828 -21.485  0.00  0.00    +0.001 C 
BRANCH  12  17
ATOM     17  N   UNL     1      32.983  -8.569 -19.708  0.00  0.00    -0.356 N 
ATOM     18  H   UNL     1      33.319  -9.478 -19.880  0.00  0.00    +0.142 HD
ATOM     19  H   UNL     1      33.106  -8.157 -18.824  0.00  0.00    +0.142 HD
ENDBRANCH  12  17
ENDBRANCH   8  11
ENDBRANCH   2   9
BRANCH   1  20
ATOM     20  C   UNL     1      34.623 -15.740 -23.468  0.00  0.00    +0.119 C 
BRANCH  20  22
ATOM     21  O   UNL     1      35.987 -18.304 -23.407  0.00  0.00    -0.226 OA
ATOM     22  N   UNL     1      34.945 -16.544 -22.312  0.00  0.00    -0.267 N 
ATOM     23  C   UNL     1      35.599 -17.756 -22.381  0.00  0.00    +0.402 C 
ATOM     24  H   UNL     1      34.683 -16.207 -21.424  0.00  0.00    +0.153 HD
BRANCH  23  25
ATOM     25  O   UNL     1      35.755 -18.267 -21.123  0.00  0.00    -0.430 OA
BRANCH  25  26
ATOM     26  C   UNL     1      36.394 -19.546 -21.043  0.00  0.00    +0.238 C 
BRANCH  26  28
ATOM     27  N   UNL     1      35.188 -22.424 -18.931  0.00  0.00    -0.243 NA
ATOM     28  C   UNL     1      35.468 -20.515 -20.367  0.00  0.00    +0.040 C 
ATOM     29  C   UNL     1      34.098 -20.414 -20.538  0.00  0.00    +0.002 C 
ATOM     30  C   UNL     1      35.966 -21.520 -19.566  0.00  0.00    +0.098 C 
ATOM     31  C   UNL     1      33.265 -21.326 -19.900  0.00  0.00    +0.020 C 
ATOM     32  C   UNL     1      33.854 -22.303 -19.114  0.00  0.00    +0.099 C 
ENDBRANCH  26  28
ENDBRANCH  25  26
ENDBRANCH  23  25
ENDBRANCH  20  22
ENDBRANCH   1  20
TORSDOF 8
ENDMDL
MODEL 3
REMARK VINA RESULT:     -12.4      1.955      2.455
REMARK  Name = 4261
REMARK  8 active torsions:
REMARK  status: ('A' for Active; 'I' for Inactive)
REMARK    1  A    between atoms: C_1  and  C_20
REMARK    2  A    between atoms: C_2  and  C_9
REMARK    3  A    between atoms: N_8  and  C_11
REMARK    4  A    between atoms: C_12  and  N_17
REMARK    5  A    between atoms: C_20  and  N_22
REMARK    6  A    between atoms: C_23  and  O_25
REMARK    7  A    between atoms: O_25  and  C_26
REMARK    8  A    between atoms: C_26  and  C_28
REMARK                            x       y       z     vdW  Elec       q    Type
REMARK                         _______ _______ _______ _____ _____    ______ ____
ROOT
ATOM      1  C   UNL     1      35.436 -20.188 -20.713  0.00  0.00    -0.002 C 
ATOM      2  C   UNL     1      34.184 -22.098 -19.126  0.00  0.00    +0.054 C 
ATOM      3  C   UNL     1      34.047 -20.261 -20.691  0.00  0.00    -0.002 C 
ATOM      4  C   UNL     1      36.204 -21.060 -19.950  0.00  0.00    -0.002 C 
ATOM      5  C   UNL     1      33.420 -21.219 -19.895  0.00  0.00    +0.004 C 
ATOM      6  C   UNL     1      35.577 -22.017 -19.154  0.00  0.00    +0.004 C 
ENDROOT
BRANCH   2   9
ATOM      7  O   UNL     1      33.576 -24.290 -18.641  0.00  0.00    -0.270 OA
ATOM      8  N   UNL     1      32.905 -22.617 -17.138  0.00  0.00    -0.279 N 
ATOM      9  C   UNL     1      33.530 -23.097 -18.298  0.00  0.00    +0.250 C 
ATOM     10  H   UNL     1      32.951 -21.643 -17.000  0.00  0.00    +0.155 HD
BRANCH   8  11
ATOM     11  C   UNL     1      32.217 -23.348 -16.140  0.00  0.00    +0.064 C 
ATOM     12  C   UNL     1      30.833 -23.407 -16.142  0.00  0.00    +0.055 C 
ATOM     13  C   UNL     1      32.964 -23.999 -15.169  0.00  0.00    +0.016 C 
ATOM     14  C   UNL     1      30.178 -24.135 -15.148  0.00  0.00    +0.015 C 
ATOM     15  C   UNL     1      32.309 -24.726 -14.176  0.00  0.00    +0.001 C 
ATOM     16  C   UNL     1      30.916 -24.794 -14.165  0.00  0.00    +0.001 C 
BRANCH  12  17
ATOM     17  N   UNL     1      30.065 -22.748 -17.129  0.00  0.00    -0.356 N 
ATOM     18  H   UNL     1      29.086 -22.707 -17.042  0.00  0.00    +0.142 HD
ATOM     19  H   UNL     1      30.510 -22.331 -17.901  0.00  0.00    +0.142 HD
ENDBRANCH  12  17
ENDBRANCH   8  11
ENDBRANCH   2   9
BRANCH   1  20
ATOM     20  C   UNL     1      36.111 -19.156 -21.568  0.00  0.00    +0.119 C 
BRANCH  20  22
ATOM     21  O   UNL     1      35.450 -20.062 -24.247  0.00  0.00    -0.226 OA
ATOM     22  N   UNL     1      35.196 -18.549 -22.507  0.00  0.00    -0.267 N 
ATOM     23  C   UNL     1      34.945 -19.054 -23.765  0.00  0.00    +0.402 C 
ATOM     24  H   UNL     1      34.725 -17.729 -22.233  0.00  0.00    +0.153 HD
BRANCH  23  25
ATOM     25  O   UNL     1      34.038 -18.259 -24.407  0.00  0.00    -0.430 OA
BRANCH  25  26
ATOM     26  C   UNL     1      34.559 -17.444 -25.463  0.00  0.00    +0.238 C 
BRANCH  26  28
ATOM     27  N   UNL     1      34.434 -14.086 -23.758  0.00  0.00    -0.243 NA
ATOM     28  C   UNL     1      34.217 -16.008 -25.188  0.00  0.00    +0.040 C 
ATOM     29  C   UNL     1      33.406 -15.299 -26.056  0.00  0.00    +0.002 C 
ATOM     30  C   UNL     1      34.704 -15.374 -24.065  0.00  0.00    +0.098 C 
ATOM     31  C   UNL     1      33.106 -13.972 -25.775  0.00  0.00    +0.020 C 
ATOM     32  C   UNL     1      33.640 -13.416 -24.623  0.00  0.00    +0.099 C 
ENDBRANCH  26  28
ENDBRANCH  25  26
ENDBRANCH  23  25
ENDBRANCH  20  22
ENDBRANCH   1  20
TORSDOF 8
ENDMDL
MODEL 4
REMARK VINA RESULT:     -12.4      1.968      2.828
REMARK  Name = 4261
REMARK  8 active torsions:
REMARK  status: ('A' for Active; 'I' for Inactive)
REMARK    1  A    between atoms: C_1  and  C_20
REMARK    2  A    between atoms: C_2  and  C_9
REMARK    3  A    between atoms: N_8  and  C_11
REMARK    4  A    between atoms: C_12  and  N_17
REMARK    5  A    between atoms: C_20  and  N_22
REMARK    6  A    between atoms: C_23  and  O_25
REMARK    7  A    between atoms: O_25  and  C_26
REMARK    8  A    between atoms: C_26  and  C_28
REMARK                            x       y       z     vdW  Elec       q    Type
REMARK                         _______ _______ _______ _____ _____    ______ ____
ROOT
ATOM      1  C   UNL     1      35.355 -20.131 -20.816  0.00  0.00    -0.002 C 
ATOM      2  C   UNL     1      34.037 -21.994 -19.227  0.00  0.00    +0.054 C 
ATOM      3  C   UNL     1      36.092 -21.052 -20.079  0.00  0.00    -0.002 C 
ATOM      4  C   UNL     1      33.966 -20.133 -20.766  0.00  0.00    -0.002 C 
ATOM      5  C   UNL     1      35.431 -21.986 -19.282  0.00  0.00    +0.004 C 
ATOM      6  C   UNL     1      33.305 -21.067 -19.970  0.00  0.00    +0.004 C 
ENDROOT
BRANCH   2   9
ATOM      7  O   UNL     1      33.637 -24.169 -18.507  0.00  0.00    -0.270 OA
ATOM      8  N   UNL     1      32.406 -22.445 -17.496  0.00  0.00    -0.279 N 
ATOM      9  C   UNL     1      33.348 -22.966 -18.395  0.00  0.00    +0.250 C 
ATOM     10  H   UNL     1      32.285 -21.469 -17.522  0.00  0.00    +0.155 HD
BRANCH   8  11
ATOM     11  C   UNL     1      31.609 -23.139 -16.554  0.00  0.00    +0.064 C 
ATOM     12  C   UNL     1      32.197 -23.782 -15.476  0.00  0.00    +0.055 C 
ATOM     13  C   UNL     1      30.235 -23.155 -16.740  0.00  0.00    +0.016 C 
ATOM     14  C   UNL     1      31.390 -24.460 -14.562  0.00  0.00    +0.015 C 
ATOM     15  C   UNL     1      29.429 -23.832 -15.826  0.00  0.00    +0.001 C 
ATOM     16  C   UNL     1      30.006 -24.485 -14.737  0.00  0.00    +0.001 C 
BRANCH  12  17
ATOM     17  N   UNL     1      33.596 -23.769 -15.279  0.00  0.00    -0.356 N 
ATOM     18  H   UNL     1      34.110 -22.950 -15.464  0.00  0.00    +0.142 HD
ATOM     19  H   UNL     1      34.055 -24.577 -14.958  0.00  0.00    +0.142 HD
ENDBRANCH  12  17
ENDBRANCH   8  11
ENDBRANCH   2   9
BRANCH   1  20
ATOM     20  C   UNL     1      36.067 -19.127 -21.674  0.00  0.00    +0.119 C 
BRANCH  20  22
ATOM     21  O   UNL     1      35.360 -20.047 -24.337  0.00  0.00    -0.226 OA
ATOM     22  N   UNL     1      35.175 -18.497 -22.621  0.00  0.00    -0.267 N 
ATOM     23  C   UNL     1      34.899 -19.011 -23.870  0.00  0.00    +0.402 C 
ATOM     24  H   UNL     1      34.741 -17.653 -22.359  0.00  0.00    +0.153 HD
BRANCH  23  25
ATOM     25  O   UNL     1      34.024 -18.189 -24.523  0.00  0.00    -0.430 OA
BRANCH  25  26
ATOM     26  C   UNL     1      34.599 -17.319 -25.505  0.00  0.00    +0.238 C 
BRANCH  26  28
ATOM     27  N   UNL     1      33.116 -13.866 -25.790  0.00  0.00    -0.243 NA
ATOM     28  C   UNL     1      34.242 -15.900 -25.170  0.00  0.00    +0.040 C 
ATOM     29  C   UNL     1      34.682 -15.323 -23.991  0.00  0.00    +0.002 C 
ATOM     30  C   UNL     1      33.472 -15.148 -26.030  0.00  0.00    +0.098 C 
ATOM     31  C   UNL     1      34.337 -14.007 -23.708  0.00  0.00    +0.020 C 
ATOM     32  C   UNL     1      33.559 -13.327 -24.631  0.00  0.00    +0.099 C 
ENDBRANCH  26  28
ENDBRANCH  25  26
ENDBRANCH  23  25
ENDBRANCH  20  22
ENDBRANCH   1  20
TORSDOF 8
ENDMDL
MODEL 5
REMARK VINA RESULT:     -12.1      4.227     11.677
REMARK  Name = 4261
REMARK  8 active torsions:
REMARK  status: ('A' for Active; 'I' for Inactive)
REMARK    1  A    between atoms: C_1  and  C_20
REMARK    2  A    between atoms: C_2  and  C_9
REMARK    3  A    between atoms: N_8  and  C_11
REMARK    4  A    between atoms: C_12  and  N_17
REMARK    5  A    between atoms: C_20  and  N_22
REMARK    6  A    between atoms: C_23  and  O_25
REMARK    7  A    between atoms: O_25  and  C_26
REMARK    8  A    between atoms: C_26  and  C_28
REMARK                            x       y       z     vdW  Elec       q    Type
REMARK                         _______ _______ _______ _____ _____    ______ ____
ROOT
ATOM      1  C   UNL     1      33.705 -13.869 -24.097  0.00  0.00    -0.002 C 
ATOM      2  C   UNL     1      32.551 -11.753 -22.708  0.00  0.00    +0.054 C 
ATOM      3  C   UNL     1      33.942 -12.563 -24.511  0.00  0.00    -0.002 C 
ATOM      4  C   UNL     1      32.896 -14.127 -22.996  0.00  0.00    -0.002 C 
ATOM      5  C   UNL     1      33.364 -11.502 -23.814  0.00  0.00    +0.004 C 
ATOM      6  C   UNL     1      32.318 -13.067 -22.299  0.00  0.00    +0.004 C 
ENDROOT
BRANCH   2   9
ATOM      7  O   UNL     1      31.116 -10.891 -21.095  0.00  0.00    -0.270 OA
ATOM      8  N   UNL     1      32.387  -9.366 -22.346  0.00  0.00    -0.279 N 
ATOM      9  C   UNL     1      31.947 -10.648 -21.984  0.00  0.00    +0.250 C 
ATOM     10  H   UNL     1      33.052  -9.331 -23.071  0.00  0.00    +0.155 HD
BRANCH   8  11
ATOM     11  C   UNL     1      32.001  -8.116 -21.804  0.00  0.00    +0.064 C 
ATOM     12  C   UNL     1      32.301  -7.800 -20.489  0.00  0.00    +0.055 C 
ATOM     13  C   UNL     1      31.321  -7.227 -22.622  0.00  0.00    +0.016 C 
ATOM     14  C   UNL     1      31.909  -6.562 -19.978  0.00  0.00    +0.015 C 
ATOM     15  C   UNL     1      30.931  -5.989 -22.111  0.00  0.00    +0.001 C 
ATOM     16  C   UNL     1      31.224  -5.657 -20.788  0.00  0.00    +0.001 C 
BRANCH  12  17
ATOM     17  N   UNL     1      32.994  -8.701 -19.650  0.00  0.00    -0.356 N 
ATOM     18  H   UNL     1      33.808  -9.148 -19.975  0.00  0.00    +0.142 HD
ATOM     19  H   UNL     1      32.663  -8.880 -18.741  0.00  0.00    +0.142 HD
ENDBRANCH  12  17
ENDBRANCH   8  11
ENDBRANCH   2   9
BRANCH   1  20
ATOM     20  C   UNL     1      34.328 -15.010 -24.845  0.00  0.00    +0.119 C 
BRANCH  20  22
ATOM     21  O   UNL     1      34.858 -17.717 -25.757  0.00  0.00    -0.226 OA
ATOM     22  N   UNL     1      34.358 -16.221 -24.056  0.00  0.00    -0.267 N 
ATOM     23  C   UNL     1      34.620 -17.469 -24.580  0.00  0.00    +0.402 C 
ATOM     24  H   UNL     1      34.182 -16.150 -23.090  0.00  0.00    +0.153 HD
BRANCH  23  25
ATOM     25  O   UNL     1      34.577 -18.404 -23.585  0.00  0.00    -0.430 OA
BRANCH  25  26
ATOM     26  C   UNL     1      34.936 -17.943 -22.277  0.00  0.00    +0.238 C 
BRANCH  26  28
ATOM     27  N   UNL     1      36.600 -20.530 -20.101  0.00  0.00    -0.243 NA
ATOM     28  C   UNL     1      35.116 -19.127 -21.373  0.00  0.00    +0.040 C 
ATOM     29  C   UNL     1      34.028 -19.887 -20.983  0.00  0.00    +0.002 C 
ATOM     30  C   UNL     1      36.369 -19.477 -20.916  0.00  0.00    +0.098 C 
ATOM     31  C   UNL     1      34.225 -20.978 -20.146  0.00  0.00    +0.020 C 
ATOM     32  C   UNL     1      35.519 -21.256 -19.736  0.00  0.00    +0.099 C 
ENDBRANCH  26  28
ENDBRANCH  25  26
ENDBRANCH  23  25
ENDBRANCH  20  22
ENDBRANCH   1  20
TORSDOF 8
ENDMDL
MODEL 6
REMARK VINA RESULT:     -12.1      3.745     10.716
REMARK  Name = 4261
REMARK  8 active torsions:
REMARK  status: ('A' for Active; 'I' for Inactive)
REMARK    1  A    between atoms: C_1  and  C_20
REMARK    2  A    between atoms: C_2  and  C_9
REMARK    3  A    between atoms: N_8  and  C_11
REMARK    4  A    between atoms: C_12  and  N_17
REMARK    5  A    between atoms: C_20  and  N_22
REMARK    6  A    between atoms: C_23  and  O_25
REMARK    7  A    between atoms: O_25  and  C_26
REMARK    8  A    between atoms: C_26  and  C_28
REMARK                            x       y       z     vdW  Elec       q    Type
REMARK                         _______ _______ _______ _____ _____    ______ ____
ROOT
ATOM      1  C   UNL     1      34.467 -22.322 -18.470  0.00  0.00    -0.002 C 
ATOM      2  C   UNL     1      35.252 -20.498 -20.416  0.00  0.00    +0.054 C 
ATOM      3  C   UNL     1      33.505 -21.705 -19.262  0.00  0.00    -0.002 C 
ATOM      4  C   UNL     1      35.817 -22.037 -18.641  0.00  0.00    -0.002 C 
ATOM      5  C   UNL     1      33.899 -20.790 -20.238  0.00  0.00    +0.004 C 
ATOM      6  C   UNL     1      36.211 -21.123 -19.617  0.00  0.00    +0.004 C 
ENDROOT
BRANCH   2   9
ATOM      7  O   UNL     1      36.873 -19.355 -21.630  0.00  0.00    -0.270 OA
ATOM      8  N   UNL     1      34.624 -18.919 -22.140  0.00  0.00    -0.279 N 
ATOM      9  C   UNL     1      35.662 -19.544 -21.433  0.00  0.00    +0.250 C 
ATOM     10  H   UNL     1      33.711 -19.172 -21.871  0.00  0.00    +0.155 HD
BRANCH   8  11
ATOM     11  C   UNL     1      34.717 -17.975 -23.191  0.00  0.00    +0.064 C 
ATOM     12  C   UNL     1      34.894 -16.630 -22.911  0.00  0.00    +0.055 C 
ATOM     13  C   UNL     1      34.628 -18.433 -24.497  0.00  0.00    +0.016 C 
ATOM     14  C   UNL     1      34.982 -15.718 -23.963  0.00  0.00    +0.015 C 
ATOM     15  C   UNL     1      34.717 -17.522 -25.549  0.00  0.00    +0.001 C 
ATOM     16  C   UNL     1      34.894 -16.164 -25.282  0.00  0.00    +0.001 C 
BRANCH  12  17
ATOM     17  N   UNL     1      34.986 -16.156 -21.583  0.00  0.00    -0.356 N 
ATOM     18  H   UNL     1      35.745 -15.588 -21.316  0.00  0.00    +0.142 HD
ATOM     19  H   UNL     1      34.294 -16.394 -20.926  0.00  0.00    +0.142 HD
ENDBRANCH  12  17
ENDBRANCH   8  11
ENDBRANCH   2   9
BRANCH   1  20
ATOM     20  C   UNL     1      34.044 -23.308 -17.420  0.00  0.00    +0.119 C 
BRANCH  20  22
ATOM     21  O   UNL     1      33.576 -24.428 -14.781  0.00  0.00    -0.226 OA
ATOM     22  N   UNL     1      34.940 -23.309 -16.287  0.00  0.00    -0.267 N 
ATOM     23  C   UNL     1      34.630 -23.868 -15.066  0.00  0.00    +0.402 C 
ATOM     24  H   UNL     1      35.824 -22.886 -16.393  0.00  0.00    +0.153 HD
BRANCH  23  25
ATOM     25  O   UNL     1      35.679 -23.708 -14.206  0.00  0.00    -0.430 OA
BRANCH  25  26
ATOM     26  C   UNL     1      36.252 -24.914 -13.687  0.00  0.00    +0.238 C 
BRANCH  26  28
ATOM     27  N   UNL     1      39.476 -24.178 -15.495  0.00  0.00    -0.243 NA
ATOM     28  C   UNL     1      37.698 -24.980 -14.087  0.00  0.00    +0.040 C 
ATOM     29  C   UNL     1      38.562 -25.858 -13.457  0.00  0.00    +0.002 C 
ATOM     30  C   UNL     1      38.187 -24.168 -15.087  0.00  0.00    +0.098 C 
ATOM     31  C   UNL     1      39.895 -25.898 -13.849  0.00  0.00    +0.020 C 
ATOM     32  C   UNL     1      40.299 -25.045 -14.864  0.00  0.00    +0.099 C 
ENDBRANCH  26  28
ENDBRANCH  25  26
ENDBRANCH  23  25
ENDBRANCH  20  22
ENDBRANCH   1  20
TORSDOF 8
ENDMDL
MODEL 7
REMARK VINA RESULT:     -12.0      2.234     10.101
REMARK  Name = 4261
REMARK  8 active torsions:
REMARK  status: ('A' for Active; 'I' for Inactive)
REMARK    1  A    between atoms: C_1  and  C_20
REMARK    2  A    between atoms: C_2  and  C_9
REMARK    3  A    between atoms: N_8  and  C_11
REMARK    4  A    between atoms: C_12  and  N_17
REMARK    5  A    between atoms: C_20  and  N_22
REMARK    6  A    between atoms: C_23  and  O_25
REMARK    7  A    between atoms: O_25  and  C_26
REMARK    8  A    between atoms: C_26  and  C_28
REMARK                            x       y       z     vdW  Elec       q    Type
REMARK                         _______ _______ _______ _____ _____    ______ ____
ROOT
ATOM      1  C   UNL     1      36.174 -20.294 -20.488  0.00  0.00    -0.002 C 
ATOM      2  C   UNL     1      35.429 -18.692 -22.636  0.00  0.00    +0.054 C 
ATOM      3  C   UNL     1      34.881 -20.378 -20.994  0.00  0.00    -0.002 C 
ATOM      4  C   UNL     1      37.098 -19.418 -21.046  0.00  0.00    -0.002 C 
ATOM      5  C   UNL     1      34.508 -19.575 -22.071  0.00  0.00    +0.004 C 
ATOM      6  C   UNL     1      36.725 -18.614 -22.122  0.00  0.00    +0.004 C 
ENDROOT
BRANCH   2   9
ATOM      7  O   UNL     1      35.034 -18.339 -24.900  0.00  0.00    -0.270 OA
ATOM      8  N   UNL     1      34.671 -16.538 -23.438  0.00  0.00    -0.279 N 
ATOM      9  C   UNL     1      35.040 -17.854 -23.757  0.00  0.00    +0.250 C 
ATOM     10  H   UNL     1      34.726 -16.298 -22.486  0.00  0.00    +0.155 HD
BRANCH   8  11
ATOM     11  C   UNL     1      34.227 -15.512 -24.308  0.00  0.00    +0.064 C 
ATOM     12  C   UNL     1      34.257 -14.188 -23.901  0.00  0.00    +0.055 C 
ATOM     13  C   UNL     1      33.768 -15.869 -25.566  0.00  0.00    +0.016 C 
ATOM     14  C   UNL     1      33.814 -13.195 -24.776  0.00  0.00    +0.015 C 
ATOM     15  C   UNL     1      33.326 -14.876 -26.440  0.00  0.00    +0.001 C 
ATOM     16  C   UNL     1      33.349 -13.539 -26.044  0.00  0.00    +0.001 C 
BRANCH  12  17
ATOM     17  N   UNL     1      34.725 -13.817 -22.621  0.00  0.00    -0.356 N 
ATOM     18  H   UNL     1      35.033 -12.896 -22.459  0.00  0.00    +0.142 HD
ATOM     19  H   UNL     1      34.743 -14.478 -21.892  0.00  0.00    +0.142 HD
ENDBRANCH  12  17
ENDBRANCH   8  11
ENDBRANCH   2   9
BRANCH   1  20
ATOM     20  C   UNL     1      36.576 -21.160 -19.330  0.00  0.00    +0.119 C 
BRANCH  20  22
ATOM     21  O   UNL     1      36.474 -22.731 -16.889  0.00  0.00    -0.226 OA
ATOM     22  N   UNL     1      35.463 -21.924 -18.815  0.00  0.00    -0.267 N 
ATOM     23  C   UNL     1      35.508 -22.643 -17.639  0.00  0.00    +0.402 C 
ATOM     24  H   UNL     1      34.625 -21.931 -19.332  0.00  0.00    +0.153 HD
BRANCH  23  25
ATOM     25  O   UNL     1      34.303 -23.253 -17.427  0.00  0.00    -0.430 OA
BRANCH  25  26
ATOM     26  C   UNL     1      33.919 -23.417 -16.056  0.00  0.00    +0.238 C 
BRANCH  26  28
ATOM     27  N   UNL     1      30.339 -22.715 -17.001  0.00  0.00    -0.243 NA
ATOM     28  C   UNL     1      32.431 -23.257 -15.943  0.00  0.00    +0.040 C 
ATOM     29  C   UNL     1      31.788 -23.487 -14.740  0.00  0.00    +0.002 C 
ATOM     30  C   UNL     1      31.681 -22.877 -17.035  0.00  0.00    +0.098 C 
ATOM     31  C   UNL     1      30.409 -23.331 -14.665  0.00  0.00    +0.020 C 
ATOM     32  C   UNL     1      29.736 -22.947 -15.814  0.00  0.00    +0.099 C 
ENDBRANCH  26  28
ENDBRANCH  25  26
ENDBRANCH  23  25
ENDBRANCH  20  22
ENDBRANCH   1  20
TORSDOF 8
ENDMDL
MODEL 8
REMARK VINA RESULT:     -11.9      2.956      4.452
REMARK  Name = 4261
REMARK  8 active torsions:
REMARK  status: ('A' for Active; 'I' for Inactive)
REMARK    1  A    between atoms: C_1  and  C_20
REMARK    2  A    between atoms: C_2  and  C_9
REMARK    3  A    between atoms: N_8  and  C_11
REMARK    4  A    between atoms: C_12  and  N_17
REMARK    5  A    between atoms: C_20  and  N_22
REMARK    6  A    between atoms: C_23  and  O_25
REMARK    7  A    between atoms: O_25  and  C_26
REMARK    8  A    between atoms: C_26  and  C_28
REMARK                            x       y       z     vdW  Elec       q    Type
REMARK                         _______ _______ _______ _____ _____    ______ ____
ROOT
ATOM      1  C   UNL     1      34.833 -17.690 -24.232  0.00  0.00    -0.002 C 
ATOM      2  C   UNL     1      35.638 -19.061 -21.951  0.00  0.00    +0.054 C 
ATOM      3  C   UNL     1      35.157 -16.980 -23.080  0.00  0.00    -0.002 C 
ATOM      4  C   UNL     1      34.908 -19.078 -24.254  0.00  0.00    -0.002 C 
ATOM      5  C   UNL     1      35.561 -17.668 -21.937  0.00  0.00    +0.004 C 
ATOM      6  C   UNL     1      35.312 -19.766 -23.110  0.00  0.00    +0.004 C 
ENDROOT
BRANCH   2   9
ATOM      7  O   UNL     1      37.168 -19.528 -20.262  0.00  0.00    -0.270 OA
ATOM      8  N   UNL     1      35.134 -20.700 -20.241  0.00  0.00    -0.279 N 
ATOM      9  C   UNL     1      36.057 -19.778 -20.758  0.00  0.00    +0.250 C 
ATOM     10  H   UNL     1      34.293 -20.790 -20.745  0.00  0.00    +0.155 HD
BRANCH   8  11
ATOM     11  C   UNL     1      35.254 -21.516 -19.091  0.00  0.00    +0.064 C 
ATOM     12  C   UNL     1      34.164 -22.234 -18.625  0.00  0.00    +0.055 C 
ATOM     13  C   UNL     1      36.482 -21.574 -18.450  0.00  0.00    +0.016 C 
ATOM     14  C   UNL     1      34.307 -23.031 -17.489  0.00  0.00    +0.015 C 
ATOM     15  C   UNL     1      36.624 -22.371 -17.315  0.00  0.00    +0.001 C 
ATOM     16  C   UNL     1      35.536 -23.100 -16.834  0.00  0.00    +0.001 C 
BRANCH  12  17
ATOM     17  N   UNL     1      32.910 -22.180 -19.273  0.00  0.00    -0.356 N 
ATOM     18  H   UNL     1      32.819 -21.702 -20.128  0.00  0.00    +0.142 HD
ATOM     19  H   UNL     1      32.128 -22.621 -18.870  0.00  0.00    +0.142 HD
ENDBRANCH  12  17
ENDBRANCH   8  11
ENDBRANCH   2   9
BRANCH   1  20
ATOM     20  C   UNL     1      34.400 -16.950 -25.463  0.00  0.00    +0.119 C 
BRANCH  20  22
ATOM     21  O   UNL     1      33.756 -14.809 -27.319  0.00  0.00    -0.226 OA
ATOM     22  N   UNL     1      33.906 -15.627 -25.153  0.00  0.00    -0.267 N 
ATOM     23  C   UNL     1      33.627 -14.672 -26.107  0.00  0.00    +0.402 C 
ATOM     24  H   UNL     1      33.760 -15.396 -24.207  0.00  0.00    +0.153 HD
BRANCH  23  25
ATOM     25  O   UNL     1      33.178 -13.533 -25.500  0.00  0.00    -0.430 OA
BRANCH  25  26
ATOM     26  C   UNL     1      34.041 -12.975 -24.502  0.00  0.00    +0.238 C 
BRANCH  26  28
ATOM     27  N   UNL     1      31.910 -11.327 -21.867  0.00  0.00    -0.243 NA
ATOM     28  C   UNL     1      33.260 -12.773 -23.236  0.00  0.00    +0.040 C 
ATOM     29  C   UNL     1      33.163 -13.788 -22.300  0.00  0.00    +0.002 C 
ATOM     30  C   UNL     1      32.628 -11.575 -22.986  0.00  0.00    +0.098 C 
ATOM     31  C   UNL     1      32.433 -13.571 -21.137  0.00  0.00    +0.020 C 
ATOM     32  C   UNL     1      31.831 -12.335 -20.969  0.00  0.00    +0.099 C 
ENDBRANCH  26  28
ENDBRANCH  25  26
ENDBRANCH  23  25
ENDBRANCH  20  22
ENDBRANCH   1  20
TORSDOF 8
ENDMDL
MODEL 9
REMARK VINA RESULT:     -11.9      2.753      9.674
REMARK  Name = 4261
REMARK  8 active torsions:
REMARK  status: ('A' for Active; 'I' for Inactive)
REMARK    1  A    between atoms: C_1  and  C_20
REMARK    2  A    between atoms: C_2  and  C_9
REMARK    3  A    between atoms: N_8  and  C_11
REMARK    4  A    between atoms: C_12  and  N_17
REMARK    5  A    between atoms: C_20  and  N_22
REMARK    6  A    between atoms: C_23  and  O_25
REMARK    7  A    between atoms: O_25  and  C_26
REMARK    8  A    between atoms: C_26  and  C_28
REMARK                            x       y       z     vdW  Elec       q    Type
REMARK                         _______ _______ _______ _____ _____    ______ ____
ROOT
ATOM      1  C   UNL     1      34.504 -22.621 -18.227  0.00  0.00    -0.002 C 
ATOM      2  C   UNL     1      35.272 -20.738 -20.124  0.00  0.00    +0.054 C 
ATOM      3  C   UNL     1      33.544 -22.040 -19.049  0.00  0.00    -0.002 C 
ATOM      4  C   UNL     1      35.844 -22.270 -18.345  0.00  0.00    -0.002 C 
ATOM      5  C   UNL     1      33.929 -21.097 -19.999  0.00  0.00    +0.004 C 
ATOM      6  C   UNL     1      36.229 -21.326 -19.296  0.00  0.00    +0.004 C 
ENDROOT
BRANCH   2   9
ATOM      7  O   UNL     1      36.867 -19.420 -21.185  0.00  0.00    -0.270 OA
ATOM      8  N   UNL     1      34.651 -19.268 -21.944  0.00  0.00    -0.279 N 
ATOM      9  C   UNL     1      35.673 -19.753 -21.114  0.00  0.00    +0.250 C 
ATOM     10  H   UNL     1      33.751 -19.626 -21.768  0.00  0.00    +0.155 HD
BRANCH   8  11
ATOM     11  C   UNL     1      34.744 -18.332 -23.002  0.00  0.00    +0.064 C 
ATOM     12  C   UNL     1      34.996 -16.996 -22.735  0.00  0.00    +0.055 C 
ATOM     13  C   UNL     1      34.579 -18.788 -24.300  0.00  0.00    +0.016 C 
ATOM     14  C   UNL     1      35.083 -16.092 -23.795  0.00  0.00    +0.015 C 
ATOM     15  C   UNL     1      34.667 -17.885 -25.359  0.00  0.00    +0.001 C 
ATOM     16  C   UNL     1      34.919 -16.537 -25.106  0.00  0.00    +0.001 C 
BRANCH  12  17
ATOM     17  N   UNL     1      35.166 -16.523 -21.414  0.00  0.00    -0.356 N 
ATOM     18  H   UNL     1      35.640 -15.676 -21.253  0.00  0.00    +0.142 HD
ATOM     19  H   UNL     1      34.811 -17.041 -20.657  0.00  0.00    +0.142 HD
ENDBRANCH  12  17
ENDBRANCH   8  11
ENDBRANCH   2   9
BRANCH   1  20
ATOM     20  C   UNL     1      34.090 -23.639 -17.205  0.00  0.00    +0.119 C 
BRANCH  20  22
ATOM     21  O   UNL     1      33.322 -24.424 -14.516  0.00  0.00    -0.226 OA
ATOM     22  N   UNL     1      32.933 -23.209 -16.453  0.00  0.00    -0.267 N 
ATOM     23  C   UNL     1      32.650 -23.638 -15.174  0.00  0.00    +0.402 C 
ATOM     24  H   UNL     1      32.313 -22.573 -16.878  0.00  0.00    +0.153 HD
BRANCH  23  25
ATOM     25  O   UNL     1      31.493 -23.054 -14.738  0.00  0.00    -0.430 OA
BRANCH  25  26
ATOM     26  C   UNL     1      30.386 -23.938 -14.530  0.00  0.00    +0.238 C 
BRANCH  26  28
ATOM     27  N   UNL     1      27.986 -24.390 -17.400  0.00  0.00    -0.243 NA
ATOM     28  C   UNL     1      29.323 -23.638 -15.546  0.00  0.00    +0.040 C 
ATOM     29  C   UNL     1      28.714 -22.396 -15.582  0.00  0.00    +0.002 C 
ATOM     30  C   UNL     1      28.936 -24.595 -16.460  0.00  0.00    +0.098 C 
ATOM     31  C   UNL     1      27.733 -22.148 -16.535  0.00  0.00    +0.020 C 
ATOM     32  C   UNL     1      27.408 -23.168 -17.413  0.00  0.00    +0.099 C 
ENDBRANCH  26  28
ENDBRANCH  25  26
ENDBRANCH  23  25
ENDBRANCH  20  22
ENDBRANCH   1  20
TORSDOF 8
ENDMDL
