MODEL 1
REMARK VINA RESULT:     -13.0      0.000      0.000
REMARK  Name = 9969613
REMARK  5 active torsions:
REMARK  status: ('A' for Active; 'I' for Inactive)
REMARK    1  A    between atoms: C_3  and  O_7
REMARK    2  A    between atoms: C_4  and  O_17
REMARK    3  A    between atoms: O_7  and  C_13
REMARK    4  A    between atoms: O_17  and  C_21
REMARK    5  A    between atoms: C_18  and  N_24
REMARK                            x       y       z     vdW  Elec       q    Type
REMARK                         _______ _______ _______ _____ _____    ______ ____
ROOT
ATOM      1  N   UNL     1      34.671 -23.302 -16.860  0.00  0.00    -0.283 NA
ATOM      2  N   UNL     1      32.344 -23.296 -17.488  0.00  0.00    -0.151 NA
ATOM      3  C   UNL     1      34.273 -23.244 -15.579  0.00  0.00    +0.296 C 
ATOM      4  C   UNL     1      33.664 -23.325 -17.755  0.00  0.00    +0.260 C 
ATOM      5  C   UNL     1      32.966 -23.210 -15.164  0.00  0.00    +0.094 C 
ATOM      6  C   UNL     1      32.029 -23.239 -16.177  0.00  0.00    +0.119 C 
ENDROOT
BRANCH   3   7
ATOM      7  O   UNL     1      35.275 -23.219 -14.623  0.00  0.00    -0.427 OA
BRANCH   7  13
ATOM      8  O   UNL     1      39.888 -24.621 -14.530  0.00  0.00    -0.435 OA
ATOM      9  O   UNL     1      39.286 -26.921 -14.920  0.00  0.00    -0.435 OA
ATOM     10  C   UNL     1      38.543 -24.790 -14.645  0.00  0.00    +0.179 C 
ATOM     11  C   UNL     1      38.198 -26.104 -14.867  0.00  0.00    +0.177 C 
ATOM     12  C   UNL     1      37.590 -23.796 -14.557  0.00  0.00    +0.078 C 
ATOM     13  C   UNL     1      36.250 -24.165 -14.702  0.00  0.00    +0.151 C 
ATOM     14  C   UNL     1      36.883 -26.496 -15.014  0.00  0.00    +0.043 C 
ATOM     15  C   UNL     1      40.352 -25.974 -14.705  0.00  0.00    +0.429 C 
ATOM     16  C   UNL     1      35.899 -25.507 -14.930  0.00  0.00    +0.041 C 
ENDBRANCH   7  13
ENDBRANCH   3   7
BRANCH   4  17
ATOM     17  O   UNL     1      34.022 -23.384 -19.081  0.00  0.00    -0.383 OA
BRANCH  17  21
ATOM     18  C   UNL     1      34.711 -19.779 -21.020  0.00  0.00    +0.057 C 
ATOM     19  C   UNL     1      35.786 -20.582 -20.639  0.00  0.00    +0.018 C 
ATOM     20  C   UNL     1      33.405 -20.187 -20.750  0.00  0.00    +0.018 C 
ATOM     21  C   UNL     1      34.250 -22.187 -19.725  0.00  0.00    +0.160 C 
ATOM     22  C   UNL     1      35.553 -21.794 -19.987  0.00  0.00    +0.040 C 
ATOM     23  C   UNL     1      33.173 -21.399 -20.099  0.00  0.00    +0.040 C 
BRANCH  18  24
ATOM     24  N   UNL     1      34.940 -18.578 -21.666  0.00  0.00    -0.246 N 
ATOM     25  N   UNL     1      35.226 -16.388 -21.966  0.00  0.00    -0.224 NA
ATOM     26  C   UNL     1      35.168 -18.401 -23.007  0.00  0.00    +0.092 C 
ATOM     27  C   UNL     1      34.987 -17.335 -21.087  0.00  0.00    +0.172 C 
ATOM     28  C   UNL     1      35.340 -17.046 -23.165  0.00  0.00    +0.117 C 
ENDBRANCH  18  24
ENDBRANCH  17  21
ENDBRANCH   4  17
TORSDOF 5
ENDMDL
MODEL 2
REMARK VINA RESULT:     -13.0      0.394      1.156
REMARK  Name = 9969613
REMARK  5 active torsions:
REMARK  status: ('A' for Active; 'I' for Inactive)
REMARK    1  A    between atoms: C_3  and  O_7
REMARK    2  A    between atoms: C_4  and  O_17
REMARK    3  A    between atoms: O_7  and  C_13
REMARK    4  A    between atoms: O_17  and  C_21
REMARK    5  A    between atoms: C_18  and  N_24
REMARK                            x       y       z     vdW  Elec       q    Type
REMARK                         _______ _______ _______ _____ _____    ______ ____
ROOT
ATOM      1  N   UNL     1      34.689 -23.266 -16.840  0.00  0.00    -0.283 NA
ATOM      2  N   UNL     1      32.324 -23.323 -17.307  0.00  0.00    -0.151 NA
ATOM      3  C   UNL     1      34.378 -23.189 -15.536  0.00  0.00    +0.296 C 
ATOM      4  C   UNL     1      33.624 -23.330 -17.663  0.00  0.00    +0.260 C 
ATOM      5  C   UNL     1      33.101 -23.172 -15.033  0.00  0.00    +0.094 C 
ATOM      6  C   UNL     1      32.098 -23.243 -15.978  0.00  0.00    +0.119 C 
ENDROOT
BRANCH   3   7
ATOM      7  O   UNL     1      35.441 -23.120 -14.651  0.00  0.00    -0.427 OA
BRANCH   7  13
ATOM      8  O   UNL     1      39.990 -24.708 -14.462  0.00  0.00    -0.435 OA
ATOM      9  O   UNL     1      39.305 -26.982 -14.871  0.00  0.00    -0.435 OA
ATOM     10  C   UNL     1      38.642 -24.823 -14.607  0.00  0.00    +0.179 C 
ATOM     11  C   UNL     1      38.250 -26.122 -14.840  0.00  0.00    +0.177 C 
ATOM     12  C   UNL     1      37.729 -23.791 -14.537  0.00  0.00    +0.078 C 
ATOM     13  C   UNL     1      36.379 -24.106 -14.712  0.00  0.00    +0.151 C 
ATOM     14  C   UNL     1      36.923 -26.459 -15.017  0.00  0.00    +0.043 C 
ATOM     15  C   UNL     1      40.403 -26.079 -14.631  0.00  0.00    +0.429 C 
ATOM     16  C   UNL     1      35.979 -25.432 -14.951  0.00  0.00    +0.041 C 
ENDBRANCH   7  13
ENDBRANCH   3   7
BRANCH   4  17
ATOM     17  O   UNL     1      33.891 -23.412 -19.009  0.00  0.00    -0.383 OA
BRANCH  17  21
ATOM     18  C   UNL     1      34.665 -19.855 -21.005  0.00  0.00    +0.057 C 
ATOM     19  C   UNL     1      33.350 -20.230 -20.733  0.00  0.00    +0.018 C 
ATOM     20  C   UNL     1      35.721 -20.676 -20.607  0.00  0.00    +0.018 C 
ATOM     21  C   UNL     1      34.149 -22.231 -19.672  0.00  0.00    +0.160 C 
ATOM     22  C   UNL     1      33.090 -21.425 -20.062  0.00  0.00    +0.040 C 
ATOM     23  C   UNL     1      35.461 -21.871 -19.936  0.00  0.00    +0.040 C 
BRANCH  18  24
ATOM     24  N   UNL     1      34.924 -18.671 -21.670  0.00  0.00    -0.246 N 
ATOM     25  N   UNL     1      35.357 -17.266 -23.346  0.00  0.00    -0.224 NA
ATOM     26  C   UNL     1      35.009 -17.421 -21.111  0.00  0.00    +0.092 C 
ATOM     27  C   UNL     1      35.140 -18.521 -23.017  0.00  0.00    +0.172 C 
ATOM     28  C   UNL     1      35.277 -16.576 -22.162  0.00  0.00    +0.117 C 
ENDBRANCH  18  24
ENDBRANCH  17  21
ENDBRANCH   4  17
TORSDOF 5
ENDMDL
MODEL 3
REMARK VINA RESULT:     -12.7      2.746      5.452
REMARK  Name = 9969613
REMARK  5 active torsions:
REMARK  status: ('A' for Active; 'I' for Inactive)
REMARK    1  A    between atoms: C_3  and  O_7
REMARK    2  A    between atoms: C_4  and  O_17
REMARK    3  A    between atoms: O_7  and  C_13
REMARK    4  A    between atoms: O_17  and  C_21
REMARK    5  A    between atoms: C_18  and  N_24
REMARK                            x       y       z     vdW  Elec       q    Type
REMARK                         _______ _______ _______ _____ _____    ______ ____
ROOT
ATOM      1  N   UNL     1      33.453 -23.504 -16.610  0.00  0.00    -0.283 NA
ATOM      2  N   UNL     1      35.729 -22.804 -16.983  0.00  0.00    -0.151 NA
ATOM      3  C   UNL     1      33.685 -23.384 -15.293  0.00  0.00    +0.296 C 
ATOM      4  C   UNL     1      34.508 -23.201 -17.391  0.00  0.00    +0.260 C 
ATOM      5  C   UNL     1      34.878 -22.990 -14.739  0.00  0.00    +0.094 C 
ATOM      6  C   UNL     1      35.879 -22.708 -15.644  0.00  0.00    +0.119 C 
ENDROOT
BRANCH   3   7
ATOM      7  O   UNL     1      32.629 -23.685 -14.450  0.00  0.00    -0.427 OA
BRANCH   7  13
ATOM      8  O   UNL     1      28.938 -22.105 -17.121  0.00  0.00    -0.435 OA
ATOM      9  O   UNL     1      27.688 -24.130 -16.747  0.00  0.00    -0.435 OA
ATOM     10  C   UNL     1      29.611 -22.989 -16.336  0.00  0.00    +0.179 C 
ATOM     11  C   UNL     1      28.897 -24.147 -16.123  0.00  0.00    +0.177 C 
ATOM     12  C   UNL     1      30.864 -22.799 -15.791  0.00  0.00    +0.078 C 
ATOM     13  C   UNL     1      31.395 -23.828 -15.008  0.00  0.00    +0.151 C 
ATOM     14  C   UNL     1      29.398 -25.177 -15.352  0.00  0.00    +0.043 C 
ATOM     15  C   UNL     1      27.721 -22.834 -17.378  0.00  0.00    +0.429 C 
ATOM     16  C   UNL     1      30.665 -25.009 -14.789  0.00  0.00    +0.041 C 
ENDBRANCH   7  13
ENDBRANCH   3   7
BRANCH   4  17
ATOM     17  O   UNL     1      34.319 -23.308 -18.749  0.00  0.00    -0.383 OA
BRANCH  17  21
ATOM     18  C   UNL     1      34.791 -19.856 -21.005  0.00  0.00    +0.057 C 
ATOM     19  C   UNL     1      35.904 -20.626 -20.666  0.00  0.00    +0.018 C 
ATOM     20  C   UNL     1      33.519 -20.247 -20.585  0.00  0.00    +0.018 C 
ATOM     21  C   UNL     1      34.475 -22.162 -19.498  0.00  0.00    +0.160 C 
ATOM     22  C   UNL     1      35.745 -21.786 -19.908  0.00  0.00    +0.040 C 
ATOM     23  C   UNL     1      33.361 -21.407 -19.827  0.00  0.00    +0.040 C 
BRANCH  18  24
ATOM     24  N   UNL     1      34.948 -18.706 -21.757  0.00  0.00    -0.246 N 
ATOM     25  N   UNL     1      35.205 -16.546 -22.243  0.00  0.00    -0.224 NA
ATOM     26  C   UNL     1      35.019 -18.627 -23.124  0.00  0.00    +0.092 C 
ATOM     27  C   UNL     1      35.065 -17.427 -21.276  0.00  0.00    +0.172 C 
ATOM     28  C   UNL     1      35.176 -17.288 -23.397  0.00  0.00    +0.117 C 
ENDBRANCH  18  24
ENDBRANCH  17  21
ENDBRANCH   4  17
TORSDOF 5
ENDMDL
MODEL 4
REMARK VINA RESULT:     -12.1      5.003      8.777
REMARK  Name = 9969613
REMARK  5 active torsions:
REMARK  status: ('A' for Active; 'I' for Inactive)
REMARK    1  A    between atoms: C_3  and  O_7
REMARK    2  A    between atoms: C_4  and  O_17
REMARK    3  A    between atoms: O_7  and  C_13
REMARK    4  A    between atoms: O_17  and  C_21
REMARK    5  A    between atoms: C_18  and  N_24
REMARK                            x       y       z     vdW  Elec       q    Type
REMARK                         _______ _______ _______ _____ _____    ______ ____
ROOT
ATOM      1  N   UNL     1      35.227 -16.531 -23.621  0.00  0.00    -0.283 NA
ATOM      2  N   UNL     1      34.009 -17.419 -25.503  0.00  0.00    -0.151 NA
ATOM      3  C   UNL     1      35.326 -17.788 -23.158  0.00  0.00    +0.296 C 
ATOM      4  C   UNL     1      34.561 -16.420 -24.788  0.00  0.00    +0.260 C 
ATOM      5  C   UNL     1      34.813 -18.897 -23.782  0.00  0.00    +0.094 C 
ATOM      6  C   UNL     1      34.154 -18.650 -24.969  0.00  0.00    +0.119 C 
ENDROOT
BRANCH   3   7
ATOM      7  O   UNL     1      36.002 -17.952 -21.961  0.00  0.00    -0.427 OA
BRANCH   7  13
ATOM      8  O   UNL     1      33.051 -21.197 -19.956  0.00  0.00    -0.435 OA
ATOM      9  O   UNL     1      34.903 -22.494 -19.123  0.00  0.00    -0.435 OA
ATOM     10  C   UNL     1      34.253 -20.651 -20.286  0.00  0.00    +0.179 C 
ATOM     11  C   UNL     1      35.312 -21.392 -19.811  0.00  0.00    +0.177 C 
ATOM     12  C   UNL     1      34.446 -19.493 -21.010  0.00  0.00    +0.078 C 
ATOM     13  C   UNL     1      35.762 -19.089 -21.250  0.00  0.00    +0.151 C 
ATOM     14  C   UNL     1      36.620 -21.015 -20.033  0.00  0.00    +0.043 C 
ATOM     15  C   UNL     1      33.470 -22.363 -19.221  0.00  0.00    +0.429 C 
ATOM     16  C   UNL     1      36.843 -19.845 -20.763  0.00  0.00    +0.041 C 
ENDBRANCH   7  13
ENDBRANCH   3   7
BRANCH   4  17
ATOM     17  O   UNL     1      34.433 -15.151 -25.303  0.00  0.00    -0.383 OA
BRANCH  17  21
ATOM     18  C   UNL     1      32.824 -12.248 -22.810  0.00  0.00    +0.057 C 
ATOM     19  C   UNL     1      32.611 -13.599 -22.536  0.00  0.00    +0.018 C 
ATOM     20  C   UNL     1      33.578 -11.873 -23.922  0.00  0.00    +0.018 C 
ATOM     21  C   UNL     1      33.899 -14.187 -24.475  0.00  0.00    +0.160 C 
ATOM     22  C   UNL     1      33.153 -14.574 -23.374  0.00  0.00    +0.040 C 
ATOM     23  C   UNL     1      34.119 -12.849 -24.760  0.00  0.00    +0.040 C 
BRANCH  18  24
ATOM     24  N   UNL     1      32.288 -11.281 -21.980  0.00  0.00    -0.246 N 
ATOM     25  N   UNL     1      31.592  -9.284 -21.275  0.00  0.00    -0.224 NA
ATOM     26  C   UNL     1      31.804 -11.470 -20.711  0.00  0.00    +0.092 C 
ATOM     27  C   UNL     1      32.136  -9.949 -22.270  0.00  0.00    +0.172 C 
ATOM     28  C   UNL     1      31.383 -10.227 -20.299  0.00  0.00    +0.117 C 
ENDBRANCH  18  24
ENDBRANCH  17  21
ENDBRANCH   4  17
TORSDOF 5
ENDMDL
MODEL 5
REMARK VINA RESULT:     -12.0      3.739     10.112
REMARK  Name = 9969613
REMARK  5 active torsions:
REMARK  status: ('A' for Active; 'I' for Inactive)
REMARK    1  A    between atoms: C_3  and  O_7
REMARK    2  A    between atoms: C_4  and  O_17
REMARK    3  A    between atoms: O_7  and  C_13
REMARK    4  A    between atoms: O_17  and  C_21
REMARK    5  A    between atoms: C_18  and  N_24
REMARK                            x       y       z     vdW  Elec       q    Type
REMARK                         _______ _______ _______ _____ _____    ______ ____
ROOT
ATOM      1  N   UNL     1      36.250 -19.576 -20.652  0.00  0.00    -0.283 NA
ATOM      2  N   UNL     1      34.470 -21.119 -20.141  0.00  0.00    -0.151 NA
ATOM      3  C   UNL     1      35.331 -18.787 -21.232  0.00  0.00    +0.296 C 
ATOM      4  C   UNL     1      35.755 -20.716 -20.131  0.00  0.00    +0.260 C 
ATOM      5  C   UNL     1      33.991 -19.073 -21.314  0.00  0.00    +0.094 C 
ATOM      6  C   UNL     1      33.611 -20.270 -20.744  0.00  0.00    +0.119 C 
ENDROOT
BRANCH   3   7
ATOM      7  O   UNL     1      35.793 -17.603 -21.783  0.00  0.00    -0.427 OA
BRANCH   7  13
ATOM      8  O   UNL     1      33.625 -14.391 -24.653  0.00  0.00    -0.435 OA
ATOM      9  O   UNL     1      33.650 -15.914 -26.520  0.00  0.00    -0.435 OA
ATOM     10  C   UNL     1      34.197 -15.585 -24.338  0.00  0.00    +0.179 C 
ATOM     11  C   UNL     1      34.212 -16.455 -25.404  0.00  0.00    +0.177 C 
ATOM     12  C   UNL     1      34.718 -15.935 -23.109  0.00  0.00    +0.078 C 
ATOM     13  C   UNL     1      35.267 -17.213 -22.976  0.00  0.00    +0.151 C 
ATOM     14  C   UNL     1      34.747 -17.723 -25.300  0.00  0.00    +0.043 C 
ATOM     15  C   UNL     1      33.282 -14.606 -26.036  0.00  0.00    +0.429 C 
ATOM     16  C   UNL     1      35.280 -18.102 -24.065  0.00  0.00    +0.041 C 
ENDBRANCH   7  13
ENDBRANCH   3   7
BRANCH   4  17
ATOM     17  O   UNL     1      36.659 -21.557 -19.525  0.00  0.00    -0.383 OA
BRANCH  17  21
ATOM     18  C   UNL     1      35.694 -22.962 -15.740  0.00  0.00    +0.057 C 
ATOM     19  C   UNL     1      36.929 -22.354 -15.964  0.00  0.00    +0.018 C 
ATOM     20  C   UNL     1      34.783 -23.098 -16.788  0.00  0.00    +0.018 C 
ATOM     21  C   UNL     1      36.338 -22.023 -18.268  0.00  0.00    +0.160 C 
ATOM     22  C   UNL     1      37.253 -21.881 -17.236  0.00  0.00    +0.040 C 
ATOM     23  C   UNL     1      35.108 -22.626 -18.060  0.00  0.00    +0.040 C 
BRANCH  18  24
ATOM     24  N   UNL     1      35.373 -23.430 -14.479  0.00  0.00    -0.246 N 
ATOM     25  N   UNL     1      34.173 -24.314 -12.822  0.00  0.00    -0.224 NA
ATOM     26  C   UNL     1      36.198 -23.463 -13.384  0.00  0.00    +0.092 C 
ATOM     27  C   UNL     1      34.167 -23.954 -14.086  0.00  0.00    +0.172 C 
ATOM     28  C   UNL     1      35.436 -24.010 -12.378  0.00  0.00    +0.117 C 
ENDBRANCH  18  24
ENDBRANCH  17  21
ENDBRANCH   4  17
TORSDOF 5
ENDMDL
MODEL 6
REMARK VINA RESULT:     -12.0      4.571     10.742
REMARK  Name = 9969613
REMARK  5 active torsions:
REMARK  status: ('A' for Active; 'I' for Inactive)
REMARK    1  A    between atoms: C_3  and  O_7
REMARK    2  A    between atoms: C_4  and  O_17
REMARK    3  A    between atoms: O_7  and  C_13
REMARK    4  A    between atoms: O_17  and  C_21
REMARK    5  A    between atoms: C_18  and  N_24
REMARK                            x       y       z     vdW  Elec       q    Type
REMARK                         _______ _______ _______ _____ _____    ______ ____
ROOT
ATOM      1  N   UNL     1      35.853 -17.324 -22.915  0.00  0.00    -0.283 NA
ATOM      2  N   UNL     1      34.934 -19.329 -23.890  0.00  0.00    -0.151 NA
ATOM      3  C   UNL     1      35.169 -16.625 -23.835  0.00  0.00    +0.296 C 
ATOM      4  C   UNL     1      35.691 -18.659 -22.999  0.00  0.00    +0.260 C 
ATOM      5  C   UNL     1      34.362 -17.175 -24.799  0.00  0.00    +0.094 C 
ATOM      6  C   UNL     1      34.280 -18.552 -24.779  0.00  0.00    +0.119 C 
ENDROOT
BRANCH   3   7
ATOM      7  O   UNL     1      35.304 -15.247 -23.789  0.00  0.00    -0.427 OA
BRANCH   7  13
ATOM      8  O   UNL     1      32.516 -11.381 -23.057  0.00  0.00    -0.435 OA
ATOM      9  O   UNL     1      31.590 -12.323 -21.043  0.00  0.00    -0.435 OA
ATOM     10  C   UNL     1      33.029 -12.610 -22.779  0.00  0.00    +0.179 C 
ATOM     11  C   UNL     1      32.499 -13.149 -21.629  0.00  0.00    +0.177 C 
ATOM     12  C   UNL     1      33.970 -13.284 -23.529  0.00  0.00    +0.078 C 
ATOM     13  C   UNL     1      34.376 -14.544 -23.082  0.00  0.00    +0.151 C 
ATOM     14  C   UNL     1      32.883 -14.391 -21.165  0.00  0.00    +0.043 C 
ATOM     15  C   UNL     1      31.606 -11.205 -21.954  0.00  0.00    +0.429 C 
ATOM     16  C   UNL     1      33.836 -15.094 -21.906  0.00  0.00    +0.041 C 
ENDBRANCH   7  13
ENDBRANCH   3   7
BRANCH   4  17
ATOM     17  O   UNL     1      36.372 -19.419 -22.077  0.00  0.00    -0.383 OA
BRANCH  17  21
ATOM     18  C   UNL     1      34.099 -21.538 -19.324  0.00  0.00    +0.057 C 
ATOM     19  C   UNL     1      33.480 -20.653 -20.206  0.00  0.00    +0.018 C 
ATOM     20  C   UNL     1      35.483 -21.711 -19.366  0.00  0.00    +0.018 C 
ATOM     21  C   UNL     1      35.617 -20.123 -21.162  0.00  0.00    +0.160 C 
ATOM     22  C   UNL     1      34.244 -19.941 -21.131  0.00  0.00    +0.040 C 
ATOM     23  C   UNL     1      36.247 -20.999 -20.292  0.00  0.00    +0.040 C 
BRANCH  18  24
ATOM     24  N   UNL     1      33.343 -22.244 -18.407  0.00  0.00    -0.246 N 
ATOM     25  N   UNL     1      31.567 -22.925 -17.246  0.00  0.00    -0.224 NA
ATOM     26  C   UNL     1      33.794 -23.215 -17.549  0.00  0.00    +0.092 C 
ATOM     27  C   UNL     1      31.996 -22.109 -18.183  0.00  0.00    +0.172 C 
ATOM     28  C   UNL     1      32.683 -23.617 -16.846  0.00  0.00    +0.117 C 
ENDBRANCH  18  24
ENDBRANCH  17  21
ENDBRANCH   4  17
TORSDOF 5
ENDMDL
MODEL 7
REMARK VINA RESULT:     -11.9      6.101     12.275
REMARK  Name = 9969613
REMARK  5 active torsions:
REMARK  status: ('A' for Active; 'I' for Inactive)
REMARK    1  A    between atoms: C_3  and  O_7
REMARK    2  A    between atoms: C_4  and  O_17
REMARK    3  A    between atoms: O_7  and  C_13
REMARK    4  A    between atoms: O_17  and  C_21
REMARK    5  A    between atoms: C_18  and  N_24
REMARK                            x       y       z     vdW  Elec       q    Type
REMARK                         _______ _______ _______ _____ _____    ______ ____
ROOT
ATOM      1  N   UNL     1      34.395 -15.560 -23.540  0.00  0.00    -0.283 NA
ATOM      2  N   UNL     1      34.534 -16.204 -25.859  0.00  0.00    -0.151 NA
ATOM      3  C   UNL     1      33.412 -14.713 -23.887  0.00  0.00    +0.296 C 
ATOM      4  C   UNL     1      34.906 -16.268 -24.565  0.00  0.00    +0.260 C 
ATOM      5  C   UNL     1      32.934 -14.546 -25.163  0.00  0.00    +0.094 C 
ATOM      6  C   UNL     1      33.541 -15.329 -26.123  0.00  0.00    +0.119 C 
ENDROOT
BRANCH   3   7
ATOM      7  O   UNL     1      32.854 -13.963 -22.865  0.00  0.00    -0.427 OA
BRANCH   7  13
ATOM      8  O   UNL     1      31.348  -9.525 -21.728  0.00  0.00    -0.435 OA
ATOM      9  O   UNL     1      32.937  -8.509 -23.227  0.00  0.00    -0.435 OA
ATOM     10  C   UNL     1      32.111 -10.448 -22.374  0.00  0.00    +0.179 C 
ATOM     11  C   UNL     1      33.020  -9.868 -23.230  0.00  0.00    +0.177 C 
ATOM     12  C   UNL     1      32.027 -11.817 -22.226  0.00  0.00    +0.078 C 
ATOM     13  C   UNL     1      32.900 -12.607 -22.978  0.00  0.00    +0.151 C 
ATOM     14  C   UNL     1      33.893 -10.624 -23.985  0.00  0.00    +0.043 C 
ATOM     15  C   UNL     1      31.876  -8.300 -22.273  0.00  0.00    +0.429 C 
ATOM     16  C   UNL     1      33.827 -12.014 -23.853  0.00  0.00    +0.041 C 
ENDBRANCH   7  13
ENDBRANCH   3   7
BRANCH   4  17
ATOM     17  O   UNL     1      35.916 -17.150 -24.260  0.00  0.00    -0.383 OA
BRANCH  17  21
ATOM     18  C   UNL     1      35.154 -19.945 -21.286  0.00  0.00    +0.057 C 
ATOM     19  C   UNL     1      36.296 -19.146 -21.217  0.00  0.00    +0.018 C 
ATOM     20  C   UNL     1      34.268 -19.804 -22.355  0.00  0.00    +0.018 C 
ATOM     21  C   UNL     1      35.663 -18.078 -23.272  0.00  0.00    +0.160 C 
ATOM     22  C   UNL     1      36.551 -18.207 -22.216  0.00  0.00    +0.040 C 
ATOM     23  C   UNL     1      34.525 -18.865 -23.354  0.00  0.00    +0.040 C 
BRANCH  18  24
ATOM     24  N   UNL     1      34.900 -20.876 -20.296  0.00  0.00    -0.246 N 
ATOM     25  N   UNL     1      35.278 -22.378 -18.693  0.00  0.00    -0.224 NA
ATOM     26  C   UNL     1      33.667 -21.286 -19.857  0.00  0.00    +0.092 C 
ATOM     27  C   UNL     1      35.833 -21.563 -19.562  0.00  0.00    +0.172 C 
ATOM     28  C   UNL     1      33.927 -22.210 -18.872  0.00  0.00    +0.117 C 
ENDBRANCH  18  24
ENDBRANCH  17  21
ENDBRANCH   4  17
TORSDOF 5
ENDMDL
MODEL 8
REMARK VINA RESULT:     -11.9      2.754      5.164
REMARK  Name = 9969613
REMARK  5 active torsions:
REMARK  status: ('A' for Active; 'I' for Inactive)
REMARK    1  A    between atoms: C_3  and  O_7
REMARK    2  A    between atoms: C_4  and  O_17
REMARK    3  A    between atoms: O_7  and  C_13
REMARK    4  A    between atoms: O_17  and  C_21
REMARK    5  A    between atoms: C_18  and  N_24
REMARK                            x       y       z     vdW  Elec       q    Type
REMARK                         _______ _______ _______ _____ _____    ______ ____
ROOT
ATOM      1  N   UNL     1      35.136 -22.943 -18.146  0.00  0.00    -0.283 NA
ATOM      2  N   UNL     1      36.860 -21.259 -18.127  0.00  0.00    -0.151 NA
ATOM      3  C   UNL     1      35.309 -23.063 -16.820  0.00  0.00    +0.296 C 
ATOM      4  C   UNL     1      35.937 -22.032 -18.731  0.00  0.00    +0.260 C 
ATOM      5  C   UNL     1      36.210 -22.341 -16.078  0.00  0.00    +0.094 C 
ATOM      6  C   UNL     1      36.971 -21.440 -16.794  0.00  0.00    +0.119 C 
ENDROOT
BRANCH   3   7
ATOM      7  O   UNL     1      34.507 -23.989 -16.174  0.00  0.00    -0.427 OA
BRANCH   7  13
ATOM      8  O   UNL     1      30.019 -22.682 -17.358  0.00  0.00    -0.435 OA
ATOM      9  O   UNL     1      29.376 -22.480 -15.045  0.00  0.00    -0.435 OA
ATOM     10  C   UNL     1      31.041 -22.976 -16.510  0.00  0.00    +0.179 C 
ATOM     11  C   UNL     1      30.674 -22.862 -15.188  0.00  0.00    +0.177 C 
ATOM     12  C   UNL     1      32.317 -23.352 -16.878  0.00  0.00    +0.078 C 
ATOM     13  C   UNL     1      33.236 -23.615 -15.859  0.00  0.00    +0.151 C 
ATOM     14  C   UNL     1      31.562 -23.116 -14.163  0.00  0.00    +0.043 C 
ATOM     15  C   UNL     1      28.967 -22.369 -16.423  0.00  0.00    +0.429 C 
ATOM     16  C   UNL     1      32.861 -23.497 -14.509  0.00  0.00    +0.041 C 
ENDBRANCH   7  13
ENDBRANCH   3   7
BRANCH   4  17
ATOM     17  O   UNL     1      35.796 -21.873 -20.090  0.00  0.00    -0.383 OA
BRANCH  17  21
ATOM     18  C   UNL     1      35.237 -18.007 -21.496  0.00  0.00    +0.057 C 
ATOM     19  C   UNL     1      36.525 -18.480 -21.249  0.00  0.00    +0.018 C 
ATOM     20  C   UNL     1      34.135 -18.834 -21.271  0.00  0.00    +0.018 C 
ATOM     21  C   UNL     1      35.610 -20.589 -20.557  0.00  0.00    +0.160 C 
ATOM     22  C   UNL     1      36.713 -19.779 -20.777  0.00  0.00    +0.040 C 
ATOM     23  C   UNL     1      34.324 -20.133 -20.799  0.00  0.00    +0.040 C 
BRANCH  18  24
ATOM     24  N   UNL     1      35.050 -16.720 -21.965  0.00  0.00    -0.246 N 
ATOM     25  N   UNL     1      35.006 -14.996 -23.376  0.00  0.00    -0.224 NA
ATOM     26  C   UNL     1      34.593 -15.646 -21.244  0.00  0.00    +0.092 C 
ATOM     27  C   UNL     1      35.282 -16.274 -23.241  0.00  0.00    +0.172 C 
ATOM     28  C   UNL     1      34.576 -14.598 -22.135  0.00  0.00    +0.117 C 
ENDBRANCH  18  24
ENDBRANCH  17  21
ENDBRANCH   4  17
TORSDOF 5
ENDMDL
MODEL 9
REMARK VINA RESULT:     -11.8      5.413      9.242
REMARK  Name = 9969613
REMARK  5 active torsions:
REMARK  status: ('A' for Active; 'I' for Inactive)
REMARK    1  A    between atoms: C_3  and  O_7
REMARK    2  A    between atoms: C_4  and  O_17
REMARK    3  A    between atoms: O_7  and  C_13
REMARK    4  A    between atoms: O_17  and  C_21
REMARK    5  A    between atoms: C_18  and  N_24
REMARK                            x       y       z     vdW  Elec       q    Type
REMARK                         _______ _______ _______ _____ _____    ______ ____
ROOT
ATOM      1  N   UNL     1      34.577 -16.446 -23.247  0.00  0.00    -0.283 NA
ATOM      2  N   UNL     1      34.198 -14.689 -21.640  0.00  0.00    -0.151 NA
ATOM      3  C   UNL     1      35.045 -17.198 -22.238  0.00  0.00    +0.296 C 
ATOM      4  C   UNL     1      34.174 -15.214 -22.881  0.00  0.00    +0.260 C 
ATOM      5  C   UNL     1      35.126 -16.793 -20.929  0.00  0.00    +0.094 C 
ATOM      6  C   UNL     1      34.682 -15.510 -20.684  0.00  0.00    +0.119 C 
ENDROOT
BRANCH   3   7
ATOM      7  O   UNL     1      35.472 -18.474 -22.565  0.00  0.00    -0.427 OA
BRANCH   7  13
ATOM      8  O   UNL     1      32.975 -21.512 -19.774  0.00  0.00    -0.435 OA
ATOM      9  O   UNL     1      34.983 -22.337 -18.728  0.00  0.00    -0.435 OA
ATOM     10  C   UNL     1      34.095 -20.911 -20.259  0.00  0.00    +0.179 C 
ATOM     11  C   UNL     1      35.242 -21.382 -19.663  0.00  0.00    +0.177 C 
ATOM     12  C   UNL     1      34.133 -19.937 -21.236  0.00  0.00    +0.078 C 
ATOM     13  C   UNL     1      35.384 -19.436 -21.606  0.00  0.00    +0.151 C 
ATOM     14  C   UNL     1      36.490 -20.905 -20.009  0.00  0.00    +0.043 C 
ATOM     15  C   UNL     1      33.545 -22.414 -18.805  0.00  0.00    +0.429 C 
ATOM     16  C   UNL     1      36.555 -19.917 -20.995  0.00  0.00    +0.041 C 
ENDBRANCH   7  13
ENDBRANCH   3   7
BRANCH   4  17
ATOM     17  O   UNL     1      33.686 -14.405 -23.880  0.00  0.00    -0.383 OA
BRANCH  17  21
ATOM     18  C   UNL     1      32.551 -10.556 -22.818  0.00  0.00    +0.057 C 
ATOM     19  C   UNL     1      33.554 -10.750 -23.767  0.00  0.00    +0.018 C 
ATOM     20  C   UNL     1      31.929 -11.655 -22.225  0.00  0.00    +0.018 C 
ATOM     21  C   UNL     1      33.309 -13.127 -23.527  0.00  0.00    +0.160 C 
ATOM     22  C   UNL     1      33.935 -12.044 -24.124  0.00  0.00    +0.040 C 
ATOM     23  C   UNL     1      32.311 -12.949 -22.582  0.00  0.00    +0.040 C 
BRANCH  18  24
ATOM     24  N   UNL     1      32.173  -9.274 -22.463  0.00  0.00    -0.246 N 
ATOM     25  N   UNL     1      31.212  -7.267 -22.595  0.00  0.00    -0.224 NA
ATOM     26  C   UNL     1      32.495  -8.618 -21.303  0.00  0.00    +0.092 C 
ATOM     27  C   UNL     1      31.399  -8.417 -23.205  0.00  0.00    +0.172 C 
ATOM     28  C   UNL     1      31.893  -7.386 -21.409  0.00  0.00    +0.117 C 
ENDBRANCH  18  24
ENDBRANCH  17  21
ENDBRANCH   4  17
TORSDOF 5
ENDMDL
