MODEL 1
REMARK VINA RESULT:     -12.9      0.000      0.000
REMARK  Name = 16045418
REMARK  6 active torsions:
REMARK  status: ('A' for Active; 'I' for Inactive)
REMARK    1  A    between atoms: C_2  and  O_8
REMARK    2  A    between atoms: C_4  and  O_23
REMARK    3  A    between atoms: O_8  and  C_9
REMARK    4  A    between atoms: C_9  and  C_14
REMARK    5  A    between atoms: O_23  and  C_25
REMARK    6  A    between atoms: C_28  and  C_32
REMARK                            x       y       z     vdW  Elec       q    Type
REMARK                         _______ _______ _______ _____ _____    ______ ____
ROOT
ATOM      1 CL   UNL     1      33.228 -15.300 -26.153  0.00  0.00    -0.079 Cl
ATOM      2  C   UNL     1      35.383 -18.369 -23.650  0.00  0.00    +0.142 C 
ATOM      3  C   UNL     1      35.519 -17.018 -23.342  0.00  0.00    +0.075 C 
ATOM      4  C   UNL     1      34.855 -16.062 -24.111  0.00  0.00    +0.159 C 
ATOM      5  C   UNL     1      34.590 -18.771 -24.721  0.00  0.00    +0.038 C 
ATOM      6  C   UNL     1      34.059 -16.460 -25.185  0.00  0.00    +0.092 C 
ATOM      7  C   UNL     1      33.927 -17.815 -25.490  0.00  0.00    +0.018 C 
ENDROOT
BRANCH   2   8
ATOM      8  O   UNL     1      36.034 -19.306 -22.897  0.00  0.00    -0.469 OA
BRANCH   8   9
ATOM      9  C   UNL     1      35.978 -19.135 -21.479  0.00  0.00    +0.249 C 
BRANCH   9  14
ATOM     10  N   UNL     1      33.582 -19.773 -21.348  0.00  0.00    -0.227 N 
ATOM     11  N   UNL     1      32.685 -20.572 -20.732  0.00  0.00    -0.115 NA
ATOM     12  N   UNL     1      33.014 -22.226 -18.989  0.00  0.00    -0.335 NA
ATOM     13  N   UNL     1      33.748 -23.741 -17.300  0.00  0.00    -0.332 N 
ATOM     14  C   UNL     1      34.872 -19.926 -20.917  0.00  0.00    +0.097 C 
ATOM     15  C   UNL     1      34.805 -20.894 -19.953  0.00  0.00    +0.090 C 
ATOM     16  C   UNL     1      33.430 -21.270 -19.867  0.00  0.00    +0.105 C 
ATOM     17  C   UNL     1      35.872 -21.391 -19.221  0.00  0.00    +0.016 C 
ATOM     18  C   UNL     1      35.425 -22.370 -18.328  0.00  0.00    +0.049 C 
ATOM     19  C   UNL     1      34.057 -22.731 -18.256  0.00  0.00    +0.189 C 
ATOM     20  H   UNL     1      33.328 -19.131 -22.050  0.00  0.00    +0.175 HD
ATOM     21  H   UNL     1      32.818 -24.046 -17.190  0.00  0.00    +0.145 HD
ATOM     22  H   UNL     1      34.463 -24.133 -16.749  0.00  0.00    +0.145 HD
ENDBRANCH   9  14
ENDBRANCH   8   9
ENDBRANCH   2   8
BRANCH   4  23
ATOM     23  O   UNL     1      35.001 -14.745 -23.789  0.00  0.00    -0.452 OA
BRANCH  23  25
ATOM     24 CL   UNL     1      32.131 -15.245 -19.617  0.00  0.00    -0.082 Cl
ATOM     25  C   UNL     1      34.069 -14.187 -22.932  0.00  0.00    +0.147 C 
ATOM     26  C   UNL     1      33.597 -12.910 -23.187  0.00  0.00    +0.048 C 
ATOM     27  C   UNL     1      33.630 -14.917 -21.842  0.00  0.00    +0.049 C 
ATOM     28  C   UNL     1      32.657 -12.348 -22.325  0.00  0.00    +0.072 C 
ATOM     29  C   UNL     1      32.690 -14.355 -20.980  0.00  0.00    +0.061 C 
ATOM     30  C   UNL     1      32.204 -13.070 -21.220  0.00  0.00    +0.022 C 
BRANCH  28  32
ATOM     31  N   UNL     1      31.756  -9.957 -22.772  0.00  0.00    -0.191 NA
ATOM     32  C   UNL     1      32.160 -11.031 -22.571  0.00  0.00    +0.101 C 
ENDBRANCH  28  32
ENDBRANCH  23  25
ENDBRANCH   4  23
TORSDOF 6
ENDMDL
MODEL 2
REMARK VINA RESULT:     -12.4      3.603      6.402
REMARK  Name = 16045418
REMARK  6 active torsions:
REMARK  status: ('A' for Active; 'I' for Inactive)
REMARK    1  A    between atoms: C_2  and  O_8
REMARK    2  A    between atoms: C_4  and  O_23
REMARK    3  A    between atoms: O_8  and  C_9
REMARK    4  A    between atoms: C_9  and  C_14
REMARK    5  A    between atoms: O_23  and  C_25
REMARK    6  A    between atoms: C_28  and  C_32
REMARK                            x       y       z     vdW  Elec       q    Type
REMARK                         _______ _______ _______ _____ _____    ______ ____
ROOT
ATOM      1 CL   UNL     1      31.280 -10.248 -19.485  0.00  0.00    -0.079 Cl
ATOM      2  C   UNL     1      32.499 -13.009 -22.834  0.00  0.00    +0.142 C 
ATOM      3  C   UNL     1      31.872 -11.803 -23.136  0.00  0.00    +0.075 C 
ATOM      4  C   UNL     1      31.492 -10.943 -22.106  0.00  0.00    +0.159 C 
ATOM      5  C   UNL     1      32.749 -13.361 -21.511  0.00  0.00    +0.038 C 
ATOM      6  C   UNL     1      31.740 -11.292 -20.778  0.00  0.00    +0.092 C 
ATOM      7  C   UNL     1      32.368 -12.501 -20.481  0.00  0.00    +0.018 C 
ENDROOT
BRANCH   2   8
ATOM      8  O   UNL     1      32.871 -13.852 -23.844  0.00  0.00    -0.469 OA
BRANCH   8   9
ATOM      9  C   UNL     1      34.273 -14.080 -24.001  0.00  0.00    +0.249 C 
BRANCH   9  14
ATOM     10  N   UNL     1      34.545 -16.125 -25.383  0.00  0.00    -0.227 N 
ATOM     11  N   UNL     1      34.804 -17.450 -25.354  0.00  0.00    -0.115 NA
ATOM     12  N   UNL     1      35.256 -18.907 -23.469  0.00  0.00    -0.335 NA
ATOM     13  N   UNL     1      35.653 -19.986 -21.380  0.00  0.00    -0.332 N 
ATOM     14  C   UNL     1      34.538 -15.520 -24.156  0.00  0.00    +0.097 C 
ATOM     15  C   UNL     1      34.813 -16.524 -23.270  0.00  0.00    +0.090 C 
ATOM     16  C   UNL     1      34.972 -17.708 -24.052  0.00  0.00    +0.105 C 
ATOM     17  C   UNL     1      34.912 -16.393 -21.893  0.00  0.00    +0.016 C 
ATOM     18  C   UNL     1      35.205 -17.632 -21.314  0.00  0.00    +0.049 C 
ATOM     19  C   UNL     1      35.359 -18.796 -22.106  0.00  0.00    +0.189 C 
ATOM     20  H   UNL     1      34.374 -15.635 -26.220  0.00  0.00    +0.175 HD
ATOM     21  H   UNL     1      35.775 -20.837 -21.860  0.00  0.00    +0.145 HD
ATOM     22  H   UNL     1      35.735 -19.957 -20.399  0.00  0.00    +0.145 HD
ENDBRANCH   9  14
ENDBRANCH   8   9
ENDBRANCH   2   8
BRANCH   4  23
ATOM     23  O   UNL     1      30.880  -9.767 -22.426  0.00  0.00    -0.452 OA
BRANCH  23  25
ATOM     24 CL   UNL     1      35.459  -8.115 -23.907  0.00  0.00    -0.082 Cl
ATOM     25  C   UNL     1      31.688  -8.696 -22.765  0.00  0.00    +0.147 C 
ATOM     26  C   UNL     1      31.158  -7.417 -22.740  0.00  0.00    +0.048 C 
ATOM     27  C   UNL     1      33.004  -8.928 -23.120  0.00  0.00    +0.049 C 
ATOM     28  C   UNL     1      31.972  -6.337 -23.081  0.00  0.00    +0.072 C 
ATOM     29  C   UNL     1      33.818  -7.848 -23.461  0.00  0.00    +0.061 C 
ATOM     30  C   UNL     1      33.302  -6.552 -23.442  0.00  0.00    +0.022 C 
BRANCH  28  32
ATOM     31  N   UNL     1      31.012  -3.928 -23.046  0.00  0.00    -0.191 NA
ATOM     32  C   UNL     1      31.442  -5.010 -23.062  0.00  0.00    +0.101 C 
ENDBRANCH  28  32
ENDBRANCH  23  25
ENDBRANCH   4  23
TORSDOF 6
ENDMDL
MODEL 3
REMARK VINA RESULT:     -12.0      1.947      2.696
REMARK  Name = 16045418
REMARK  6 active torsions:
REMARK  status: ('A' for Active; 'I' for Inactive)
REMARK    1  A    between atoms: C_2  and  O_8
REMARK    2  A    between atoms: C_4  and  O_23
REMARK    3  A    between atoms: O_8  and  C_9
REMARK    4  A    between atoms: C_9  and  C_14
REMARK    5  A    between atoms: O_23  and  C_25
REMARK    6  A    between atoms: C_28  and  C_32
REMARK                            x       y       z     vdW  Elec       q    Type
REMARK                         _______ _______ _______ _____ _____    ______ ____
ROOT
ATOM      1 CL   UNL     1      34.913 -17.373 -25.493  0.00  0.00    -0.079 Cl
ATOM      2  C   UNL     1      35.307 -19.277 -21.426  0.00  0.00    +0.142 C 
ATOM      3  C   UNL     1      35.623 -17.930 -21.583  0.00  0.00    +0.075 C 
ATOM      4  C   UNL     1      35.503 -17.333 -22.839  0.00  0.00    +0.159 C 
ATOM      5  C   UNL     1      34.873 -20.031 -22.512  0.00  0.00    +0.038 C 
ATOM      6  C   UNL     1      35.069 -18.084 -23.930  0.00  0.00    +0.092 C 
ATOM      7  C   UNL     1      34.754 -19.433 -23.767  0.00  0.00    +0.018 C 
ENDROOT
BRANCH   2   8
ATOM      8  O   UNL     1      35.425 -19.862 -20.195  0.00  0.00    -0.469 OA
BRANCH   8   9
ATOM      9  C   UNL     1      35.640 -21.274 -20.179  0.00  0.00    +0.249 C 
BRANCH   9  14
ATOM     10  N   UNL     1      33.382 -22.116 -19.581  0.00  0.00    -0.227 N 
ATOM     11  N   UNL     1      32.648 -22.722 -18.623  0.00  0.00    -0.115 NA
ATOM     12  N   UNL     1      33.304 -23.509 -16.425  0.00  0.00    -0.335 NA
ATOM     13  N   UNL     1      34.336 -24.137 -14.369  0.00  0.00    -0.332 N 
ATOM     14  C   UNL     1      34.696 -21.920 -19.253  0.00  0.00    +0.097 C 
ATOM     15  C   UNL     1      34.822 -22.437 -17.993  0.00  0.00    +0.090 C 
ATOM     16  C   UNL     1      33.528 -22.925 -17.636  0.00  0.00    +0.105 C 
ATOM     17  C   UNL     1      35.983 -22.466 -17.236  0.00  0.00    +0.016 C 
ATOM     18  C   UNL     1      35.733 -23.069 -15.999  0.00  0.00    +0.049 C 
ATOM     19  C   UNL     1      34.443 -23.548 -15.662  0.00  0.00    +0.189 C 
ATOM     20  H   UNL     1      33.002 -21.838 -20.446  0.00  0.00    +0.175 HD
ATOM     21  H   UNL     1      33.471 -24.493 -14.061  0.00  0.00    +0.145 HD
ATOM     22  H   UNL     1      35.126 -24.187 -13.783  0.00  0.00    +0.145 HD
ENDBRANCH   9  14
ENDBRANCH   8   9
ENDBRANCH   2   8
BRANCH   4  23
ATOM     23  O   UNL     1      35.817 -16.013 -22.969  0.00  0.00    -0.452 OA
BRANCH  23  25
ATOM     24 CL   UNL     1      32.070 -13.168 -21.029  0.00  0.00    -0.082 Cl
ATOM     25  C   UNL     1      34.779 -15.126 -23.196  0.00  0.00    +0.147 C 
ATOM     26  C   UNL     1      34.501 -14.730 -24.493  0.00  0.00    +0.048 C 
ATOM     27  C   UNL     1      34.043 -14.657 -22.122  0.00  0.00    +0.049 C 
ATOM     28  C   UNL     1      33.455 -13.837 -24.722  0.00  0.00    +0.072 C 
ATOM     29  C   UNL     1      32.997 -13.765 -22.351  0.00  0.00    +0.061 C 
ATOM     30  C   UNL     1      32.703 -13.354 -23.651  0.00  0.00    +0.022 C 
BRANCH  28  32
ATOM     31  N   UNL     1      32.908 -13.073 -27.140  0.00  0.00    -0.191 NA
ATOM     32  C   UNL     1      33.154 -13.417 -26.055  0.00  0.00    +0.101 C 
ENDBRANCH  28  32
ENDBRANCH  23  25
ENDBRANCH   4  23
TORSDOF 6
ENDMDL
MODEL 4
REMARK VINA RESULT:     -11.8      2.781      4.614
REMARK  Name = 16045418
REMARK  6 active torsions:
REMARK  status: ('A' for Active; 'I' for Inactive)
REMARK    1  A    between atoms: C_2  and  O_8
REMARK    2  A    between atoms: C_4  and  O_23
REMARK    3  A    between atoms: O_8  and  C_9
REMARK    4  A    between atoms: C_9  and  C_14
REMARK    5  A    between atoms: O_23  and  C_25
REMARK    6  A    between atoms: C_28  and  C_32
REMARK                            x       y       z     vdW  Elec       q    Type
REMARK                         _______ _______ _______ _____ _____    ______ ____
ROOT
ATOM      1 CL   UNL     1      38.113 -18.672 -22.334  0.00  0.00    -0.079 Cl
ATOM      2  C   UNL     1      34.636 -20.705 -20.307  0.00  0.00    +0.142 C 
ATOM      3  C   UNL     1      34.458 -20.140 -21.567  0.00  0.00    +0.075 C 
ATOM      4  C   UNL     1      35.528 -19.510 -22.202  0.00  0.00    +0.159 C 
ATOM      5  C   UNL     1      35.875 -20.644 -19.676  0.00  0.00    +0.038 C 
ATOM      6  C   UNL     1      36.772 -19.446 -21.574  0.00  0.00    +0.092 C 
ATOM      7  C   UNL     1      36.945 -20.013 -20.311  0.00  0.00    +0.018 C 
ENDROOT
BRANCH   2   8
ATOM      8  O   UNL     1      33.586 -21.323 -19.685  0.00  0.00    -0.469 OA
BRANCH   8   9
ATOM      9  C   UNL     1      33.788 -22.682 -19.293  0.00  0.00    +0.249 C 
BRANCH   9  14
ATOM     10  N   UNL     1      31.847 -22.719 -17.745  0.00  0.00    -0.227 N 
ATOM     11  N   UNL     1      31.445 -22.987 -16.485  0.00  0.00    -0.115 NA
ATOM     12  N   UNL     1      32.724 -23.773 -14.579  0.00  0.00    -0.335 NA
ATOM     13  N   UNL     1      34.312 -24.537 -12.974  0.00  0.00    -0.332 N 
ATOM     14  C   UNL     1      33.180 -22.924 -17.975  0.00  0.00    +0.097 C 
ATOM     15  C   UNL     1      33.677 -23.357 -16.777  0.00  0.00    +0.090 C 
ATOM     16  C   UNL     1      32.569 -23.383 -15.876  0.00  0.00    +0.105 C 
ATOM     17  C   UNL     1      34.996 -23.695 -16.516  0.00  0.00    +0.016 C 
ATOM     18  C   UNL     1      35.134 -24.093 -15.182  0.00  0.00    +0.049 C 
ATOM     19  C   UNL     1      34.023 -24.112 -14.303  0.00  0.00    +0.189 C 
ATOM     20  H   UNL     1      31.229 -22.401 -18.444  0.00  0.00    +0.175 HD
ATOM     21  H   UNL     1      33.593 -24.578 -12.303  0.00  0.00    +0.145 HD
ATOM     22  H   UNL     1      35.231 -24.790 -12.726  0.00  0.00    +0.145 HD
ENDBRANCH   9  14
ENDBRANCH   8   9
ENDBRANCH   2   8
BRANCH   4  23
ATOM     23  O   UNL     1      35.331 -18.965 -23.435  0.00  0.00    -0.452 OA
BRANCH  23  25
ATOM     24 CL   UNL     1      34.591 -14.577 -20.966  0.00  0.00    -0.082 Cl
ATOM     25  C   UNL     1      34.971 -17.629 -23.497  0.00  0.00    +0.147 C 
ATOM     26  C   UNL     1      34.625 -17.080 -24.719  0.00  0.00    +0.048 C 
ATOM     27  C   UNL     1      34.966 -16.877 -22.336  0.00  0.00    +0.049 C 
ATOM     28  C   UNL     1      34.262 -15.735 -24.781  0.00  0.00    +0.072 C 
ATOM     29  C   UNL     1      34.603 -15.532 -22.398  0.00  0.00    +0.061 C 
ATOM     30  C   UNL     1      34.252 -14.961 -23.621  0.00  0.00    +0.022 C 
BRANCH  28  32
ATOM     31  N   UNL     1      33.610 -14.673 -27.056  0.00  0.00    -0.191 NA
ATOM     32  C   UNL     1      33.902 -15.149 -26.034  0.00  0.00    +0.101 C 
ENDBRANCH  28  32
ENDBRANCH  23  25
ENDBRANCH   4  23
TORSDOF 6
ENDMDL
MODEL 5
REMARK VINA RESULT:     -11.8      6.221      9.793
REMARK  Name = 16045418
REMARK  6 active torsions:
REMARK  status: ('A' for Active; 'I' for Inactive)
REMARK    1  A    between atoms: C_2  and  O_8
REMARK    2  A    between atoms: C_4  and  O_23
REMARK    3  A    between atoms: O_8  and  C_9
REMARK    4  A    between atoms: C_9  and  C_14
REMARK    5  A    between atoms: O_23  and  C_25
REMARK    6  A    between atoms: C_28  and  C_32
REMARK                            x       y       z     vdW  Elec       q    Type
REMARK                         _______ _______ _______ _____ _____    ______ ____
ROOT
ATOM      1 CL   UNL     1      29.322 -22.427 -16.895  0.00  0.00    -0.079 Cl
ATOM      2  C   UNL     1      32.607 -23.988 -14.230  0.00  0.00    +0.142 C 
ATOM      3  C   UNL     1      32.849 -23.831 -15.592  0.00  0.00    +0.075 C 
ATOM      4  C   UNL     1      31.838 -23.348 -16.424  0.00  0.00    +0.159 C 
ATOM      5  C   UNL     1      31.364 -23.668 -13.693  0.00  0.00    +0.038 C 
ATOM      6  C   UNL     1      30.590 -23.025 -15.890  0.00  0.00    +0.092 C 
ATOM      7  C   UNL     1      30.353 -23.185 -14.525  0.00  0.00    +0.018 C 
ENDROOT
BRANCH   2   8
ATOM      8  O   UNL     1      33.598 -24.462 -13.415  0.00  0.00    -0.469 OA
BRANCH   8   9
ATOM      9  C   UNL     1      34.905 -23.923 -13.622  0.00  0.00    +0.249 C 
BRANCH   9  14
ATOM     10  N   UNL     1      35.303 -25.880 -15.097  0.00  0.00    -0.227 N 
ATOM     11  N   UNL     1      36.235 -26.739 -15.564  0.00  0.00    -0.115 NA
ATOM     12  N   UNL     1      38.611 -26.862 -15.096  0.00  0.00    -0.335 NA
ATOM     13  N   UNL     1      40.876 -26.648 -14.382  0.00  0.00    -0.332 N 
ATOM     14  C   UNL     1      35.782 -24.938 -14.227  0.00  0.00    +0.097 C 
ATOM     15  C   UNL     1      37.119 -25.207 -14.124  0.00  0.00    +0.090 C 
ATOM     16  C   UNL     1      37.362 -26.332 -14.969  0.00  0.00    +0.105 C 
ATOM     17  C   UNL     1      38.032 -24.511 -13.347  0.00  0.00    +0.016 C 
ATOM     18  C   UNL     1      39.306 -25.069 -13.492  0.00  0.00    +0.049 C 
ATOM     19  C   UNL     1      39.529 -26.185 -14.335  0.00  0.00    +0.189 C 
ATOM     20  H   UNL     1      34.356 -25.928 -15.362  0.00  0.00    +0.175 HD
ATOM     21  H   UNL     1      41.111 -27.420 -14.945  0.00  0.00    +0.145 HD
ATOM     22  H   UNL     1      41.571 -26.195 -13.851  0.00  0.00    +0.145 HD
ENDBRANCH   9  14
ENDBRANCH   8   9
ENDBRANCH   2   8
BRANCH   4  23
ATOM     23  O   UNL     1      32.097 -23.201 -17.754  0.00  0.00    -0.452 OA
BRANCH  23  25
ATOM     24 CL   UNL     1      37.049 -22.684 -16.701  0.00  0.00    -0.082 Cl
ATOM     25  C   UNL     1      33.325 -22.670 -18.113  0.00  0.00    +0.147 C 
ATOM     26  C   UNL     1      33.418 -21.902 -19.260  0.00  0.00    +0.048 C 
ATOM     27  C   UNL     1      34.428 -22.920 -17.316  0.00  0.00    +0.049 C 
ATOM     28  C   UNL     1      34.654 -21.367 -19.621  0.00  0.00    +0.072 C 
ATOM     29  C   UNL     1      35.664 -22.385 -17.677  0.00  0.00    +0.061 C 
ATOM     30  C   UNL     1      35.777 -21.609 -18.830  0.00  0.00    +0.022 C 
BRANCH  28  32
ATOM     31  N   UNL     1      34.864 -19.922 -21.766  0.00  0.00    -0.191 NA
ATOM     32  C   UNL     1      34.770 -20.572 -20.803  0.00  0.00    +0.101 C 
ENDBRANCH  28  32
ENDBRANCH  23  25
ENDBRANCH   4  23
TORSDOF 6
ENDMDL
MODEL 6
REMARK VINA RESULT:     -11.7      1.837      2.302
REMARK  Name = 16045418
REMARK  6 active torsions:
REMARK  status: ('A' for Active; 'I' for Inactive)
REMARK    1  A    between atoms: C_2  and  O_8
REMARK    2  A    between atoms: C_4  and  O_23
REMARK    3  A    between atoms: O_8  and  C_9
REMARK    4  A    between atoms: C_9  and  C_14
REMARK    5  A    between atoms: O_23  and  C_25
REMARK    6  A    between atoms: C_28  and  C_32
REMARK                            x       y       z     vdW  Elec       q    Type
REMARK                         _______ _______ _______ _____ _____    ______ ____
ROOT
ATOM      1 CL   UNL     1      34.229 -16.967 -25.606  0.00  0.00    -0.079 Cl
ATOM      2  C   UNL     1      35.692 -19.038 -21.878  0.00  0.00    +0.142 C 
ATOM      3  C   UNL     1      35.833 -17.657 -21.993  0.00  0.00    +0.075 C 
ATOM      4  C   UNL     1      35.383 -17.009 -23.143  0.00  0.00    +0.159 C 
ATOM      5  C   UNL     1      35.104 -19.774 -22.902  0.00  0.00    +0.038 C 
ATOM      6  C   UNL     1      34.794 -17.742 -24.173  0.00  0.00    +0.092 C 
ATOM      7  C   UNL     1      34.655 -19.125 -24.052  0.00  0.00    +0.018 C 
ENDROOT
BRANCH   2   8
ATOM      8  O   UNL     1      36.134 -19.673 -20.750  0.00  0.00    -0.469 OA
BRANCH   8   9
ATOM      9  C   UNL     1      35.852 -21.071 -20.654  0.00  0.00    +0.249 C 
BRANCH   9  14
ATOM     10  N   UNL     1      37.056 -21.297 -18.494  0.00  0.00    -0.227 N 
ATOM     11  N   UNL     1      36.974 -21.759 -17.228  0.00  0.00    -0.115 NA
ATOM     12  N   UNL     1      35.153 -22.899 -16.103  0.00  0.00    -0.335 NA
ATOM     13  N   UNL     1      33.158 -23.980 -15.369  0.00  0.00    -0.332 N 
ATOM     14  C   UNL     1      35.936 -21.509 -19.252  0.00  0.00    +0.097 C 
ATOM     15  C   UNL     1      35.066 -22.153 -18.416  0.00  0.00    +0.090 C 
ATOM     16  C   UNL     1      35.747 -22.291 -17.168  0.00  0.00    +0.105 C 
ATOM     17  C   UNL     1      33.787 -22.578 -18.740  0.00  0.00    +0.016 C 
ATOM     18  C   UNL     1      33.194 -23.198 -17.636  0.00  0.00    +0.049 C 
ATOM     19  C   UNL     1      33.885 -23.325 -16.405  0.00  0.00    +0.189 C 
ATOM     20  H   UNL     1      37.858 -20.845 -18.844  0.00  0.00    +0.175 HD
ATOM     21  H   UNL     1      33.570 -24.107 -14.484  0.00  0.00    +0.145 HD
ATOM     22  H   UNL     1      32.244 -24.305 -15.539  0.00  0.00    +0.145 HD
ENDBRANCH   9  14
ENDBRANCH   8   9
ENDBRANCH   2   8
BRANCH   4  23
ATOM     23  O   UNL     1      35.531 -15.657 -23.234  0.00  0.00    -0.452 OA
BRANCH  23  25
ATOM     24 CL   UNL     1      31.971 -15.134 -19.636  0.00  0.00    -0.082 Cl
ATOM     25  C   UNL     1      34.554 -14.864 -22.655  0.00  0.00    +0.147 C 
ATOM     26  C   UNL     1      34.309 -13.606 -23.178  0.00  0.00    +0.048 C 
ATOM     27  C   UNL     1      33.847 -15.349 -21.570  0.00  0.00    +0.049 C 
ATOM     28  C   UNL     1      33.325 -12.808 -22.596  0.00  0.00    +0.072 C 
ATOM     29  C   UNL     1      32.862 -14.551 -20.988  0.00  0.00    +0.061 C 
ATOM     30  C   UNL     1      32.601 -13.280 -21.501  0.00  0.00    +0.022 C 
BRANCH  28  32
ATOM     31  N   UNL     1      32.842 -10.445 -23.549  0.00  0.00    -0.191 NA
ATOM     32  C   UNL     1      33.058 -11.506 -23.122  0.00  0.00    +0.101 C 
ENDBRANCH  28  32
ENDBRANCH  23  25
ENDBRANCH   4  23
TORSDOF 6
ENDMDL
MODEL 7
REMARK VINA RESULT:     -11.7      5.584     10.524
REMARK  Name = 16045418
REMARK  6 active torsions:
REMARK  status: ('A' for Active; 'I' for Inactive)
REMARK    1  A    between atoms: C_2  and  O_8
REMARK    2  A    between atoms: C_4  and  O_23
REMARK    3  A    between atoms: O_8  and  C_9
REMARK    4  A    between atoms: C_9  and  C_14
REMARK    5  A    between atoms: O_23  and  C_25
REMARK    6  A    between atoms: C_28  and  C_32
REMARK                            x       y       z     vdW  Elec       q    Type
REMARK                         _______ _______ _______ _____ _____    ______ ____
ROOT
ATOM      1 CL   UNL     1      31.203 -23.828 -12.762  0.00  0.00    -0.079 Cl
ATOM      2  C   UNL     1      32.089 -22.991 -17.102  0.00  0.00    +0.142 C 
ATOM      3  C   UNL     1      33.123 -23.382 -16.257  0.00  0.00    +0.075 C 
ATOM      4  C   UNL     1      32.858 -23.644 -14.912  0.00  0.00    +0.159 C 
ATOM      5  C   UNL     1      30.792 -22.858 -16.615  0.00  0.00    +0.038 C 
ATOM      6  C   UNL     1      31.560 -23.512 -14.419  0.00  0.00    +0.092 C 
ATOM      7  C   UNL     1      30.527 -23.119 -15.270  0.00  0.00    +0.018 C 
ENDROOT
BRANCH   2   8
ATOM      8  O   UNL     1      32.350 -22.734 -18.420  0.00  0.00    -0.469 OA
BRANCH   8   9
ATOM      9  C   UNL     1      33.717 -22.505 -18.766  0.00  0.00    +0.249 C 
BRANCH   9  14
ATOM     10  N   UNL     1      32.706 -20.879 -20.347  0.00  0.00    -0.227 N 
ATOM     11  N   UNL     1      32.964 -19.890 -21.228  0.00  0.00    -0.115 NA
ATOM     12  N   UNL     1      35.084 -18.929 -21.911  0.00  0.00    -0.335 NA
ATOM     13  N   UNL     1      37.339 -18.266 -22.310  0.00  0.00    -0.332 N 
ATOM     14  C   UNL     1      33.815 -21.417 -19.753  0.00  0.00    +0.097 C 
ATOM     15  C   UNL     1      34.866 -20.726 -20.287  0.00  0.00    +0.090 C 
ATOM     16  C   UNL     1      34.298 -19.786 -21.199  0.00  0.00    +0.105 C 
ATOM     17  C   UNL     1      36.206 -20.919 -19.986  0.00  0.00    +0.016 C 
ATOM     18  C   UNL     1      36.995 -20.031 -20.725  0.00  0.00    +0.049 C 
ATOM     19  C   UNL     1      36.414 -19.105 -21.625  0.00  0.00    +0.189 C 
ATOM     20  H   UNL     1      31.792 -21.189 -20.149  0.00  0.00    +0.175 HD
ATOM     21  H   UNL     1      37.013 -17.596 -22.953  0.00  0.00    +0.145 HD
ATOM     22  H   UNL     1      38.305 -18.356 -22.140  0.00  0.00    +0.145 HD
ENDBRANCH   9  14
ENDBRANCH   8   9
ENDBRANCH   2   8
BRANCH   4  23
ATOM     23  O   UNL     1      33.886 -24.027 -14.104  0.00  0.00    -0.452 OA
BRANCH  23  25
ATOM     24 CL   UNL     1      37.370 -21.249 -16.561  0.00  0.00    -0.082 Cl
ATOM     25  C   UNL     1      35.170 -23.938 -14.613  0.00  0.00    +0.147 C 
ATOM     26  C   UNL     1      36.028 -25.015 -14.472  0.00  0.00    +0.048 C 
ATOM     27  C   UNL     1      35.564 -22.776 -15.251  0.00  0.00    +0.049 C 
ATOM     28  C   UNL     1      37.321 -24.926 -14.985  0.00  0.00    +0.072 C 
ATOM     29  C   UNL     1      36.858 -22.686 -15.765  0.00  0.00    +0.061 C 
ATOM     30  C   UNL     1      37.737 -23.761 -15.631  0.00  0.00    +0.022 C 
BRANCH  28  32
ATOM     31  N   UNL     1      38.956 -26.924 -14.737  0.00  0.00    -0.191 NA
ATOM     32  C   UNL     1      38.222 -26.027 -14.848  0.00  0.00    +0.101 C 
ENDBRANCH  28  32
ENDBRANCH  23  25
ENDBRANCH   4  23
TORSDOF 6
ENDMDL
MODEL 8
REMARK VINA RESULT:     -11.6      7.104     10.149
REMARK  Name = 16045418
REMARK  6 active torsions:
REMARK  status: ('A' for Active; 'I' for Inactive)
REMARK    1  A    between atoms: C_2  and  O_8
REMARK    2  A    between atoms: C_4  and  O_23
REMARK    3  A    between atoms: O_8  and  C_9
REMARK    4  A    between atoms: C_9  and  C_14
REMARK    5  A    between atoms: O_23  and  C_25
REMARK    6  A    between atoms: C_28  and  C_32
REMARK                            x       y       z     vdW  Elec       q    Type
REMARK                         _______ _______ _______ _____ _____    ______ ____
ROOT
ATOM      1 CL   UNL     1      29.439 -22.422 -16.875  0.00  0.00    -0.079 Cl
ATOM      2  C   UNL     1      32.660 -24.058 -14.178  0.00  0.00    +0.142 C 
ATOM      3  C   UNL     1      32.908 -23.937 -15.543  0.00  0.00    +0.075 C 
ATOM      4  C   UNL     1      31.917 -23.431 -16.385  0.00  0.00    +0.159 C 
ATOM      5  C   UNL     1      31.431 -23.679 -13.649  0.00  0.00    +0.038 C 
ATOM      6  C   UNL     1      30.683 -23.049 -15.859  0.00  0.00    +0.092 C 
ATOM      7  C   UNL     1      30.440 -23.174 -14.491  0.00  0.00    +0.018 C 
ENDROOT
BRANCH   2   8
ATOM      8  O   UNL     1      33.632 -24.554 -13.354  0.00  0.00    -0.469 OA
BRANCH   8   9
ATOM      9  C   UNL     1      34.944 -24.013 -13.517  0.00  0.00    +0.249 C 
BRANCH   9  14
ATOM     10  N   UNL     1      35.346 -25.913 -15.065  0.00  0.00    -0.227 N 
ATOM     11  N   UNL     1      36.279 -26.749 -15.566  0.00  0.00    -0.115 NA
ATOM     12  N   UNL     1      38.658 -26.879 -15.111  0.00  0.00    -0.335 NA
ATOM     13  N   UNL     1      40.924 -26.680 -14.398  0.00  0.00    -0.332 N 
ATOM     14  C   UNL     1      35.823 -25.001 -14.162  0.00  0.00    +0.097 C 
ATOM     15  C   UNL     1      37.162 -25.267 -14.074  0.00  0.00    +0.090 C 
ATOM     16  C   UNL     1      37.407 -26.359 -14.961  0.00  0.00    +0.105 C 
ATOM     17  C   UNL     1      38.075 -24.596 -13.275  0.00  0.00    +0.016 C 
ATOM     18  C   UNL     1      39.351 -25.142 -13.444  0.00  0.00    +0.049 C 
ATOM     19  C   UNL     1      39.576 -26.226 -14.329  0.00  0.00    +0.189 C 
ATOM     20  H   UNL     1      34.398 -25.956 -15.328  0.00  0.00    +0.175 HD
ATOM     21  H   UNL     1      41.161 -27.430 -14.990  0.00  0.00    +0.145 HD
ATOM     22  H   UNL     1      41.620 -26.244 -13.853  0.00  0.00    +0.145 HD
ENDBRANCH   9  14
ENDBRANCH   8   9
ENDBRANCH   2   8
BRANCH   4  23
ATOM     23  O   UNL     1      32.183 -23.320 -17.717  0.00  0.00    -0.452 OA
BRANCH  23  25
ATOM     24 CL   UNL     1      34.744 -20.478 -21.072  0.00  0.00    -0.082 Cl
ATOM     25  C   UNL     1      33.382 -22.734 -18.085  0.00  0.00    +0.147 C 
ATOM     26  C   UNL     1      34.492 -22.905 -17.278  0.00  0.00    +0.048 C 
ATOM     27  C   UNL     1      33.441 -21.993 -19.253  0.00  0.00    +0.049 C 
ATOM     28  C   UNL     1      35.700 -22.315 -17.650  0.00  0.00    +0.072 C 
ATOM     29  C   UNL     1      34.649 -21.404 -19.625  0.00  0.00    +0.061 C 
ATOM     30  C   UNL     1      35.779 -21.565 -18.823  0.00  0.00    +0.022 C 
BRANCH  28  32
ATOM     31  N   UNL     1      37.800 -22.612 -16.156  0.00  0.00    -0.191 NA
ATOM     32  C   UNL     1      36.858 -22.480 -16.827  0.00  0.00    +0.101 C 
ENDBRANCH  28  32
ENDBRANCH  23  25
ENDBRANCH   4  23
TORSDOF 6
ENDMDL
MODEL 9
REMARK VINA RESULT:     -11.6      2.582      8.679
REMARK  Name = 16045418
REMARK  6 active torsions:
REMARK  status: ('A' for Active; 'I' for Inactive)
REMARK    1  A    between atoms: C_2  and  O_8
REMARK    2  A    between atoms: C_4  and  O_23
REMARK    3  A    between atoms: O_8  and  C_9
REMARK    4  A    between atoms: C_9  and  C_14
REMARK    5  A    between atoms: O_23  and  C_25
REMARK    6  A    between atoms: C_28  and  C_32
REMARK                            x       y       z     vdW  Elec       q    Type
REMARK                         _______ _______ _______ _____ _____    ______ ____
ROOT
ATOM      1 CL   UNL     1      35.301 -20.208 -24.808  0.00  0.00    -0.079 Cl
ATOM      2  C   UNL     1      34.870 -15.865 -23.677  0.00  0.00    +0.142 C 
ATOM      3  C   UNL     1      35.635 -16.707 -22.875  0.00  0.00    +0.075 C 
ATOM      4  C   UNL     1      35.774 -18.053 -23.218  0.00  0.00    +0.159 C 
ATOM      5  C   UNL     1      34.243 -16.356 -24.818  0.00  0.00    +0.038 C 
ATOM      6  C   UNL     1      35.147 -18.549 -24.361  0.00  0.00    +0.092 C 
ATOM      7  C   UNL     1      34.382 -17.701 -25.160  0.00  0.00    +0.018 C 
ENDROOT
BRANCH   2   8
ATOM      8  O   UNL     1      34.733 -14.546 -23.340  0.00  0.00    -0.469 OA
BRANCH   8   9
ATOM      9  C   UNL     1      33.657 -13.838 -23.959  0.00  0.00    +0.249 C 
BRANCH   9  14
ATOM     10  N   UNL     1      32.292 -13.575 -21.902  0.00  0.00    -0.227 N 
ATOM     11  N   UNL     1      31.696 -12.686 -21.079  0.00  0.00    -0.115 NA
ATOM     12  N   UNL     1      31.621 -10.265 -21.197  0.00  0.00    -0.335 NA
ATOM     13  N   UNL     1      31.780  -7.933 -21.667  0.00  0.00    -0.332 N 
ATOM     14  C   UNL     1      32.952 -13.017 -22.962  0.00  0.00    +0.097 C 
ATOM     15  C   UNL     1      32.771 -11.669 -22.815  0.00  0.00    +0.090 C 
ATOM     16  C   UNL     1      31.986 -11.504 -21.634  0.00  0.00    +0.105 C 
ATOM     17  C   UNL     1      33.261 -10.684 -23.658  0.00  0.00    +0.016 C 
ATOM     18  C   UNL     1      32.877  -9.422 -23.193  0.00  0.00    +0.049 C 
ATOM     19  C   UNL     1      32.098  -9.276 -22.019  0.00  0.00    +0.189 C 
ATOM     20  H   UNL     1      32.254 -14.548 -21.750  0.00  0.00    +0.175 HD
ATOM     21  H   UNL     1      31.242  -7.749 -20.864  0.00  0.00    +0.145 HD
ATOM     22  H   UNL     1      32.100  -7.188 -22.227  0.00  0.00    +0.145 HD
ENDBRANCH   9  14
ENDBRANCH   8   9
ENDBRANCH   2   8
BRANCH   4  23
ATOM     23  O   UNL     1      36.529 -18.858 -22.418  0.00  0.00    -0.452 OA
BRANCH  23  25
ATOM     24 CL   UNL     1      32.109 -20.637 -20.631  0.00  0.00    -0.082 Cl
ATOM     25  C   UNL     1      35.868 -19.627 -21.475  0.00  0.00    +0.147 C 
ATOM     26  C   UNL     1      36.603 -20.276 -20.499  0.00  0.00    +0.048 C 
ATOM     27  C   UNL     1      34.489 -19.726 -21.531  0.00  0.00    +0.049 C 
ATOM     28  C   UNL     1      35.937 -21.050 -19.548  0.00  0.00    +0.072 C 
ATOM     29  C   UNL     1      33.823 -20.499 -20.580  0.00  0.00    +0.061 C 
ATOM     30  C   UNL     1      34.548 -21.162 -19.589  0.00  0.00    +0.022 C 
BRANCH  28  32
ATOM     31  N   UNL     1      37.285 -22.283 -17.708  0.00  0.00    -0.191 NA
ATOM     32  C   UNL     1      36.680 -21.728 -18.534  0.00  0.00    +0.101 C 
ENDBRANCH  28  32
ENDBRANCH  23  25
ENDBRANCH   4  23
TORSDOF 6
ENDMDL
