MODEL 1
REMARK VINA RESULT:     -12.8      0.000      0.000
REMARK  Name = 448903
REMARK  11 active torsions:
REMARK  status: ('A' for Active; 'I' for Inactive)
REMARK    1  A    between atoms: N_1  and  C_22
REMARK    2  A    between atoms: C_8  and  N_11
REMARK    3  A    between atoms: C_12  and  C_14
REMARK    4  A    between atoms: C_14  and  C_15
REMARK    5  A    between atoms: C_15  and  C_16
REMARK    6  A    between atoms: C_22  and  C_23
REMARK    7  A    between atoms: C_23  and  C_24
REMARK    8  A    between atoms: C_24  and  N_25
REMARK    9  A    between atoms: C_24  and  C_35
REMARK   10  A    between atoms: C_29  and  C_32
REMARK   11  A    between atoms: C_35  and  O_36
REMARK                            x       y       z     vdW  Elec       q    Type
REMARK                         _______ _______ _______ _____ _____    ______ ____
ROOT
ATOM      1  N   UNL     1      34.094 -23.291 -16.266  0.00  0.00    -0.286 N 
ATOM      2  C   UNL     1      34.837 -22.679 -17.250  0.00  0.00    +0.053 C 
ATOM      3  C   UNL     1      36.157 -22.627 -16.794  0.00  0.00    +0.015 C 
ATOM      4  C   UNL     1      34.895 -23.629 -15.209  0.00  0.00    +0.065 C 
ATOM      5  C   UNL     1      36.178 -23.231 -15.506  0.00  0.00    +0.017 C 
ATOM      6  C   UNL     1      34.447 -22.171 -18.494  0.00  0.00    +0.029 C 
ATOM      7  C   UNL     1      37.137 -22.040 -17.620  0.00  0.00    +0.003 C 
ATOM      8  C   UNL     1      35.437 -21.595 -19.296  0.00  0.00    +0.052 C 
ATOM      9  C   UNL     1      36.761 -21.530 -18.868  0.00  0.00    +0.015 C 
ENDROOT
BRANCH   8  11
ATOM     10  O   UNL     1      36.197 -19.002 -20.614  0.00  0.00    -0.275 OA
ATOM     11  N   UNL     1      35.090 -21.078 -20.545  0.00  0.00    -0.284 N 
ATOM     12  C   UNL     1      35.485 -19.864 -21.121  0.00  0.00    +0.226 C 
ATOM     13  H   UNL     1      34.492 -21.638 -21.092  0.00  0.00    +0.155 HD
BRANCH  12  14
ATOM     14  C   UNL     1      34.893 -19.655 -22.506  0.00  0.00    +0.090 C 
BRANCH  14  15
ATOM     15  C   UNL     1      35.798 -18.789 -23.382  0.00  0.00    +0.036 C 
BRANCH  15  16
ATOM     16  C   UNL     1      35.156 -17.490 -23.806  0.00  0.00    -0.022 C 
ATOM     17  C   UNL     1      35.021 -16.447 -22.891  0.00  0.00    -0.004 C 
ATOM     18  C   UNL     1      34.698 -17.334 -25.115  0.00  0.00    -0.004 C 
ATOM     19  C   UNL     1      34.427 -15.247 -23.282  0.00  0.00    -0.000 C 
ATOM     20  C   UNL     1      34.104 -16.134 -25.506  0.00  0.00    -0.000 C 
ATOM     21  C   UNL     1      33.968 -15.091 -24.590  0.00  0.00    -0.000 C 
ENDBRANCH  15  16
ENDBRANCH  14  15
ENDBRANCH  12  14
ENDBRANCH   8  11
BRANCH   1  22
ATOM     22  C   UNL     1      32.671 -23.549 -16.325  0.00  0.00    +0.097 C 
BRANCH  22  23
ATOM     23  C   UNL     1      31.849 -22.805 -15.264  0.00  0.00    +0.040 C 
BRANCH  23  24
ATOM     24  C   UNL     1      30.609 -23.566 -14.742  0.00  0.00    +0.091 C 
BRANCH  24  25
ATOM     25  N   UNL     1      29.467 -23.538 -15.671  0.00  0.00    -0.246 NA
ATOM     26  N   UNL     1      27.988 -24.062 -17.242  0.00  0.00    -0.251 NA
ATOM     27  C   UNL     1      28.529 -22.543 -15.787  0.00  0.00    +0.125 C 
ATOM     28  C   UNL     1      29.113 -24.438 -16.561  0.00  0.00    +0.201 C 
ATOM     29  C   UNL     1      27.601 -22.845 -16.756  0.00  0.00    +0.124 C 
BRANCH  29  32
ATOM     30  O   UNL     1      25.569 -21.682 -16.427  0.00  0.00    -0.269 OA
ATOM     31  N   UNL     1      26.372 -21.794 -18.558  0.00  0.00    -0.324 N 
ATOM     32  C   UNL     1      26.470 -22.099 -17.195  0.00  0.00    +0.257 C 
ATOM     33  H   UNL     1      25.603 -21.279 -18.893  0.00  0.00    +0.145 HD
ATOM     34  H   UNL     1      27.073 -22.094 -19.181  0.00  0.00    +0.145 HD
ENDBRANCH  29  32
ENDBRANCH  24  25
BRANCH  24  35
ATOM     35  C   UNL     1      30.975 -25.016 -14.384  0.00  0.00    +0.153 C 
BRANCH  35  36
ATOM     36  O   UNL     1      30.698 -25.255 -13.009  0.00  0.00    -0.381 OA
ATOM     37  H   UNL     1      29.740 -25.227 -12.863  0.00  0.00    +0.210 HD
ENDBRANCH  35  36
ENDBRANCH  24  35
ENDBRANCH  23  24
ENDBRANCH  22  23
ENDBRANCH   1  22
TORSDOF 11
ENDMDL
MODEL 2
REMARK VINA RESULT:     -12.5      6.832     12.016
REMARK  Name = 448903
REMARK  11 active torsions:
REMARK  status: ('A' for Active; 'I' for Inactive)
REMARK    1  A    between atoms: N_1  and  C_22
REMARK    2  A    between atoms: C_8  and  N_11
REMARK    3  A    between atoms: C_12  and  C_14
REMARK    4  A    between atoms: C_14  and  C_15
REMARK    5  A    between atoms: C_15  and  C_16
REMARK    6  A    between atoms: C_22  and  C_23
REMARK    7  A    between atoms: C_23  and  C_24
REMARK    8  A    between atoms: C_24  and  N_25
REMARK    9  A    between atoms: C_24  and  C_35
REMARK   10  A    between atoms: C_29  and  C_32
REMARK   11  A    between atoms: C_35  and  O_36
REMARK                            x       y       z     vdW  Elec       q    Type
REMARK                         _______ _______ _______ _____ _____    ______ ____
ROOT
ATOM      1  N   UNL     1      32.864 -13.825 -22.477  0.00  0.00    -0.286 N 
ATOM      2  C   UNL     1      32.392 -12.581 -22.121  0.00  0.00    +0.053 C 
ATOM      3  C   UNL     1      32.218 -12.590 -20.735  0.00  0.00    +0.015 C 
ATOM      4  C   UNL     1      32.995 -14.616 -21.368  0.00  0.00    +0.065 C 
ATOM      5  C   UNL     1      32.603 -13.880 -20.274  0.00  0.00    +0.017 C 
ATOM      6  C   UNL     1      32.108 -11.462 -22.911  0.00  0.00    +0.029 C 
ATOM      7  C   UNL     1      31.737 -11.425 -20.105  0.00  0.00    +0.003 C 
ATOM      8  C   UNL     1      31.633 -10.317 -22.263  0.00  0.00    +0.052 C 
ATOM      9  C   UNL     1      31.450 -10.297 -20.882  0.00  0.00    +0.015 C 
ENDROOT
BRANCH   8  11
ATOM     10  O   UNL     1      31.919  -7.403 -21.580  0.00  0.00    -0.275 OA
ATOM     11  N   UNL     1      31.340  -9.178 -23.014  0.00  0.00    -0.284 N 
ATOM     12  C   UNL     1      31.505  -7.835 -22.652  0.00  0.00    +0.226 C 
ATOM     13  H   UNL     1      30.969  -9.338 -23.912  0.00  0.00    +0.155 HD
BRANCH  12  14
ATOM     14  C   UNL     1      31.067  -6.878 -23.749  0.00  0.00    +0.090 C 
BRANCH  14  15
ATOM     15  C   UNL     1      31.854  -5.567 -23.702  0.00  0.00    +0.036 C 
BRANCH  15  16
ATOM     16  C   UNL     1      33.030  -5.541 -24.648  0.00  0.00    -0.022 C 
ATOM     17  C   UNL     1      34.177  -6.278 -24.356  0.00  0.00    -0.004 C 
ATOM     18  C   UNL     1      32.969  -4.780 -25.816  0.00  0.00    -0.004 C 
ATOM     19  C   UNL     1      35.264  -6.254 -25.230  0.00  0.00    -0.000 C 
ATOM     20  C   UNL     1      34.056  -4.756 -26.690  0.00  0.00    -0.000 C 
ATOM     21  C   UNL     1      35.203  -5.493 -26.397  0.00  0.00    -0.000 C 
ENDBRANCH  15  16
ENDBRANCH  14  15
ENDBRANCH  12  14
ENDBRANCH   8  11
BRANCH   1  22
ATOM     22  C   UNL     1      33.180 -14.250 -23.824  0.00  0.00    +0.097 C 
BRANCH  22  23
ATOM     23  C   UNL     1      34.611 -14.774 -24.002  0.00  0.00    +0.040 C 
BRANCH  23  24
ATOM     24  C   UNL     1      34.743 -16.041 -24.876  0.00  0.00    +0.091 C 
BRANCH  24  25
ATOM     25  N   UNL     1      34.932 -17.277 -24.097  0.00  0.00    -0.246 NA
ATOM     26  N   UNL     1      34.986 -19.403 -23.457  0.00  0.00    -0.251 NA
ATOM     27  C   UNL     1      35.425 -17.373 -22.820  0.00  0.00    +0.125 C 
ATOM     28  C   UNL     1      34.678 -18.516 -24.452  0.00  0.00    +0.201 C 
ATOM     29  C   UNL     1      35.468 -18.682 -22.401  0.00  0.00    +0.124 C 
BRANCH  29  32
ATOM     30  O   UNL     1      35.246 -20.055 -20.489  0.00  0.00    -0.269 OA
ATOM     31  N   UNL     1      37.156 -18.824 -20.671  0.00  0.00    -0.324 N 
ATOM     32  C   UNL     1      35.906 -19.224 -21.159  0.00  0.00    +0.257 C 
ATOM     33  H   UNL     1      37.488 -19.181 -19.815  0.00  0.00    +0.145 HD
ATOM     34  H   UNL     1      37.703 -18.185 -21.183  0.00  0.00    +0.145 HD
ENDBRANCH  29  32
ENDBRANCH  24  25
BRANCH  24  35
ATOM     35  C   UNL     1      33.533 -16.179 -25.815  0.00  0.00    +0.153 C 
BRANCH  35  36
ATOM     36  O   UNL     1      33.698 -15.322 -26.939  0.00  0.00    -0.381 OA
ATOM     37  H   UNL     1      34.620 -15.355 -27.238  0.00  0.00    +0.210 HD
ENDBRANCH  35  36
ENDBRANCH  24  35
ENDBRANCH  23  24
ENDBRANCH  22  23
ENDBRANCH   1  22
TORSDOF 11
ENDMDL
MODEL 3
REMARK VINA RESULT:     -12.4      4.869      9.841
REMARK  Name = 448903
REMARK  11 active torsions:
REMARK  status: ('A' for Active; 'I' for Inactive)
REMARK    1  A    between atoms: N_1  and  C_22
REMARK    2  A    between atoms: C_8  and  N_11
REMARK    3  A    between atoms: C_12  and  C_14
REMARK    4  A    between atoms: C_14  and  C_15
REMARK    5  A    between atoms: C_15  and  C_16
REMARK    6  A    between atoms: C_22  and  C_23
REMARK    7  A    between atoms: C_23  and  C_24
REMARK    8  A    between atoms: C_24  and  N_25
REMARK    9  A    between atoms: C_24  and  C_35
REMARK   10  A    between atoms: C_29  and  C_32
REMARK   11  A    between atoms: C_35  and  O_36
REMARK                            x       y       z     vdW  Elec       q    Type
REMARK                         _______ _______ _______ _____ _____    ______ ____
ROOT
ATOM      1  N   UNL     1      34.722 -16.291 -23.367  0.00  0.00    -0.286 N 
ATOM      2  C   UNL     1      34.222 -15.109 -23.867  0.00  0.00    +0.053 C 
ATOM      3  C   UNL     1      33.955 -15.319 -25.223  0.00  0.00    +0.015 C 
ATOM      4  C   UNL     1      34.779 -17.236 -24.355  0.00  0.00    +0.065 C 
ATOM      5  C   UNL     1      34.311 -16.665 -25.515  0.00  0.00    +0.017 C 
ATOM      6  C   UNL     1      33.988 -13.885 -23.231  0.00  0.00    +0.029 C 
ATOM      7  C   UNL     1      33.428 -14.254 -25.982  0.00  0.00    +0.003 C 
ATOM      8  C   UNL     1      33.465 -12.844 -24.005  0.00  0.00    +0.052 C 
ATOM      9  C   UNL     1      33.188 -13.024 -25.359  0.00  0.00    +0.015 C 
ENDROOT
BRANCH   8  11
ATOM     10  O   UNL     1      31.604 -12.098 -21.764  0.00  0.00    -0.275 OA
ATOM     11  N   UNL     1      33.215 -11.607 -23.409  0.00  0.00    -0.284 N 
ATOM     12  C   UNL     1      32.343 -11.314 -22.353  0.00  0.00    +0.226 C 
ATOM     13  H   UNL     1      33.715 -10.843 -23.778  0.00  0.00    +0.155 HD
BRANCH  12  14
ATOM     14  C   UNL     1      32.350  -9.839 -21.984  0.00  0.00    +0.090 C 
BRANCH  14  15
ATOM     15  C   UNL     1      31.850  -8.967 -23.137  0.00  0.00    +0.036 C 
BRANCH  15  16
ATOM     16  C   UNL     1      32.891  -8.002 -23.651  0.00  0.00    -0.022 C 
ATOM     17  C   UNL     1      34.246  -8.290 -23.496  0.00  0.00    -0.004 C 
ATOM     18  C   UNL     1      32.496  -6.822 -24.283  0.00  0.00    -0.004 C 
ATOM     19  C   UNL     1      35.208  -7.398 -23.972  0.00  0.00    -0.000 C 
ATOM     20  C   UNL     1      33.458  -5.931 -24.759  0.00  0.00    -0.000 C 
ATOM     21  C   UNL     1      34.814  -6.219 -24.603  0.00  0.00    -0.000 C 
ENDBRANCH  15  16
ENDBRANCH  14  15
ENDBRANCH  12  14
ENDBRANCH   8  11
BRANCH   1  22
ATOM     22  C   UNL     1      35.132 -16.516 -21.998  0.00  0.00    +0.097 C 
BRANCH  22  23
ATOM     23  C   UNL     1      34.913 -17.951 -21.501  0.00  0.00    +0.040 C 
BRANCH  23  24
ATOM     24  C   UNL     1      36.202 -18.731 -21.157  0.00  0.00    +0.091 C 
BRANCH  24  25
ATOM     25  N   UNL     1      35.951 -20.016 -20.483  0.00  0.00    -0.246 NA
ATOM     26  N   UNL     1      36.204 -21.924 -19.375  0.00  0.00    -0.251 NA
ATOM     27  C   UNL     1      34.738 -20.642 -20.337  0.00  0.00    +0.125 C 
ATOM     28  C   UNL     1      36.813 -20.814 -19.893  0.00  0.00    +0.201 C 
ATOM     29  C   UNL     1      34.870 -21.827 -19.653  0.00  0.00    +0.124 C 
BRANCH  29  32
ATOM     30  O   UNL     1      33.988 -24.014 -19.481  0.00  0.00    -0.269 OA
ATOM     31  N   UNL     1      32.719 -22.312 -18.651  0.00  0.00    -0.324 N 
ATOM     32  C   UNL     1      33.876 -22.779 -19.286  0.00  0.00    +0.257 C 
ATOM     33  H   UNL     1      32.014 -22.945 -18.385  0.00  0.00    +0.145 HD
ATOM     34  H   UNL     1      32.611 -21.350 -18.471  0.00  0.00    +0.145 HD
ENDBRANCH  29  32
ENDBRANCH  24  25
BRANCH  24  35
ATOM     35  C   UNL     1      37.058 -18.944 -22.417  0.00  0.00    +0.153 C 
BRANCH  35  36
ATOM     36  O   UNL     1      38.391 -18.514 -22.170  0.00  0.00    -0.381 OA
ATOM     37  H   UNL     1      38.890 -19.232 -21.748  0.00  0.00    +0.210 HD
ENDBRANCH  35  36
ENDBRANCH  24  35
ENDBRANCH  23  24
ENDBRANCH  22  23
ENDBRANCH   1  22
TORSDOF 11
ENDMDL
MODEL 4
REMARK VINA RESULT:     -12.4      4.131      6.431
REMARK  Name = 448903
REMARK  11 active torsions:
REMARK  status: ('A' for Active; 'I' for Inactive)
REMARK    1  A    between atoms: N_1  and  C_22
REMARK    2  A    between atoms: C_8  and  N_11
REMARK    3  A    between atoms: C_12  and  C_14
REMARK    4  A    between atoms: C_14  and  C_15
REMARK    5  A    between atoms: C_15  and  C_16
REMARK    6  A    between atoms: C_22  and  C_23
REMARK    7  A    between atoms: C_23  and  C_24
REMARK    8  A    between atoms: C_24  and  N_25
REMARK    9  A    between atoms: C_24  and  C_35
REMARK   10  A    between atoms: C_29  and  C_32
REMARK   11  A    between atoms: C_35  and  O_36
REMARK                            x       y       z     vdW  Elec       q    Type
REMARK                         _______ _______ _______ _____ _____    ______ ____
ROOT
ATOM      1  N   UNL     1      36.429 -23.171 -16.049  0.00  0.00    -0.286 N 
ATOM      2  C   UNL     1      35.849 -22.647 -17.183  0.00  0.00    +0.053 C 
ATOM      3  C   UNL     1      34.523 -23.087 -17.204  0.00  0.00    +0.015 C 
ATOM      4  C   UNL     1      35.520 -23.923 -15.356  0.00  0.00    +0.065 C 
ATOM      5  C   UNL     1      34.330 -23.890 -16.045  0.00  0.00    +0.017 C 
ATOM      6  C   UNL     1      36.389 -21.827 -18.179  0.00  0.00    +0.029 C 
ATOM      7  C   UNL     1      33.694 -22.690 -18.273  0.00  0.00    +0.003 C 
ATOM      8  C   UNL     1      35.548 -21.445 -19.229  0.00  0.00    +0.052 C 
ATOM      9  C   UNL     1      34.221 -21.869 -19.276  0.00  0.00    +0.015 C 
ENDROOT
BRANCH   8  11
ATOM     10  O   UNL     1      34.123 -19.586 -21.114  0.00  0.00    -0.275 OA
ATOM     11  N   UNL     1      36.047 -20.626 -20.243  0.00  0.00    -0.284 N 
ATOM     12  C   UNL     1      35.338 -19.764 -21.088  0.00  0.00    +0.226 C 
ATOM     13  H   UNL     1      37.021 -20.659 -20.382  0.00  0.00    +0.155 HD
BRANCH  12  14
ATOM     14  C   UNL     1      36.242 -19.037 -22.071  0.00  0.00    +0.090 C 
BRANCH  14  15
ATOM     15  C   UNL     1      35.639 -19.006 -23.476  0.00  0.00    +0.036 C 
BRANCH  15  16
ATOM     16  C   UNL     1      35.093 -17.654 -23.864  0.00  0.00    -0.022 C 
ATOM     17  C   UNL     1      35.148 -16.594 -22.959  0.00  0.00    -0.004 C 
ATOM     18  C   UNL     1      34.534 -17.463 -25.128  0.00  0.00    -0.004 C 
ATOM     19  C   UNL     1      34.644 -15.344 -23.317  0.00  0.00    -0.000 C 
ATOM     20  C   UNL     1      34.029 -16.213 -25.486  0.00  0.00    -0.000 C 
ATOM     21  C   UNL     1      34.084 -15.153 -24.580  0.00  0.00    -0.000 C 
ENDBRANCH  15  16
ENDBRANCH  14  15
ENDBRANCH  12  14
ENDBRANCH   8  11
BRANCH   1  22
ATOM     22  C   UNL     1      37.801 -22.965 -15.637  0.00  0.00    +0.097 C 
BRANCH  22  23
ATOM     23  C   UNL     1      38.706 -24.191 -15.818  0.00  0.00    +0.040 C 
BRANCH  23  24
ATOM     24  C   UNL     1      39.341 -24.737 -14.519  0.00  0.00    +0.091 C 
BRANCH  24  25
ATOM     25  N   UNL     1      38.355 -25.069 -13.477  0.00  0.00    -0.246 NA
ATOM     26  N   UNL     1      36.894 -26.139 -12.192  0.00  0.00    -0.251 NA
ATOM     27  C   UNL     1      37.871 -24.226 -12.508  0.00  0.00    +0.125 C 
ATOM     28  C   UNL     1      37.747 -26.213 -13.258  0.00  0.00    +0.201 C 
ATOM     29  C   UNL     1      36.963 -24.867 -11.698  0.00  0.00    +0.124 C 
BRANCH  29  32
ATOM     30  O   UNL     1      35.324 -25.013 -10.001  0.00  0.00    -0.269 OA
ATOM     31  N   UNL     1      36.558 -23.099 -10.094  0.00  0.00    -0.324 N 
ATOM     32  C   UNL     1      36.231 -24.370 -10.583  0.00  0.00    +0.257 C 
ATOM     33  H   UNL     1      36.071 -22.727  -9.324  0.00  0.00    +0.145 HD
ATOM     34  H   UNL     1      37.277 -22.577 -10.521  0.00  0.00    +0.145 HD
ENDBRANCH  29  32
ENDBRANCH  24  25
BRANCH  24  35
ATOM     35  C   UNL     1      40.232 -25.954 -14.822  0.00  0.00    +0.153 C 
BRANCH  35  36
ATOM     36  O   UNL     1      40.493 -26.021 -16.219  0.00  0.00    -0.381 OA
ATOM     37  H   UNL     1      39.661 -25.928 -16.709  0.00  0.00    +0.210 HD
ENDBRANCH  35  36
ENDBRANCH  24  35
ENDBRANCH  23  24
ENDBRANCH  22  23
ENDBRANCH   1  22
TORSDOF 11
ENDMDL
MODEL 5
REMARK VINA RESULT:     -12.3      5.202     10.020
REMARK  Name = 448903
REMARK  11 active torsions:
REMARK  status: ('A' for Active; 'I' for Inactive)
REMARK    1  A    between atoms: N_1  and  C_22
REMARK    2  A    between atoms: C_8  and  N_11
REMARK    3  A    between atoms: C_12  and  C_14
REMARK    4  A    between atoms: C_14  and  C_15
REMARK    5  A    between atoms: C_15  and  C_16
REMARK    6  A    between atoms: C_22  and  C_23
REMARK    7  A    between atoms: C_23  and  C_24
REMARK    8  A    between atoms: C_24  and  N_25
REMARK    9  A    between atoms: C_24  and  C_35
REMARK   10  A    between atoms: C_29  and  C_32
REMARK   11  A    between atoms: C_35  and  O_36
REMARK                            x       y       z     vdW  Elec       q    Type
REMARK                         _______ _______ _______ _____ _____    ______ ____
ROOT
ATOM      1  N   UNL     1      34.800 -16.602 -23.519  0.00  0.00    -0.286 N 
ATOM      2  C   UNL     1      34.347 -15.482 -24.180  0.00  0.00    +0.053 C 
ATOM      3  C   UNL     1      33.893 -15.901 -25.433  0.00  0.00    +0.015 C 
ATOM      4  C   UNL     1      34.648 -17.710 -24.308  0.00  0.00    +0.065 C 
ATOM      5  C   UNL     1      34.089 -17.309 -25.498  0.00  0.00    +0.017 C 
ATOM      6  C   UNL     1      34.305 -14.145 -23.770  0.00  0.00    +0.029 C 
ATOM      7  C   UNL     1      33.371 -14.939 -26.321  0.00  0.00    +0.003 C 
ATOM      8  C   UNL     1      33.782 -13.209 -24.668  0.00  0.00    +0.052 C 
ATOM      9  C   UNL     1      33.322 -13.599 -25.924  0.00  0.00    +0.015 C 
ENDROOT
BRANCH   8  11
ATOM     10  O   UNL     1      32.201 -11.853 -22.500  0.00  0.00    -0.275 OA
ATOM     11  N   UNL     1      33.721 -11.865 -24.297  0.00  0.00    -0.284 N 
ATOM     12  C   UNL     1      32.974 -11.284 -23.265  0.00  0.00    +0.226 C 
ATOM     13  H   UNL     1      34.272 -11.246 -24.829  0.00  0.00    +0.155 HD
BRANCH  12  14
ATOM     14  C   UNL     1      33.174  -9.779 -23.176  0.00  0.00    +0.090 C 
BRANCH  14  15
ATOM     15  C   UNL     1      32.153  -9.128 -22.242  0.00  0.00    +0.036 C 
BRANCH  15  16
ATOM     16  C   UNL     1      31.860  -7.688 -22.586  0.00  0.00    -0.022 C 
ATOM     17  C   UNL     1      31.829  -7.282 -23.920  0.00  0.00    -0.004 C 
ATOM     18  C   UNL     1      31.620  -6.763 -21.570  0.00  0.00    -0.004 C 
ATOM     19  C   UNL     1      31.559  -5.951 -24.238  0.00  0.00    -0.000 C 
ATOM     20  C   UNL     1      31.350  -5.432 -21.888  0.00  0.00    -0.000 C 
ATOM     21  C   UNL     1      31.319  -5.026 -23.222  0.00  0.00    -0.000 C 
ENDBRANCH  15  16
ENDBRANCH  14  15
ENDBRANCH  12  14
ENDBRANCH   8  11
BRANCH   1  22
ATOM     22  C   UNL     1      35.360 -16.621 -22.184  0.00  0.00    +0.097 C 
BRANCH  22  23
ATOM     23  C   UNL     1      35.084 -17.912 -21.402  0.00  0.00    +0.040 C 
BRANCH  23  24
ATOM     24  C   UNL     1      36.331 -18.772 -21.095  0.00  0.00    +0.091 C 
BRANCH  24  25
ATOM     25  N   UNL     1      36.019 -20.039 -20.413  0.00  0.00    -0.246 NA
ATOM     26  N   UNL     1      36.171 -21.921 -19.244  0.00  0.00    -0.251 NA
ATOM     27  C   UNL     1      34.793 -20.654 -20.346  0.00  0.00    +0.125 C 
ATOM     28  C   UNL     1      36.826 -20.827 -19.739  0.00  0.00    +0.201 C 
ATOM     29  C   UNL     1      34.863 -21.823 -19.626  0.00  0.00    +0.124 C 
BRANCH  29  32
ATOM     30  O   UNL     1      33.926 -23.992 -19.537  0.00  0.00    -0.269 OA
ATOM     31  N   UNL     1      32.670 -22.281 -18.707  0.00  0.00    -0.324 N 
ATOM     32  C   UNL     1      33.836 -22.761 -19.315  0.00  0.00    +0.257 C 
ATOM     33  H   UNL     1      31.942 -22.904 -18.479  0.00  0.00    +0.145 HD
ATOM     34  H   UNL     1      32.577 -21.322 -18.506  0.00  0.00    +0.145 HD
ENDBRANCH  29  32
ENDBRANCH  24  25
BRANCH  24  35
ATOM     35  C   UNL     1      37.134 -19.038 -22.379  0.00  0.00    +0.153 C 
BRANCH  35  36
ATOM     36  O   UNL     1      38.462 -18.550 -22.223  0.00  0.00    -0.381 OA
ATOM     37  H   UNL     1      38.436 -17.632 -21.913  0.00  0.00    +0.210 HD
ENDBRANCH  35  36
ENDBRANCH  24  35
ENDBRANCH  23  24
ENDBRANCH  22  23
ENDBRANCH   1  22
TORSDOF 11
ENDMDL
MODEL 6
REMARK VINA RESULT:     -12.2      7.018     12.340
REMARK  Name = 448903
REMARK  11 active torsions:
REMARK  status: ('A' for Active; 'I' for Inactive)
REMARK    1  A    between atoms: N_1  and  C_22
REMARK    2  A    between atoms: C_8  and  N_11
REMARK    3  A    between atoms: C_12  and  C_14
REMARK    4  A    between atoms: C_14  and  C_15
REMARK    5  A    between atoms: C_15  and  C_16
REMARK    6  A    between atoms: C_22  and  C_23
REMARK    7  A    between atoms: C_23  and  C_24
REMARK    8  A    between atoms: C_24  and  N_25
REMARK    9  A    between atoms: C_24  and  C_35
REMARK   10  A    between atoms: C_29  and  C_32
REMARK   11  A    between atoms: C_35  and  O_36
REMARK                            x       y       z     vdW  Elec       q    Type
REMARK                         _______ _______ _______ _____ _____    ______ ____
ROOT
ATOM      1  N   UNL     1      33.102 -13.315 -22.816  0.00  0.00    -0.286 N 
ATOM      2  C   UNL     1      32.745 -12.013 -22.548  0.00  0.00    +0.053 C 
ATOM      3  C   UNL     1      32.090 -12.012 -21.314  0.00  0.00    +0.015 C 
ATOM      4  C   UNL     1      32.698 -14.135 -21.797  0.00  0.00    +0.065 C 
ATOM      5  C   UNL     1      32.069 -13.358 -20.852  0.00  0.00    +0.017 C 
ATOM      6  C   UNL     1      32.949 -10.848 -23.296  0.00  0.00    +0.029 C 
ATOM      7  C   UNL     1      31.615 -10.789 -20.799  0.00  0.00    +0.003 C 
ATOM      8  C   UNL     1      32.469  -9.646 -22.764  0.00  0.00    +0.052 C 
ATOM      9  C   UNL     1      31.813  -9.616 -21.535  0.00  0.00    +0.015 C 
ENDROOT
BRANCH   8  11
ATOM     10  O   UNL     1      34.716  -7.651 -22.685  0.00  0.00    -0.275 OA
ATOM     11  N   UNL     1      32.653  -8.461 -23.477  0.00  0.00    -0.284 N 
ATOM     12  C   UNL     1      33.731  -7.569 -23.412  0.00  0.00    +0.226 C 
ATOM     13  H   UNL     1      31.934  -8.220 -24.105  0.00  0.00    +0.155 HD
BRANCH  12  14
ATOM     14  C   UNL     1      33.564  -6.383 -24.349  0.00  0.00    +0.090 C 
BRANCH  14  15
ATOM     15  C   UNL     1      34.866  -6.055 -25.082  0.00  0.00    +0.036 C 
BRANCH  15  16
ATOM     16  C   UNL     1      34.654  -5.276 -26.358  0.00  0.00    -0.022 C 
ATOM     17  C   UNL     1      35.749  -4.897 -27.133  0.00  0.00    -0.004 C 
ATOM     18  C   UNL     1      33.363  -4.936 -26.761  0.00  0.00    -0.004 C 
ATOM     19  C   UNL     1      35.554  -4.177 -28.312  0.00  0.00    -0.000 C 
ATOM     20  C   UNL     1      33.167  -4.215 -27.939  0.00  0.00    -0.000 C 
ATOM     21  C   UNL     1      34.263  -3.836 -28.715  0.00  0.00    -0.000 C 
ENDBRANCH  15  16
ENDBRANCH  14  15
ENDBRANCH  12  14
ENDBRANCH   8  11
BRANCH   1  22
ATOM     22  C   UNL     1      33.802 -13.769 -23.998  0.00  0.00    +0.097 C 
BRANCH  22  23
ATOM     23  C   UNL     1      34.846 -14.863 -23.734  0.00  0.00    +0.040 C 
BRANCH  23  24
ATOM     24  C   UNL     1      34.784 -16.073 -24.693  0.00  0.00    +0.091 C 
BRANCH  24  25
ATOM     25  N   UNL     1      34.935 -17.371 -24.013  0.00  0.00    -0.246 NA
ATOM     26  N   UNL     1      34.949 -19.543 -23.551  0.00  0.00    -0.251 NA
ATOM     27  C   UNL     1      35.376 -17.577 -22.730  0.00  0.00    +0.125 C 
ATOM     28  C   UNL     1      34.686 -18.574 -24.480  0.00  0.00    +0.201 C 
ATOM     29  C   UNL     1      35.394 -18.917 -22.420  0.00  0.00    +0.124 C 
BRANCH  29  32
ATOM     30  O   UNL     1      35.157 -20.531 -20.709  0.00  0.00    -0.269 OA
ATOM     31  N   UNL     1      36.933 -19.111 -20.561  0.00  0.00    -0.324 N 
ATOM     32  C   UNL     1      35.780 -19.565 -21.212  0.00  0.00    +0.257 C 
ATOM     33  H   UNL     1      37.227 -19.538 -19.724  0.00  0.00    +0.145 HD
ATOM     34  H   UNL     1      37.452 -18.365 -20.941  0.00  0.00    +0.145 HD
ENDBRANCH  29  32
ENDBRANCH  24  25
BRANCH  24  35
ATOM     35  C   UNL     1      33.486 -16.046 -25.516  0.00  0.00    +0.153 C 
BRANCH  35  36
ATOM     36  O   UNL     1      33.751 -15.522 -26.813  0.00  0.00    -0.381 OA
ATOM     37  H   UNL     1      34.629 -15.812 -27.105  0.00  0.00    +0.210 HD
ENDBRANCH  35  36
ENDBRANCH  24  35
ENDBRANCH  23  24
ENDBRANCH  22  23
ENDBRANCH   1  22
TORSDOF 11
ENDMDL
MODEL 7
REMARK VINA RESULT:     -12.2      1.694      2.730
REMARK  Name = 448903
REMARK  11 active torsions:
REMARK  status: ('A' for Active; 'I' for Inactive)
REMARK    1  A    between atoms: N_1  and  C_22
REMARK    2  A    between atoms: C_8  and  N_11
REMARK    3  A    between atoms: C_12  and  C_14
REMARK    4  A    between atoms: C_14  and  C_15
REMARK    5  A    between atoms: C_15  and  C_16
REMARK    6  A    between atoms: C_22  and  C_23
REMARK    7  A    between atoms: C_23  and  C_24
REMARK    8  A    between atoms: C_24  and  N_25
REMARK    9  A    between atoms: C_24  and  C_35
REMARK   10  A    between atoms: C_29  and  C_32
REMARK   11  A    between atoms: C_35  and  O_36
REMARK                            x       y       z     vdW  Elec       q    Type
REMARK                         _______ _______ _______ _____ _____    ______ ____
ROOT
ATOM      1  N   UNL     1      34.640 -21.990 -18.774  0.00  0.00    -0.286 N 
ATOM      2  C   UNL     1      35.132 -21.118 -19.719  0.00  0.00    +0.053 C 
ATOM      3  C   UNL     1      36.488 -20.934 -19.440  0.00  0.00    +0.015 C 
ATOM      4  C   UNL     1      35.635 -22.364 -17.912  0.00  0.00    +0.065 C 
ATOM      5  C   UNL     1      36.791 -21.727 -18.298  0.00  0.00    +0.017 C 
ATOM      6  C   UNL     1      34.487 -20.484 -20.787  0.00  0.00    +0.029 C 
ATOM      7  C   UNL     1      37.240 -20.075 -20.268  0.00  0.00    +0.003 C 
ATOM      8  C   UNL     1      35.253 -19.637 -21.594  0.00  0.00    +0.052 C 
ATOM      9  C   UNL     1      36.608 -19.435 -21.340  0.00  0.00    +0.015 C 
ENDROOT
BRANCH   8  11
ATOM     10  O   UNL     1      35.324 -20.254 -24.536  0.00  0.00    -0.275 OA
ATOM     11  N   UNL     1      34.649 -18.986 -22.671  0.00  0.00    -0.284 N 
ATOM     12  C   UNL     1      34.703 -19.325 -24.029  0.00  0.00    +0.226 C 
ATOM     13  H   UNL     1      34.117 -18.188 -22.448  0.00  0.00    +0.155 HD
BRANCH  12  14
ATOM     14  C   UNL     1      33.909 -18.365 -24.901  0.00  0.00    +0.090 C 
BRANCH  14  15
ATOM     15  C   UNL     1      34.786 -17.233 -25.437  0.00  0.00    +0.036 C 
BRANCH  15  16
ATOM     16  C   UNL     1      34.411 -15.876 -24.892  0.00  0.00    -0.022 C 
ATOM     17  C   UNL     1      33.578 -15.034 -25.628  0.00  0.00    -0.004 C 
ATOM     18  C   UNL     1      34.898 -15.465 -23.651  0.00  0.00    -0.004 C 
ATOM     19  C   UNL     1      33.232 -13.780 -25.124  0.00  0.00    -0.000 C 
ATOM     20  C   UNL     1      34.552 -14.211 -23.147  0.00  0.00    -0.000 C 
ATOM     21  C   UNL     1      33.719 -13.368 -23.884  0.00  0.00    -0.000 C 
ENDBRANCH  15  16
ENDBRANCH  14  15
ENDBRANCH  12  14
ENDBRANCH   8  11
BRANCH   1  22
ATOM     22  C   UNL     1      33.272 -22.455 -18.691  0.00  0.00    +0.097 C 
BRANCH  22  23
ATOM     23  C   UNL     1      33.046 -23.574 -17.665  0.00  0.00    +0.040 C 
BRANCH  23  24
ATOM     24  C   UNL     1      32.426 -23.120 -16.324  0.00  0.00    +0.091 C 
BRANCH  24  25
ATOM     25  N   UNL     1      30.986 -23.409 -16.214  0.00  0.00    -0.246 NA
ATOM     26  N   UNL     1      29.038 -24.394 -15.809  0.00  0.00    -0.251 NA
ATOM     27  C   UNL     1      29.954 -22.579 -16.572  0.00  0.00    +0.125 C 
ATOM     28  C   UNL     1      30.401 -24.493 -15.758  0.00  0.00    +0.201 C 
ATOM     29  C   UNL     1      28.735 -23.168 -16.331  0.00  0.00    +0.124 C 
BRANCH  29  32
ATOM     30  O   UNL     1      26.576 -22.497 -15.641  0.00  0.00    -0.269 OA
ATOM     31  N   UNL     1      27.064 -22.312 -17.860  0.00  0.00    -0.324 N 
ATOM     32  C   UNL     1      27.422 -22.663 -16.553  0.00  0.00    +0.257 C 
ATOM     33  H   UNL     1      26.164 -21.959 -18.046  0.00  0.00    +0.145 HD
ATOM     34  H   UNL     1      27.713 -22.416 -18.593  0.00  0.00    +0.145 HD
ENDBRANCH  29  32
ENDBRANCH  24  25
BRANCH  24  35
ATOM     35  C   UNL     1      33.190 -23.734 -15.140  0.00  0.00    +0.153 C 
BRANCH  35  36
ATOM     36  O   UNL     1      34.214 -22.842 -14.715  0.00  0.00    -0.381 OA
ATOM     37  H   UNL     1      34.613 -22.415 -15.489  0.00  0.00    +0.210 HD
ENDBRANCH  35  36
ENDBRANCH  24  35
ENDBRANCH  23  24
ENDBRANCH  22  23
ENDBRANCH   1  22
TORSDOF 11
ENDMDL
MODEL 8
REMARK VINA RESULT:     -12.2      6.523     12.184
REMARK  Name = 448903
REMARK  11 active torsions:
REMARK  status: ('A' for Active; 'I' for Inactive)
REMARK    1  A    between atoms: N_1  and  C_22
REMARK    2  A    between atoms: C_8  and  N_11
REMARK    3  A    between atoms: C_12  and  C_14
REMARK    4  A    between atoms: C_14  and  C_15
REMARK    5  A    between atoms: C_15  and  C_16
REMARK    6  A    between atoms: C_22  and  C_23
REMARK    7  A    between atoms: C_23  and  C_24
REMARK    8  A    between atoms: C_24  and  N_25
REMARK    9  A    between atoms: C_24  and  C_35
REMARK   10  A    between atoms: C_29  and  C_32
REMARK   11  A    between atoms: C_35  and  O_36
REMARK                            x       y       z     vdW  Elec       q    Type
REMARK                         _______ _______ _______ _____ _____    ______ ____
ROOT
ATOM      1  N   UNL     1      33.925 -13.585 -24.539  0.00  0.00    -0.286 N 
ATOM      2  C   UNL     1      34.233 -14.906 -24.301  0.00  0.00    +0.053 C 
ATOM      3  C   UNL     1      33.914 -15.616 -25.461  0.00  0.00    +0.015 C 
ATOM      4  C   UNL     1      33.425 -13.436 -25.804  0.00  0.00    +0.065 C 
ATOM      5  C   UNL     1      33.406 -14.675 -26.400  0.00  0.00    +0.017 C 
ATOM      6  C   UNL     1      34.764 -15.519 -23.161  0.00  0.00    +0.029 C 
ATOM      7  C   UNL     1      34.135 -17.008 -25.486  0.00  0.00    +0.003 C 
ATOM      8  C   UNL     1      34.975 -16.901 -23.210  0.00  0.00    +0.052 C 
ATOM      9  C   UNL     1      34.667 -17.635 -24.354  0.00  0.00    +0.015 C 
ENDROOT
BRANCH   8  11
ATOM     10  O   UNL     1      37.398 -18.661 -22.947  0.00  0.00    -0.275 OA
ATOM     11  N   UNL     1      35.505 -17.552 -22.095  0.00  0.00    -0.284 N 
ATOM     12  C   UNL     1      36.651 -18.354 -22.023  0.00  0.00    +0.226 C 
ATOM     13  H   UNL     1      35.010 -17.433 -21.252  0.00  0.00    +0.155 HD
BRANCH  12  14
ATOM     14  C   UNL     1      36.901 -18.888 -20.622  0.00  0.00    +0.090 C 
BRANCH  14  15
ATOM     15  C   UNL     1      36.854 -20.416 -20.583  0.00  0.00    +0.036 C 
BRANCH  15  16
ATOM     16  C   UNL     1      35.553 -20.962 -20.045  0.00  0.00    -0.022 C 
ATOM     17  C   UNL     1      35.564 -21.954 -19.066  0.00  0.00    -0.004 C 
ATOM     18  C   UNL     1      34.339 -20.472 -20.528  0.00  0.00    -0.004 C 
ATOM     19  C   UNL     1      34.362 -22.458 -18.569  0.00  0.00    -0.000 C 
ATOM     20  C   UNL     1      33.137 -20.976 -20.031  0.00  0.00    -0.000 C 
ATOM     21  C   UNL     1      33.148 -21.969 -19.051  0.00  0.00    -0.000 C 
ENDBRANCH  15  16
ENDBRANCH  14  15
ENDBRANCH  12  14
ENDBRANCH   8  11
BRANCH   1  22
ATOM     22  C   UNL     1      34.098 -12.499 -23.597  0.00  0.00    +0.097 C 
BRANCH  22  23
ATOM     23  C   UNL     1      33.019 -11.411 -23.682  0.00  0.00    +0.040 C 
BRANCH  23  24
ATOM     24  C   UNL     1      32.740 -10.659 -22.361  0.00  0.00    +0.091 C 
BRANCH  24  25
ATOM     25  N   UNL     1      32.234  -9.291 -22.558  0.00  0.00    -0.246 NA
ATOM     26  N   UNL     1      31.425  -7.429 -23.459  0.00  0.00    -0.251 NA
ATOM     27  C   UNL     1      32.082  -8.326 -21.593  0.00  0.00    +0.125 C 
ATOM     28  C   UNL     1      31.829  -8.719 -23.670  0.00  0.00    +0.201 C 
ATOM     29  C   UNL     1      31.582  -7.162 -22.129  0.00  0.00    +0.124 C 
BRANCH  29  32
ATOM     30  O   UNL     1      30.289  -5.212 -21.790  0.00  0.00    -0.269 OA
ATOM     31  N   UNL     1      32.112  -5.498 -20.451  0.00  0.00    -0.324 N 
ATOM     32  C   UNL     1      31.276  -5.927 -21.490  0.00  0.00    +0.257 C 
ATOM     33  H   UNL     1      31.926  -4.648 -19.989  0.00  0.00    +0.145 HD
ATOM     34  H   UNL     1      32.885  -6.046 -20.183  0.00  0.00    +0.145 HD
ENDBRANCH  29  32
ENDBRANCH  24  25
BRANCH  24  35
ATOM     35  C   UNL     1      31.777 -11.465 -21.472  0.00  0.00    +0.153 C 
BRANCH  35  36
ATOM     36  O   UNL     1      30.460 -11.394 -22.006  0.00  0.00    -0.381 OA
ATOM     37  H   UNL     1      30.372 -10.592 -22.544  0.00  0.00    +0.210 HD
ENDBRANCH  35  36
ENDBRANCH  24  35
ENDBRANCH  23  24
ENDBRANCH  22  23
ENDBRANCH   1  22
TORSDOF 11
ENDMDL
MODEL 9
REMARK VINA RESULT:     -12.1      3.578      7.306
REMARK  Name = 448903
REMARK  11 active torsions:
REMARK  status: ('A' for Active; 'I' for Inactive)
REMARK    1  A    between atoms: N_1  and  C_22
REMARK    2  A    between atoms: C_8  and  N_11
REMARK    3  A    between atoms: C_12  and  C_14
REMARK    4  A    between atoms: C_14  and  C_15
REMARK    5  A    between atoms: C_15  and  C_16
REMARK    6  A    between atoms: C_22  and  C_23
REMARK    7  A    between atoms: C_23  and  C_24
REMARK    8  A    between atoms: C_24  and  N_25
REMARK    9  A    between atoms: C_24  and  C_35
REMARK   10  A    between atoms: C_29  and  C_32
REMARK   11  A    between atoms: C_35  and  O_36
REMARK                            x       y       z     vdW  Elec       q    Type
REMARK                         _______ _______ _______ _____ _____    ______ ____
ROOT
ATOM      1  N   UNL     1      32.923 -24.602 -14.360  0.00  0.00    -0.286 N 
ATOM      2  C   UNL     1      32.234 -23.940 -15.352  0.00  0.00    +0.053 C 
ATOM      3  C   UNL     1      30.874 -24.073 -15.064  0.00  0.00    +0.015 C 
ATOM      4  C   UNL     1      32.048 -25.145 -13.458  0.00  0.00    +0.065 C 
ATOM      5  C   UNL     1      30.772 -24.834 -13.866  0.00  0.00    +0.017 C 
ATOM      6  C   UNL     1      32.706 -23.243 -16.469  0.00  0.00    +0.029 C 
ATOM      7  C   UNL     1      29.936 -23.480 -15.934  0.00  0.00    +0.003 C 
ATOM      8  C   UNL     1      31.757 -22.663 -17.317  0.00  0.00    +0.052 C 
ATOM      9  C   UNL     1      30.393 -22.779 -17.055  0.00  0.00    +0.015 C 
ENDROOT
BRANCH   8  11
ATOM     10  O   UNL     1      34.399 -22.695 -18.751  0.00  0.00    -0.275 OA
ATOM     11  N   UNL     1      32.185 -21.957 -18.442  0.00  0.00    -0.284 N 
ATOM     12  C   UNL     1      33.429 -22.019 -19.082  0.00  0.00    +0.226 C 
ATOM     13  H   UNL     1      31.530 -21.336 -18.836  0.00  0.00    +0.155 HD
BRANCH  12  14
ATOM     14  C   UNL     1      33.513 -21.091 -20.284  0.00  0.00    +0.090 C 
BRANCH  14  15
ATOM     15  C   UNL     1      34.930 -20.549 -20.481  0.00  0.00    +0.036 C 
BRANCH  15  16
ATOM     16  C   UNL     1      35.017 -19.474 -21.537  0.00  0.00    -0.022 C 
ATOM     17  C   UNL     1      34.897 -19.808 -22.885  0.00  0.00    -0.004 C 
ATOM     18  C   UNL     1      35.218 -18.145 -21.162  0.00  0.00    -0.004 C 
ATOM     19  C   UNL     1      34.978 -18.814 -23.860  0.00  0.00    -0.000 C 
ATOM     20  C   UNL     1      35.299 -17.151 -22.138  0.00  0.00    -0.000 C 
ATOM     21  C   UNL     1      35.179 -17.485 -23.487  0.00  0.00    -0.000 C 
ENDBRANCH  15  16
ENDBRANCH  14  15
ENDBRANCH  12  14
ENDBRANCH   8  11
BRANCH   1  22
ATOM     22  C   UNL     1      34.363 -24.716 -14.270  0.00  0.00    +0.097 C 
BRANCH  22  23
ATOM     23  C   UNL     1      34.982 -23.978 -13.076  0.00  0.00    +0.040 C 
BRANCH  23  24
ATOM     24  C   UNL     1      35.923 -24.829 -12.193  0.00  0.00    +0.091 C 
BRANCH  24  25
ATOM     25  N   UNL     1      37.327 -24.805 -12.636  0.00  0.00    -0.246 NA
ATOM     26  N   UNL     1      39.490 -24.341 -12.832  0.00  0.00    -0.251 NA
ATOM     27  C   UNL     1      37.878 -25.545 -13.652  0.00  0.00    +0.125 C 
ATOM     28  C   UNL     1      38.324 -24.092 -12.162  0.00  0.00    +0.201 C 
ATOM     29  C   UNL     1      39.219 -25.274 -13.793  0.00  0.00    +0.124 C 
BRANCH  29  32
ATOM     30  O   UNL     1      41.005 -26.693 -14.413  0.00  0.00    -0.269 OA
ATOM     31  N   UNL     1      40.132 -25.351 -16.035  0.00  0.00    -0.324 N 
ATOM     32  C   UNL     1      40.163 -25.813 -14.713  0.00  0.00    +0.257 C 
ATOM     33  H   UNL     1      40.771 -25.704 -16.695  0.00  0.00    +0.145 HD
ATOM     34  H   UNL     1      39.471 -24.672 -16.304  0.00  0.00    +0.145 HD
ENDBRANCH  29  32
ENDBRANCH  24  25
BRANCH  24  35
ATOM     35  C   UNL     1      35.817 -24.400 -10.720  0.00  0.00    +0.153 C 
BRANCH  35  36
ATOM     36  O   UNL     1      35.388 -25.503  -9.929  0.00  0.00    -0.381 OA
ATOM     37  H   UNL     1      35.130 -26.236 -10.510  0.00  0.00    +0.210 HD
ENDBRANCH  35  36
ENDBRANCH  24  35
ENDBRANCH  23  24
ENDBRANCH  22  23
ENDBRANCH   1  22
TORSDOF 11
ENDMDL
