MODEL 1
REMARK VINA RESULT:     -13.7      0.000      0.000
REMARK  Name = 25023705
REMARK  6 active torsions:
REMARK  status: ('A' for Active; 'I' for Inactive)
REMARK    1  A    between atoms: C_1  and  C_8
REMARK    2  A    between atoms: C_1  and  C_20
REMARK    3  A    between atoms: C_20  and  N_22
REMARK    4  A    between atoms: C_23  and  C_25
REMARK    5  A    between atoms: C_30  and  O_31
REMARK    6  A    between atoms: O_31  and  C_32
REMARK                            x       y       z     vdW  Elec       q    Type
REMARK                         _______ _______ _______ _____ _____    ______ ____
ROOT
ATOM      1  C   UNL     1      32.649 -23.899 -15.230  0.00  0.00    +0.066 C 
ATOM      2  C   UNL     1      32.144 -22.443 -15.084  0.00  0.00    +0.009 C 
ATOM      3  C   UNL     1      31.549 -24.807 -14.627  0.00  0.00    +0.009 C 
ENDROOT
BRANCH   1   8
ATOM      4  N   UNL     1      35.084 -24.259 -15.321  0.00  0.00    -0.347 NA
ATOM      5  N   UNL     1      37.363 -24.609 -15.538  0.00  0.00    -0.266 NA
ATOM      6  N   UNL     1      38.823 -24.619 -13.624  0.00  0.00    -0.316 NA
ATOM      7  N   UNL     1      39.671 -24.965 -15.779  0.00  0.00    -0.283 N 
ATOM      8  C   UNL     1      34.014 -24.021 -14.525  0.00  0.00    +0.122 C 
ATOM      9  C   UNL     1      34.082 -23.887 -13.155  0.00  0.00    +0.026 C 
ATOM     10  C   UNL     1      35.331 -24.005 -12.571  0.00  0.00    +0.001 C 
ATOM     11  C   UNL     1      36.297 -24.374 -14.763  0.00  0.00    +0.137 C 
ATOM     12  C   UNL     1      36.451 -24.251 -13.378  0.00  0.00    +0.199 C 
ATOM     13  C   UNL     1      37.740 -24.383 -12.865  0.00  0.00    +0.187 C 
ATOM     14  C   UNL     1      38.565 -24.719 -14.935  0.00  0.00    +0.207 C 
ATOM     15  H   UNL     1      39.539 -25.049 -16.751  0.00  0.00    +0.156 HD
ATOM     16  H   UNL     1      40.573 -25.055 -15.394  0.00  0.00    +0.156 HD
ATOM     17  N   UNL     1      37.948 -24.266 -11.468  0.00  0.00    -0.334 N 
ATOM     18  H   UNL     1      38.856 -24.358 -11.097  0.00  0.00    +0.144 HD
ATOM     19  H   UNL     1      37.186 -24.094 -10.869  0.00  0.00    +0.144 HD
ENDBRANCH   1   8
BRANCH   1  20
ATOM     20  C   UNL     1      32.778 -24.219 -16.746  0.00  0.00    +0.096 C 
BRANCH  20  22
ATOM     21  O   UNL     1      33.781 -24.372 -19.431  0.00  0.00    -0.270 OA
ATOM     22  N   UNL     1      33.314 -23.134 -17.526  0.00  0.00    -0.300 N 
ATOM     23  C   UNL     1      33.779 -23.304 -18.824  0.00  0.00    +0.246 C 
ATOM     24  H   UNL     1      33.354 -22.236 -17.124  0.00  0.00    +0.150 HD
BRANCH  23  25
ATOM     25  C   UNL     1      34.327 -22.091 -19.484  0.00  0.00    +0.054 C 
ATOM     26  C   UNL     1      35.706 -21.903 -19.563  0.00  0.00    +0.008 C 
ATOM     27  C   UNL     1      33.460 -21.141 -20.025  0.00  0.00    +0.008 C 
ATOM     28  C   UNL     1      36.220 -20.764 -20.182  0.00  0.00    +0.038 C 
ATOM     29  C   UNL     1      33.974 -20.002 -20.644  0.00  0.00    +0.038 C 
ATOM     30  C   UNL     1      35.354 -19.813 -20.722  0.00  0.00    +0.145 C 
BRANCH  30  31
ATOM     31  O   UNL     1      35.855 -18.700 -21.324  0.00  0.00    -0.453 OA
BRANCH  31  32
ATOM     32  C   UNL     1      35.407 -18.401 -22.600  0.00  0.00    +0.145 C 
ATOM     33  C   UNL     1      35.261 -17.071 -22.993  0.00  0.00    +0.037 C 
ATOM     34  C   UNL     1      35.099 -19.430 -23.490  0.00  0.00    +0.037 C 
ATOM     35  C   UNL     1      34.808 -16.768 -24.277  0.00  0.00    +0.003 C 
ATOM     36  C   UNL     1      34.646 -19.127 -24.775  0.00  0.00    +0.003 C 
ATOM     37  C   UNL     1      34.500 -17.797 -25.168  0.00  0.00    +0.000 C 
ENDBRANCH  31  32
ENDBRANCH  30  31
ENDBRANCH  23  25
ENDBRANCH  20  22
ENDBRANCH   1  20
TORSDOF 6
ENDMDL
MODEL 2
REMARK VINA RESULT:     -13.2      5.006      8.204
REMARK  Name = 25023705
REMARK  6 active torsions:
REMARK  status: ('A' for Active; 'I' for Inactive)
REMARK    1  A    between atoms: C_1  and  C_8
REMARK    2  A    between atoms: C_1  and  C_20
REMARK    3  A    between atoms: C_20  and  N_22
REMARK    4  A    between atoms: C_23  and  C_25
REMARK    5  A    between atoms: C_30  and  O_31
REMARK    6  A    between atoms: O_31  and  C_32
REMARK                            x       y       z     vdW  Elec       q    Type
REMARK                         _______ _______ _______ _____ _____    ______ ____
ROOT
ATOM      1  C   UNL     1      35.381 -18.991 -22.165  0.00  0.00    +0.066 C 
ATOM      2  C   UNL     1      34.067 -18.648 -22.908  0.00  0.00    +0.009 C 
ATOM      3  C   UNL     1      36.358 -19.541 -23.233  0.00  0.00    +0.009 C 
ENDROOT
BRANCH   1   8
ATOM      4  N   UNL     1      36.090 -20.318 -20.214  0.00  0.00    -0.347 NA
ATOM      5  N   UNL     1      36.879 -21.513 -18.394  0.00  0.00    -0.266 NA
ATOM      6  N   UNL     1      35.442 -22.977 -17.133  0.00  0.00    -0.316 NA
ATOM      7  N   UNL     1      37.696 -22.716 -16.552  0.00  0.00    -0.283 N 
ATOM      8  C   UNL     1      35.064 -19.991 -21.036  0.00  0.00    +0.122 C 
ATOM      9  C   UNL     1      33.786 -20.494 -20.918  0.00  0.00    +0.026 C 
ATOM     10  C   UNL     1      33.554 -21.389 -19.888  0.00  0.00    +0.001 C 
ATOM     11  C   UNL     1      35.873 -21.182 -19.214  0.00  0.00    +0.137 C 
ATOM     12  C   UNL     1      34.603 -21.739 -19.026  0.00  0.00    +0.199 C 
ATOM     13  C   UNL     1      34.448 -22.631 -17.968  0.00  0.00    +0.187 C 
ATOM     14  C   UNL     1      36.616 -22.387 -17.401  0.00  0.00    +0.207 C 
ATOM     15  H   UNL     1      38.581 -22.313 -16.704  0.00  0.00    +0.156 HD
ATOM     16  H   UNL     1      37.563 -23.350 -15.810  0.00  0.00    +0.156 HD
ATOM     17  N   UNL     1      33.181 -23.222 -17.735  0.00  0.00    -0.334 N 
ATOM     18  H   UNL     1      33.062 -23.854 -16.989  0.00  0.00    +0.144 HD
ATOM     19  H   UNL     1      32.420 -23.001 -18.319  0.00  0.00    +0.144 HD
ENDBRANCH   1   8
BRANCH   1  20
ATOM     20  C   UNL     1      35.971 -17.673 -21.589  0.00  0.00    +0.096 C 
BRANCH  20  22
ATOM     21  O   UNL     1      35.625 -15.576 -23.519  0.00  0.00    -0.270 OA
ATOM     22  N   UNL     1      35.022 -16.591 -21.523  0.00  0.00    -0.300 N 
ATOM     23  C   UNL     1      34.928 -15.618 -22.510  0.00  0.00    +0.246 C 
ATOM     24  H   UNL     1      34.417 -16.539 -20.748  0.00  0.00    +0.150 HD
BRANCH  23  25
ATOM     25  C   UNL     1      33.917 -14.553 -22.280  0.00  0.00    +0.054 C 
ATOM     26  C   UNL     1      33.641 -13.626 -23.284  0.00  0.00    +0.008 C 
ATOM     27  C   UNL     1      33.245 -14.483 -21.059  0.00  0.00    +0.008 C 
ATOM     28  C   UNL     1      32.692 -12.627 -23.067  0.00  0.00    +0.038 C 
ATOM     29  C   UNL     1      32.296 -13.483 -20.843  0.00  0.00    +0.038 C 
ATOM     30  C   UNL     1      32.020 -12.555 -21.847  0.00  0.00    +0.145 C 
BRANCH  30  31
ATOM     31  O   UNL     1      31.097 -11.579 -21.634  0.00  0.00    -0.453 OA
BRANCH  31  32
ATOM     32  C   UNL     1      31.550 -10.273 -21.537  0.00  0.00    +0.145 C 
ATOM     33  C   UNL     1      31.491  -9.431 -22.647  0.00  0.00    +0.037 C 
ATOM     34  C   UNL     1      32.067  -9.802 -20.330  0.00  0.00    +0.037 C 
ATOM     35  C   UNL     1      31.948  -8.117 -22.551  0.00  0.00    +0.003 C 
ATOM     36  C   UNL     1      32.524  -8.488 -20.234  0.00  0.00    +0.003 C 
ATOM     37  C   UNL     1      32.465  -7.645 -21.344  0.00  0.00    +0.000 C 
ENDBRANCH  31  32
ENDBRANCH  30  31
ENDBRANCH  23  25
ENDBRANCH  20  22
ENDBRANCH   1  20
TORSDOF 6
ENDMDL
MODEL 3
REMARK VINA RESULT:     -12.9      4.973     11.185
REMARK  Name = 25023705
REMARK  6 active torsions:
REMARK  status: ('A' for Active; 'I' for Inactive)
REMARK    1  A    between atoms: C_1  and  C_8
REMARK    2  A    between atoms: C_1  and  C_20
REMARK    3  A    between atoms: C_20  and  N_22
REMARK    4  A    between atoms: C_23  and  C_25
REMARK    5  A    between atoms: C_30  and  O_31
REMARK    6  A    between atoms: O_31  and  C_32
REMARK                            x       y       z     vdW  Elec       q    Type
REMARK                         _______ _______ _______ _____ _____    ______ ____
ROOT
ATOM      1  C   UNL     1      35.878 -18.531 -22.009  0.00  0.00    +0.066 C 
ATOM      2  C   UNL     1      36.019 -17.769 -20.669  0.00  0.00    +0.009 C 
ATOM      3  C   UNL     1      37.306 -18.970 -22.416  0.00  0.00    +0.009 C 
ENDROOT
BRANCH   1   8
ATOM      4  N   UNL     1      35.210 -16.279 -22.753  0.00  0.00    -0.347 NA
ATOM      5  N   UNL     1      34.640 -14.114 -23.343  0.00  0.00    -0.266 NA
ATOM      6  N   UNL     1      33.431 -13.639 -25.371  0.00  0.00    -0.316 NA
ATOM      7  N   UNL     1      34.071 -11.912 -23.924  0.00  0.00    -0.283 N 
ATOM      8  C   UNL     1      35.194 -17.605 -23.034  0.00  0.00    +0.122 C 
ATOM      9  C   UNL     1      34.612 -18.152 -24.157  0.00  0.00    +0.026 C 
ATOM     10  C   UNL     1      34.011 -17.277 -25.045  0.00  0.00    +0.001 C 
ATOM     11  C   UNL     1      34.631 -15.426 -23.608  0.00  0.00    +0.137 C 
ATOM     12  C   UNL     1      34.017 -15.902 -24.773  0.00  0.00    +0.199 C 
ATOM     13  C   UNL     1      33.434 -14.960 -25.617  0.00  0.00    +0.187 C 
ATOM     14  C   UNL     1      34.044 -13.290 -24.231  0.00  0.00    +0.207 C 
ATOM     15  H   UNL     1      34.507 -11.600 -23.099  0.00  0.00    +0.156 HD
ATOM     16  H   UNL     1      33.651 -11.264 -24.536  0.00  0.00    +0.156 HD
ATOM     17  N   UNL     1      32.801 -15.391 -26.809  0.00  0.00    -0.334 N 
ATOM     18  H   UNL     1      32.385 -14.732 -27.411  0.00  0.00    +0.144 HD
ATOM     19  H   UNL     1      32.775 -16.349 -27.034  0.00  0.00    +0.144 HD
ENDBRANCH   1   8
BRANCH   1  20
ATOM     20  C   UNL     1      35.023 -19.805 -21.756  0.00  0.00    +0.096 C 
BRANCH  20  22
ATOM     21  O   UNL     1      36.381 -22.198 -20.938  0.00  0.00    -0.270 OA
ATOM     22  N   UNL     1      35.127 -20.318 -20.414  0.00  0.00    -0.300 N 
ATOM     23  C   UNL     1      35.808 -21.491 -20.113  0.00  0.00    +0.246 C 
ATOM     24  H   UNL     1      34.698 -19.819 -19.682  0.00  0.00    +0.150 HD
BRANCH  23  25
ATOM     25  C   UNL     1      35.801 -21.900 -18.685  0.00  0.00    +0.054 C 
ATOM     26  C   UNL     1      36.910 -21.644 -17.880  0.00  0.00    +0.008 C 
ATOM     27  C   UNL     1      34.683 -22.543 -18.151  0.00  0.00    +0.008 C 
ATOM     28  C   UNL     1      36.902 -22.030 -16.540  0.00  0.00    +0.038 C 
ATOM     29  C   UNL     1      34.676 -22.928 -16.810  0.00  0.00    +0.038 C 
ATOM     30  C   UNL     1      35.786 -22.672 -16.005  0.00  0.00    +0.145 C 
BRANCH  30  31
ATOM     31  O   UNL     1      35.779 -23.050 -14.698  0.00  0.00    -0.453 OA
BRANCH  31  32
ATOM     32  C   UNL     1      36.735 -23.965 -14.287  0.00  0.00    +0.145 C 
ATOM     33  C   UNL     1      37.579 -23.659 -13.221  0.00  0.00    +0.037 C 
ATOM     34  C   UNL     1      36.854 -25.191 -14.942  0.00  0.00    +0.037 C 
ATOM     35  C   UNL     1      38.543 -24.579 -12.807  0.00  0.00    +0.003 C 
ATOM     36  C   UNL     1      37.817 -26.111 -14.529  0.00  0.00    +0.003 C 
ATOM     37  C   UNL     1      38.662 -25.805 -13.462  0.00  0.00    +0.000 C 
ENDBRANCH  31  32
ENDBRANCH  30  31
ENDBRANCH  23  25
ENDBRANCH  20  22
ENDBRANCH   1  20
TORSDOF 6
ENDMDL
MODEL 4
REMARK VINA RESULT:     -12.9      4.838     10.777
REMARK  Name = 25023705
REMARK  6 active torsions:
REMARK  status: ('A' for Active; 'I' for Inactive)
REMARK    1  A    between atoms: C_1  and  C_8
REMARK    2  A    between atoms: C_1  and  C_20
REMARK    3  A    between atoms: C_20  and  N_22
REMARK    4  A    between atoms: C_23  and  C_25
REMARK    5  A    between atoms: C_30  and  O_31
REMARK    6  A    between atoms: O_31  and  C_32
REMARK                            x       y       z     vdW  Elec       q    Type
REMARK                         _______ _______ _______ _____ _____    ______ ____
ROOT
ATOM      1  C   UNL     1      35.989 -18.832 -22.013  0.00  0.00    +0.066 C 
ATOM      2  C   UNL     1      37.220 -18.682 -21.087  0.00  0.00    +0.009 C 
ATOM      3  C   UNL     1      36.525 -19.329 -23.378  0.00  0.00    +0.009 C 
ENDROOT
BRANCH   1   8
ATOM      4  N   UNL     1      34.987 -17.004 -23.325  0.00  0.00    -0.347 NA
ATOM      5  N   UNL     1      34.078 -15.351 -24.669  0.00  0.00    -0.266 NA
ATOM      6  N   UNL     1      33.037 -13.395 -23.727  0.00  0.00    -0.316 NA
ATOM      7  N   UNL     1      33.162 -13.687 -26.047  0.00  0.00    -0.283 N 
ATOM      8  C   UNL     1      35.258 -17.478 -22.085  0.00  0.00    +0.122 C 
ATOM      9  C   UNL     1      34.922 -16.828 -20.917  0.00  0.00    +0.026 C 
ATOM     10  C   UNL     1      34.267 -15.614 -21.036  0.00  0.00    +0.001 C 
ATOM     11  C   UNL     1      34.352 -15.830 -23.449  0.00  0.00    +0.137 C 
ATOM     12  C   UNL     1      33.977 -15.108 -22.311  0.00  0.00    +0.199 C 
ATOM     13  C   UNL     1      33.321 -13.895 -22.512  0.00  0.00    +0.187 C 
ATOM     14  C   UNL     1      33.438 -14.166 -24.748  0.00  0.00    +0.207 C 
ATOM     15  H   UNL     1      33.436 -14.212 -26.833  0.00  0.00    +0.156 HD
ATOM     16  H   UNL     1      32.697 -12.827 -26.165  0.00  0.00    +0.156 HD
ATOM     17  N   UNL     1      32.921 -13.126 -21.392  0.00  0.00    -0.334 N 
ATOM     18  H   UNL     1      32.457 -12.267 -21.526  0.00  0.00    +0.144 HD
ATOM     19  H   UNL     1      33.107 -13.448 -20.481  0.00  0.00    +0.144 HD
ENDBRANCH   1   8
BRANCH   1  20
ATOM     20  C   UNL     1      35.065 -19.931 -21.417  0.00  0.00    +0.096 C 
BRANCH  20  22
ATOM     21  O   UNL     1      34.419 -22.469 -20.242  0.00  0.00    -0.270 OA
ATOM     22  N   UNL     1      35.492 -20.416 -20.130  0.00  0.00    -0.300 N 
ATOM     23  C   UNL     1      35.127 -21.665 -19.643  0.00  0.00    +0.246 C 
ATOM     24  H   UNL     1      36.065 -19.840 -19.573  0.00  0.00    +0.150 HD
BRANCH  23  25
ATOM     25  C   UNL     1      35.628 -22.006 -18.286  0.00  0.00    +0.054 C 
ATOM     26  C   UNL     1      34.847 -22.781 -17.429  0.00  0.00    +0.008 C 
ATOM     27  C   UNL     1      36.879 -21.549 -17.869  0.00  0.00    +0.008 C 
ATOM     28  C   UNL     1      35.317 -23.100 -16.155  0.00  0.00    +0.038 C 
ATOM     29  C   UNL     1      37.349 -21.868 -16.595  0.00  0.00    +0.038 C 
ATOM     30  C   UNL     1      36.568 -22.643 -15.738  0.00  0.00    +0.145 C 
BRANCH  30  31
ATOM     31  O   UNL     1      37.025 -22.952 -14.495  0.00  0.00    -0.453 OA
BRANCH  31  32
ATOM     32  C   UNL     1      37.985 -23.946 -14.390  0.00  0.00    +0.145 C 
ATOM     33  C   UNL     1      38.906 -24.135 -15.419  0.00  0.00    +0.037 C 
ATOM     34  C   UNL     1      38.027 -24.758 -13.256  0.00  0.00    +0.037 C 
ATOM     35  C   UNL     1      39.872 -25.137 -15.315  0.00  0.00    +0.003 C 
ATOM     36  C   UNL     1      38.993 -25.760 -13.153  0.00  0.00    +0.003 C 
ATOM     37  C   UNL     1      39.915 -25.949 -14.182  0.00  0.00    +0.000 C 
ENDBRANCH  31  32
ENDBRANCH  30  31
ENDBRANCH  23  25
ENDBRANCH  20  22
ENDBRANCH   1  20
TORSDOF 6
ENDMDL
MODEL 5
REMARK VINA RESULT:     -12.8      8.872     13.975
REMARK  Name = 25023705
REMARK  6 active torsions:
REMARK  status: ('A' for Active; 'I' for Inactive)
REMARK    1  A    between atoms: C_1  and  C_8
REMARK    2  A    between atoms: C_1  and  C_20
REMARK    3  A    between atoms: C_20  and  N_22
REMARK    4  A    between atoms: C_23  and  C_25
REMARK    5  A    between atoms: C_30  and  O_31
REMARK    6  A    between atoms: O_31  and  C_32
REMARK                            x       y       z     vdW  Elec       q    Type
REMARK                         _______ _______ _______ _____ _____    ______ ____
ROOT
ATOM      1  C   UNL     1      31.884 -11.488 -21.807  0.00  0.00    +0.066 C 
ATOM      2  C   UNL     1      30.448 -11.351 -21.245  0.00  0.00    +0.009 C 
ATOM      3  C   UNL     1      32.760 -12.021 -20.646  0.00  0.00    +0.009 C 
ENDROOT
BRANCH   1   8
ATOM      4  N   UNL     1      31.589  -9.049 -21.983  0.00  0.00    -0.347 NA
ATOM      5  N   UNL     1      31.205  -6.767 -22.069  0.00  0.00    -0.266 NA
ATOM      6  N   UNL     1      32.632  -5.298 -23.336  0.00  0.00    -0.316 NA
ATOM      7  N   UNL     1      30.800  -4.456 -22.145  0.00  0.00    -0.283 N 
ATOM      8  C   UNL     1      32.335 -10.118 -22.351  0.00  0.00    +0.122 C 
ATOM      9  C   UNL     1      33.445 -10.046 -23.164  0.00  0.00    +0.026 C 
ATOM     10  C   UNL     1      33.807  -8.792 -23.626  0.00  0.00    +0.001 C 
ATOM     11  C   UNL     1      31.934  -7.832 -22.425  0.00  0.00    +0.137 C 
ATOM     12  C   UNL     1      33.048  -7.673 -23.257  0.00  0.00    +0.199 C 
ATOM     13  C   UNL     1      33.349  -6.381 -23.681  0.00  0.00    +0.187 C 
ATOM     14  C   UNL     1      31.587  -5.560 -22.538  0.00  0.00    +0.207 C 
ATOM     15  H   UNL     1      30.020  -4.591 -21.560  0.00  0.00    +0.156 HD
ATOM     16  H   UNL     1      31.031  -3.551 -22.457  0.00  0.00    +0.156 HD
ATOM     17  N   UNL     1      34.468  -6.167 -24.523  0.00  0.00    -0.334 N 
ATOM     18  H   UNL     1      34.687  -5.257 -24.828  0.00  0.00    +0.144 HD
ATOM     19  H   UNL     1      35.025  -6.928 -24.805  0.00  0.00    +0.144 HD
ENDBRANCH   1   8
BRANCH   1  20
ATOM     20  C   UNL     1      31.863 -12.554 -22.939  0.00  0.00    +0.096 C 
BRANCH  20  22
ATOM     21  O   UNL     1      34.213 -13.509 -24.282  0.00  0.00    -0.270 OA
ATOM     22  N   UNL     1      32.605 -13.748 -22.628  0.00  0.00    -0.300 N 
ATOM     23  C   UNL     1      33.736 -14.131 -23.338  0.00  0.00    +0.246 C 
ATOM     24  H   UNL     1      32.299 -14.316 -21.884  0.00  0.00    +0.150 HD
BRANCH  23  25
ATOM     25  C   UNL     1      34.373 -15.404 -22.910  0.00  0.00    +0.054 C 
ATOM     26  C   UNL     1      34.756 -16.346 -23.864  0.00  0.00    +0.008 C 
ATOM     27  C   UNL     1      34.585 -15.656 -21.554  0.00  0.00    +0.008 C 
ATOM     28  C   UNL     1      35.353 -17.541 -23.462  0.00  0.00    +0.038 C 
ATOM     29  C   UNL     1      35.182 -16.851 -21.153  0.00  0.00    +0.038 C 
ATOM     30  C   UNL     1      35.565 -17.794 -22.107  0.00  0.00    +0.145 C 
BRANCH  30  31
ATOM     31  O   UNL     1      36.145 -18.961 -21.714  0.00  0.00    -0.453 OA
BRANCH  31  32
ATOM     32  C   UNL     1      35.368 -19.858 -21.001  0.00  0.00    +0.145 C 
ATOM     33  C   UNL     1      35.977 -20.831 -20.209  0.00  0.00    +0.037 C 
ATOM     34  C   UNL     1      33.977 -19.790 -21.076  0.00  0.00    +0.037 C 
ATOM     35  C   UNL     1      35.195 -21.736 -19.491  0.00  0.00    +0.003 C 
ATOM     36  C   UNL     1      33.195 -20.695 -20.358  0.00  0.00    +0.003 C 
ATOM     37  C   UNL     1      33.804 -21.668 -19.566  0.00  0.00    +0.000 C 
ENDBRANCH  31  32
ENDBRANCH  30  31
ENDBRANCH  23  25
ENDBRANCH  20  22
ENDBRANCH   1  20
TORSDOF 6
ENDMDL
MODEL 6
REMARK VINA RESULT:     -12.7      1.003      2.215
REMARK  Name = 25023705
REMARK  6 active torsions:
REMARK  status: ('A' for Active; 'I' for Inactive)
REMARK    1  A    between atoms: C_1  and  C_8
REMARK    2  A    between atoms: C_1  and  C_20
REMARK    3  A    between atoms: C_20  and  N_22
REMARK    4  A    between atoms: C_23  and  C_25
REMARK    5  A    between atoms: C_30  and  O_31
REMARK    6  A    between atoms: O_31  and  C_32
REMARK                            x       y       z     vdW  Elec       q    Type
REMARK                         _______ _______ _______ _____ _____    ______ ____
ROOT
ATOM      1  C   UNL     1      32.209 -23.819 -15.465  0.00  0.00    +0.066 C 
ATOM      2  C   UNL     1      31.927 -22.320 -15.202  0.00  0.00    +0.009 C 
ATOM      3  C   UNL     1      31.016 -24.602 -14.862  0.00  0.00    +0.009 C 
ENDROOT
BRANCH   1   8
ATOM      4  N   UNL     1      33.700 -23.974 -13.510  0.00  0.00    -0.347 NA
ATOM      5  N   UNL     1      35.003 -24.072 -11.598  0.00  0.00    -0.266 NA
ATOM      6  N   UNL     1      37.270 -24.880 -11.661  0.00  0.00    -0.316 NA
ATOM      7  N   UNL     1      36.308 -24.163  -9.650  0.00  0.00    -0.283 N 
ATOM      8  C   UNL     1      33.571 -24.181 -14.843  0.00  0.00    +0.122 C 
ATOM      9  C   UNL     1      34.570 -24.685 -15.649  0.00  0.00    +0.026 C 
ATOM     10  C   UNL     1      35.775 -24.994 -15.041  0.00  0.00    +0.001 C 
ATOM     11  C   UNL     1      34.863 -24.271 -12.915  0.00  0.00    +0.137 C 
ATOM     12  C   UNL     1      35.927 -24.787 -13.663  0.00  0.00    +0.199 C 
ATOM     13  C   UNL     1      37.107 -25.073 -12.981  0.00  0.00    +0.187 C 
ATOM     14  C   UNL     1      36.191 -24.384 -11.040  0.00  0.00    +0.207 C 
ATOM     15  H   UNL     1      35.547 -23.799  -9.144  0.00  0.00    +0.156 HD
ATOM     16  H   UNL     1      37.153 -24.373  -9.188  0.00  0.00    +0.156 HD
ATOM     17  N   UNL     1      38.214 -25.597 -13.693  0.00  0.00    -0.334 N 
ATOM     18  H   UNL     1      39.052 -25.802 -13.219  0.00  0.00    +0.144 HD
ATOM     19  H   UNL     1      38.145 -25.756 -14.663  0.00  0.00    +0.144 HD
ENDBRANCH   1   8
BRANCH   1  20
ATOM     20  C   UNL     1      32.223 -24.047 -17.003  0.00  0.00    +0.096 C 
BRANCH  20  22
ATOM     21  O   UNL     1      33.793 -24.319 -19.391  0.00  0.00    -0.270 OA
ATOM     22  N   UNL     1      32.851 -22.984 -17.744  0.00  0.00    -0.300 N 
ATOM     23  C   UNL     1      33.595 -23.214 -18.894  0.00  0.00    +0.246 C 
ATOM     24  H   UNL     1      32.750 -22.059 -17.422  0.00  0.00    +0.150 HD
BRANCH  23  25
ATOM     25  C   UNL     1      34.202 -22.014 -19.527  0.00  0.00    +0.054 C 
ATOM     26  C   UNL     1      35.588 -21.873 -19.568  0.00  0.00    +0.008 C 
ATOM     27  C   UNL     1      33.382 -21.028 -20.079  0.00  0.00    +0.008 C 
ATOM     28  C   UNL     1      36.157 -20.746 -20.162  0.00  0.00    +0.038 C 
ATOM     29  C   UNL     1      33.951 -19.901 -20.673  0.00  0.00    +0.038 C 
ATOM     30  C   UNL     1      35.338 -19.760 -20.713  0.00  0.00    +0.145 C 
BRANCH  30  31
ATOM     31  O   UNL     1      35.893 -18.659 -21.290  0.00  0.00    -0.453 OA
BRANCH  31  32
ATOM     32  C   UNL     1      35.445 -18.298 -22.550  0.00  0.00    +0.145 C 
ATOM     33  C   UNL     1      35.170 -19.281 -23.500  0.00  0.00    +0.037 C 
ATOM     34  C   UNL     1      35.272 -16.951 -22.869  0.00  0.00    +0.037 C 
ATOM     35  C   UNL     1      34.720 -18.918 -24.770  0.00  0.00    +0.003 C 
ATOM     36  C   UNL     1      34.822 -16.588 -24.139  0.00  0.00    +0.003 C 
ATOM     37  C   UNL     1      34.546 -17.571 -25.089  0.00  0.00    +0.000 C 
ENDBRANCH  31  32
ENDBRANCH  30  31
ENDBRANCH  23  25
ENDBRANCH  20  22
ENDBRANCH   1  20
TORSDOF 6
ENDMDL
MODEL 7
REMARK VINA RESULT:     -12.7      4.865      8.262
REMARK  Name = 25023705
REMARK  6 active torsions:
REMARK  status: ('A' for Active; 'I' for Inactive)
REMARK    1  A    between atoms: C_1  and  C_8
REMARK    2  A    between atoms: C_1  and  C_20
REMARK    3  A    between atoms: C_20  and  N_22
REMARK    4  A    between atoms: C_23  and  C_25
REMARK    5  A    between atoms: C_30  and  O_31
REMARK    6  A    between atoms: O_31  and  C_32
REMARK                            x       y       z     vdW  Elec       q    Type
REMARK                         _______ _______ _______ _____ _____    ______ ____
ROOT
ATOM      1  C   UNL     1      35.321 -19.227 -22.245  0.00  0.00    +0.066 C 
ATOM      2  C   UNL     1      33.830 -18.975 -22.578  0.00  0.00    +0.009 C 
ATOM      3  C   UNL     1      35.957 -19.836 -23.518  0.00  0.00    +0.009 C 
ENDROOT
BRANCH   1   8
ATOM      4  N   UNL     1      34.234 -20.675 -20.574  0.00  0.00    -0.347 NA
ATOM      5  N   UNL     1      33.097 -22.013 -19.064  0.00  0.00    -0.266 NA
ATOM      6  N   UNL     1      34.244 -23.148 -17.277  0.00  0.00    -0.316 NA
ATOM      7  N   UNL     1      31.928 -23.364 -17.542  0.00  0.00    -0.283 N 
ATOM      8  C   UNL     1      35.402 -20.142 -21.007  0.00  0.00    +0.122 C 
ATOM      9  C   UNL     1      36.625 -20.369 -20.414  0.00  0.00    +0.026 C 
ATOM     10  C   UNL     1      36.644 -21.198 -19.305  0.00  0.00    +0.001 C 
ATOM     11  C   UNL     1      34.244 -21.479 -19.502  0.00  0.00    +0.137 C 
ATOM     12  C   UNL     1      35.446 -21.760 -18.842  0.00  0.00    +0.199 C 
ATOM     13  C   UNL     1      35.384 -22.602 -17.734  0.00  0.00    +0.187 C 
ATOM     14  C   UNL     1      33.153 -22.816 -17.981  0.00  0.00    +0.207 C 
ATOM     15  H   UNL     1      31.095 -23.153 -18.022  0.00  0.00    +0.156 HD
ATOM     16  H   UNL     1      31.908 -23.958 -16.756  0.00  0.00    +0.156 HD
ATOM     17  N   UNL     1      36.573 -22.917 -17.031  0.00  0.00    -0.334 N 
ATOM     18  H   UNL     1      36.538 -23.512 -16.247  0.00  0.00    +0.144 HD
ATOM     19  H   UNL     1      37.433 -22.542 -17.326  0.00  0.00    +0.144 HD
ENDBRANCH   1   8
BRANCH   1  20
ATOM     20  C   UNL     1      35.994 -17.854 -21.964  0.00  0.00    +0.096 C 
BRANCH  20  22
ATOM     21  O   UNL     1      35.607 -15.691 -23.812  0.00  0.00    -0.270 OA
ATOM     22  N   UNL     1      35.061 -16.765 -21.830  0.00  0.00    -0.300 N 
ATOM     23  C   UNL     1      34.944 -15.759 -22.781  0.00  0.00    +0.246 C 
ATOM     24  H   UNL     1      34.484 -16.732 -21.033  0.00  0.00    +0.150 HD
BRANCH  23  25
ATOM     25  C   UNL     1      33.954 -14.692 -22.481  0.00  0.00    +0.054 C 
ATOM     26  C   UNL     1      33.307 -14.668 -21.247  0.00  0.00    +0.008 C 
ATOM     27  C   UNL     1      33.673 -13.715 -23.437  0.00  0.00    +0.008 C 
ATOM     28  C   UNL     1      32.377 -13.667 -20.967  0.00  0.00    +0.038 C 
ATOM     29  C   UNL     1      32.743 -12.714 -23.157  0.00  0.00    +0.038 C 
ATOM     30  C   UNL     1      32.095 -12.690 -21.922  0.00  0.00    +0.145 C 
BRANCH  30  31
ATOM     31  O   UNL     1      31.186 -11.714 -21.650  0.00  0.00    -0.453 OA
BRANCH  31  32
ATOM     32  C   UNL     1      31.668 -10.479 -21.251  0.00  0.00    +0.145 C 
ATOM     33  C   UNL     1      31.950 -10.243 -19.905  0.00  0.00    +0.037 C 
ATOM     34  C   UNL     1      31.869  -9.470 -22.193  0.00  0.00    +0.037 C 
ATOM     35  C   UNL     1      32.434  -8.999 -19.502  0.00  0.00    +0.003 C 
ATOM     36  C   UNL     1      32.353  -8.225 -21.789  0.00  0.00    +0.003 C 
ATOM     37  C   UNL     1      32.635  -7.990 -20.444  0.00  0.00    +0.000 C 
ENDBRANCH  31  32
ENDBRANCH  30  31
ENDBRANCH  23  25
ENDBRANCH  20  22
ENDBRANCH   1  20
TORSDOF 6
ENDMDL
MODEL 8
REMARK VINA RESULT:     -12.6      2.377      4.826
REMARK  Name = 25023705
REMARK  6 active torsions:
REMARK  status: ('A' for Active; 'I' for Inactive)
REMARK    1  A    between atoms: C_1  and  C_8
REMARK    2  A    between atoms: C_1  and  C_20
REMARK    3  A    between atoms: C_20  and  N_22
REMARK    4  A    between atoms: C_23  and  C_25
REMARK    5  A    between atoms: C_30  and  O_31
REMARK    6  A    between atoms: O_31  and  C_32
REMARK                            x       y       z     vdW  Elec       q    Type
REMARK                         _______ _______ _______ _____ _____    ______ ____
ROOT
ATOM      1  C   UNL     1      34.195 -22.400 -19.121  0.00  0.00    +0.066 C 
ATOM      2  C   UNL     1      32.867 -21.641 -19.362  0.00  0.00    +0.009 C 
ATOM      3  C   UNL     1      34.191 -23.609 -20.088  0.00  0.00    +0.009 C 
ENDROOT
BRANCH   1   8
ATOM      4  N   UNL     1      33.157 -23.323 -17.087  0.00  0.00    -0.347 NA
ATOM      5  N   UNL     1      32.070 -24.211 -15.245  0.00  0.00    -0.266 NA
ATOM      6  N   UNL     1      33.176 -24.433 -13.118  0.00  0.00    -0.316 NA
ATOM      7  N   UNL     1      30.951 -25.112 -13.389  0.00  0.00    -0.283 N 
ATOM      8  C   UNL     1      34.277 -22.791 -17.633  0.00  0.00    +0.122 C 
ATOM      9  C   UNL     1      35.453 -22.587 -16.943  0.00  0.00    +0.026 C 
ATOM     10  C   UNL     1      35.474 -22.955 -15.609  0.00  0.00    +0.001 C 
ATOM     11  C   UNL     1      33.170 -23.683 -15.796  0.00  0.00    +0.137 C 
ATOM     12  C   UNL     1      34.325 -23.508 -15.026  0.00  0.00    +0.199 C 
ATOM     13  C   UNL     1      34.269 -23.902 -13.692  0.00  0.00    +0.187 C 
ATOM     14  C   UNL     1      32.126 -24.558 -13.942  0.00  0.00    +0.207 C 
ATOM     15  H   UNL     1      30.150 -25.225 -13.949  0.00  0.00    +0.156 HD
ATOM     16  H   UNL     1      30.934 -25.384 -12.442  0.00  0.00    +0.156 HD
ATOM     17  N   UNL     1      35.412 -23.746 -12.870  0.00  0.00    -0.334 N 
ATOM     18  H   UNL     1      35.381 -24.022 -11.926  0.00  0.00    +0.144 HD
ATOM     19  H   UNL     1      36.238 -23.361 -13.244  0.00  0.00    +0.144 HD
ENDBRANCH   1   8
BRANCH   1  20
ATOM     20  C   UNL     1      35.369 -21.459 -19.512  0.00  0.00    +0.096 C 
BRANCH  20  22
ATOM     21  O   UNL     1      36.987 -19.308 -20.511  0.00  0.00    -0.270 OA
ATOM     22  N   UNL     1      35.109 -20.658 -20.681  0.00  0.00    -0.300 N 
ATOM     23  C   UNL     1      35.954 -19.633 -21.088  0.00  0.00    +0.246 C 
ATOM     24  H   UNL     1      34.301 -20.844 -21.211  0.00  0.00    +0.150 HD
BRANCH  23  25
ATOM     25  C   UNL     1      35.531 -18.883 -22.299  0.00  0.00    +0.054 C 
ATOM     26  C   UNL     1      35.782 -17.515 -22.395  0.00  0.00    +0.008 C 
ATOM     27  C   UNL     1      34.881 -19.550 -23.340  0.00  0.00    +0.008 C 
ATOM     28  C   UNL     1      35.383 -16.812 -23.532  0.00  0.00    +0.038 C 
ATOM     29  C   UNL     1      34.483 -18.846 -24.476  0.00  0.00    +0.038 C 
ATOM     30  C   UNL     1      34.734 -17.477 -24.572  0.00  0.00    +0.145 C 
BRANCH  30  31
ATOM     31  O   UNL     1      34.343 -16.790 -25.680  0.00  0.00    -0.453 OA
BRANCH  31  32
ATOM     32  C   UNL     1      34.067 -15.440 -25.537  0.00  0.00    +0.145 C 
ATOM     33  C   UNL     1      33.694 -14.684 -26.648  0.00  0.00    +0.037 C 
ATOM     34  C   UNL     1      34.166 -14.837 -24.283  0.00  0.00    +0.037 C 
ATOM     35  C   UNL     1      33.417 -13.324 -26.505  0.00  0.00    +0.003 C 
ATOM     36  C   UNL     1      33.889 -13.477 -24.140  0.00  0.00    +0.003 C 
ATOM     37  C   UNL     1      33.515 -12.721 -25.251  0.00  0.00    +0.000 C 
ENDBRANCH  31  32
ENDBRANCH  30  31
ENDBRANCH  23  25
ENDBRANCH  20  22
ENDBRANCH   1  20
TORSDOF 6
ENDMDL
MODEL 9
REMARK VINA RESULT:     -12.5     11.143     16.477
REMARK  Name = 25023705
REMARK  6 active torsions:
REMARK  status: ('A' for Active; 'I' for Inactive)
REMARK    1  A    between atoms: C_1  and  C_8
REMARK    2  A    between atoms: C_1  and  C_20
REMARK    3  A    between atoms: C_20  and  N_22
REMARK    4  A    between atoms: C_23  and  C_25
REMARK    5  A    between atoms: C_30  and  O_31
REMARK    6  A    between atoms: O_31  and  C_32
REMARK                            x       y       z     vdW  Elec       q    Type
REMARK                         _______ _______ _______ _____ _____    ______ ____
ROOT
ATOM      1  C   UNL     1      32.369  -7.526 -22.667  0.00  0.00    +0.066 C 
ATOM      2  C   UNL     1      31.348  -6.571 -22.003  0.00  0.00    +0.009 C 
ATOM      3  C   UNL     1      33.314  -8.011 -21.540  0.00  0.00    +0.009 C 
ENDROOT
BRANCH   1   8
ATOM      4  N   UNL     1      32.344  -5.874 -24.494  0.00  0.00    -0.347 NA
ATOM      5  N   UNL     1      32.193  -4.297 -26.183  0.00  0.00    -0.266 NA
ATOM      6  N   UNL     1      34.086  -3.750 -27.567  0.00  0.00    -0.316 NA
ATOM      7  N   UNL     1      32.020  -2.697 -27.891  0.00  0.00    -0.283 N 
ATOM      8  C   UNL     1      33.088  -6.770 -23.801  0.00  0.00    +0.122 C 
ATOM      9  C   UNL     1      34.418  -7.033 -24.053  0.00  0.00    +0.026 C 
ATOM     10  C   UNL     1      35.016  -6.327 -25.082  0.00  0.00    +0.001 C 
ATOM     11  C   UNL     1      32.916  -5.186 -25.492  0.00  0.00    +0.137 C 
ATOM     12  C   UNL     1      34.263  -5.395 -25.811  0.00  0.00    +0.199 C 
ATOM     13  C   UNL     1      34.793  -4.647 -26.859  0.00  0.00    +0.187 C 
ATOM     14  C   UNL     1      32.808  -3.627 -27.180  0.00  0.00    +0.207 C 
ATOM     15  H   UNL     1      31.075  -2.567 -27.650  0.00  0.00    +0.156 HD
ATOM     16  H   UNL     1      32.416  -2.179 -28.629  0.00  0.00    +0.156 HD
ATOM     17  N   UNL     1      36.152  -4.821 -27.221  0.00  0.00    -0.334 N 
ATOM     18  H   UNL     1      36.535  -4.296 -27.961  0.00  0.00    +0.144 HD
ATOM     19  H   UNL     1      36.713  -5.466 -26.733  0.00  0.00    +0.144 HD
ENDBRANCH   1   8
BRANCH   1  20
ATOM     20  C   UNL     1      31.594  -8.754 -23.224  0.00  0.00    +0.096 C 
BRANCH  20  22
ATOM     21  O   UNL     1      30.610 -11.077 -21.854  0.00  0.00    -0.270 OA
ATOM     22  N   UNL     1      32.285 -10.006 -23.050  0.00  0.00    -0.300 N 
ATOM     23  C   UNL     1      31.725 -11.080 -22.368  0.00  0.00    +0.246 C 
ATOM     24  H   UNL     1      33.188 -10.105 -23.428  0.00  0.00    +0.150 HD
BRANCH  23  25
ATOM     25  C   UNL     1      32.576 -12.292 -22.252  0.00  0.00    +0.054 C 
ATOM     26  C   UNL     1      32.368 -13.193 -21.208  0.00  0.00    +0.008 C 
ATOM     27  C   UNL     1      33.585 -12.527 -23.188  0.00  0.00    +0.008 C 
ATOM     28  C   UNL     1      33.168 -14.330 -21.099  0.00  0.00    +0.038 C 
ATOM     29  C   UNL     1      34.384 -13.665 -23.078  0.00  0.00    +0.038 C 
ATOM     30  C   UNL     1      34.176 -14.566 -22.034  0.00  0.00    +0.145 C 
BRANCH  30  31
ATOM     31  O   UNL     1      34.959 -15.674 -21.926  0.00  0.00    -0.453 OA
BRANCH  31  32
ATOM     32  C   UNL     1      34.824 -16.654 -22.896  0.00  0.00    +0.145 C 
ATOM     33  C   UNL     1      34.485 -16.300 -24.201  0.00  0.00    +0.037 C 
ATOM     34  C   UNL     1      35.026 -17.994 -22.566  0.00  0.00    +0.037 C 
ATOM     35  C   UNL     1      34.349 -17.286 -25.179  0.00  0.00    +0.003 C 
ATOM     36  C   UNL     1      34.890 -18.981 -23.543  0.00  0.00    +0.003 C 
ATOM     37  C   UNL     1      34.551 -18.626 -24.849  0.00  0.00    +0.000 C 
ENDBRANCH  31  32
ENDBRANCH  30  31
ENDBRANCH  23  25
ENDBRANCH  20  22
ENDBRANCH   1  20
TORSDOF 6
ENDMDL
