MODEL 1
REMARK VINA RESULT:     -12.9      0.000      0.000
REMARK  Name = 46937052
REMARK  7 active torsions:
REMARK  status: ('A' for Active; 'I' for Inactive)
REMARK    1  A    between atoms: O_1  and  C_3
REMARK    2  A    between atoms: O_1  and  C_17
REMARK    3  A    between atoms: C_4  and  C_11
REMARK    4  A    between atoms: C_17  and  C_18
REMARK    5  A    between atoms: C_18  and  N_19
REMARK    6  A    between atoms: C_18  and  C_23
REMARK    7  A    between atoms: C_23  and  C_25
REMARK                            x       y       z     vdW  Elec       q    Type
REMARK                         _______ _______ _______ _____ _____    ______ ____
ROOT
ATOM      1  O   UNL     1      34.522 -14.257 -21.812  0.00  0.00    -0.476 OA
ENDROOT
BRANCH   1   3
ATOM      2  N   UNL     1      35.042 -16.889 -24.300  0.00  0.00    -0.239 NA
ATOM      3  C   UNL     1      34.753 -15.499 -22.342  0.00  0.00    +0.158 C 
ATOM      4  C   UNL     1      35.164 -17.856 -22.087  0.00  0.00    +0.039 C 
ATOM      5  C   UNL     1      34.930 -16.607 -21.521  0.00  0.00    +0.042 C 
ATOM      6  C   UNL     1      34.818 -15.691 -23.713  0.00  0.00    +0.136 C 
ATOM      7  C   UNL     1      35.210 -17.942 -23.470  0.00  0.00    +0.101 C 
BRANCH   4  11
ATOM      8  N   UNL     1      36.548 -19.340 -20.834  0.00  0.00    -0.264 NA
ATOM      9  N   UNL     1      35.540 -22.374 -18.959  0.00  0.00    -0.150 NA
ATOM     10  N   UNL     1      34.141 -22.798 -18.939  0.00  0.00    -0.147 NA
ATOM     11  C   UNL     1      35.357 -19.061 -21.237  0.00  0.00    +0.078 C 
ATOM     12  C   UNL     1      34.312 -20.913 -20.183  0.00  0.00    +0.040 C 
ATOM     13  C   UNL     1      35.612 -21.289 -19.682  0.00  0.00    +0.107 C 
ATOM     14  C   UNL     1      36.832 -20.504 -19.992  0.00  0.00    +0.173 C 
ATOM     15  C   UNL     1      34.126 -19.848 -20.945  0.00  0.00    +0.022 C 
ATOM     16  C   UNL     1      33.457 -21.947 -19.650  0.00  0.00    +0.123 C 
ENDBRANCH   4  11
ENDBRANCH   1   3
BRANCH   1  17
ATOM     17  C   UNL     1      33.223 -14.015 -21.288  0.00  0.00    +0.184 C 
BRANCH  17  18
ATOM     18  C   UNL     1      32.598 -12.782 -21.952  0.00  0.00    -0.017 C 
BRANCH  18  19
ATOM     19  N   UNL     1      31.975 -13.203 -23.209  0.00  0.00    +0.384 N 
ATOM     20  H   UNL     1      31.083 -13.657 -23.011  0.00  0.00    -0.089 HD
ATOM     21  H   UNL     1      32.591 -13.858 -23.692  0.00  0.00    -0.089 HD
ATOM     22  H   UNL     1      31.816 -12.386 -23.800  0.00  0.00    -0.089 HD
ENDBRANCH  18  19
BRANCH  18  23
ATOM     23  C   UNL     1      31.533 -12.089 -21.066  0.00  0.00    +0.010 C 
BRANCH  23  25
ATOM     24  N   UNL     1      32.379  -8.866 -19.372  0.00  0.00    -0.244 NA
ATOM     25  C   UNL     1      31.804 -10.670 -20.772  0.00  0.00    -0.004 C 
ATOM     26  C   UNL     1      31.804  -9.546 -21.499  0.00  0.00    +0.011 C 
ATOM     27  C   UNL     1      32.156  -8.428 -20.649  0.00  0.00    +0.080 C 
ATOM     28  C   UNL     1      32.176 -10.147 -19.448  0.00  0.00    +0.094 C 
ATOM     29  C   UNL     1      31.516  -9.373 -22.900  0.00  0.00    -0.020 C 
ATOM     30  C   UNL     1      32.226  -7.186 -21.141  0.00  0.00    +0.015 C 
ATOM     31  C   UNL     1      31.939  -6.905 -22.603  0.00  0.00    -0.020 C 
ATOM     32  C   UNL     1      31.580  -8.134 -23.420  0.00  0.00    +0.052 C 
ENDBRANCH  23  25
ENDBRANCH  18  23
ENDBRANCH  17  18
ENDBRANCH   1  17
TORSDOF 7
ENDMDL
MODEL 2
REMARK VINA RESULT:     -12.7      5.452     11.369
REMARK  Name = 46937052
REMARK  7 active torsions:
REMARK  status: ('A' for Active; 'I' for Inactive)
REMARK    1  A    between atoms: O_1  and  C_3
REMARK    2  A    between atoms: O_1  and  C_17
REMARK    3  A    between atoms: C_4  and  C_11
REMARK    4  A    between atoms: C_17  and  C_18
REMARK    5  A    between atoms: C_18  and  N_19
REMARK    6  A    between atoms: C_18  and  C_23
REMARK    7  A    between atoms: C_23  and  C_25
REMARK                            x       y       z     vdW  Elec       q    Type
REMARK                         _______ _______ _______ _____ _____    ______ ____
ROOT
ATOM      1  O   UNL     1      36.457 -22.432 -18.788  0.00  0.00    -0.476 OA
ENDROOT
BRANCH   1   3
ATOM      2  N   UNL     1      33.020 -21.667 -19.782  0.00  0.00    -0.239 NA
ATOM      3  C   UNL     1      35.403 -21.802 -19.398  0.00  0.00    +0.158 C 
ATOM      4  C   UNL     1      34.517 -20.082 -20.827  0.00  0.00    +0.039 C 
ATOM      5  C   UNL     1      35.605 -20.702 -20.222  0.00  0.00    +0.042 C 
ATOM      6  C   UNL     1      34.102 -22.242 -19.211  0.00  0.00    +0.136 C 
ATOM      7  C   UNL     1      33.256 -20.599 -20.576  0.00  0.00    +0.101 C 
BRANCH   4  11
ATOM      8  N   UNL     1      34.924 -17.757 -21.170  0.00  0.00    -0.264 NA
ATOM      9  N   UNL     1      35.149 -15.923 -24.384  0.00  0.00    -0.150 NA
ATOM     10  N   UNL     1      34.967 -16.631 -25.651  0.00  0.00    -0.147 NA
ATOM     11  C   UNL     1      34.700 -18.902 -21.715  0.00  0.00    +0.078 C 
ATOM     12  C   UNL     1      34.757 -18.115 -23.953  0.00  0.00    +0.040 C 
ATOM     13  C   UNL     1      35.023 -16.799 -23.423  0.00  0.00    +0.107 C 
ATOM     14  C   UNL     1      35.119 -16.542 -21.965  0.00  0.00    +0.173 C 
ATOM     15  C   UNL     1      34.587 -19.172 -23.176  0.00  0.00    +0.022 C 
ATOM     16  C   UNL     1      34.740 -17.884 -25.378  0.00  0.00    +0.123 C 
ENDBRANCH   4  11
ENDBRANCH   1   3
BRANCH   1  17
ATOM     17  C   UNL     1      36.842 -21.945 -17.510  0.00  0.00    +0.184 C 
BRANCH  17  18
ATOM     18  C   UNL     1      36.467 -22.954 -16.417  0.00  0.00    -0.017 C 
BRANCH  18  19
ATOM     19  N   UNL     1      37.703 -23.529 -15.879  0.00  0.00    +0.384 N 
ATOM     20  H   UNL     1      38.227 -22.806 -15.385  0.00  0.00    -0.089 HD
ATOM     21  H   UNL     1      38.268 -23.897 -16.644  0.00  0.00    -0.089 HD
ATOM     22  H   UNL     1      37.473 -24.283 -15.232  0.00  0.00    -0.089 HD
ENDBRANCH  18  19
BRANCH  18  23
ATOM     23  C   UNL     1      35.657 -22.321 -15.258  0.00  0.00    +0.010 C 
BRANCH  23  25
ATOM     24  N   UNL     1      34.008 -24.744 -12.938  0.00  0.00    -0.244 NA
ATOM     25  C   UNL     1      34.699 -23.232 -14.607  0.00  0.00    -0.004 C 
ATOM     26  C   UNL     1      33.447 -23.622 -14.874  0.00  0.00    +0.011 C 
ATOM     27  C   UNL     1      33.010 -24.553 -13.855  0.00  0.00    +0.080 C 
ATOM     28  C   UNL     1      34.970 -23.987 -13.373  0.00  0.00    +0.094 C 
ATOM     29  C   UNL     1      32.592 -23.237 -15.968  0.00  0.00    -0.020 C 
ATOM     30  C   UNL     1      31.785 -25.092 -13.896  0.00  0.00    +0.015 C 
ATOM     31  C   UNL     1      30.815 -24.747 -15.009  0.00  0.00    -0.020 C 
ATOM     32  C   UNL     1      31.356 -23.764 -16.032  0.00  0.00    +0.052 C 
ENDBRANCH  23  25
ENDBRANCH  18  23
ENDBRANCH  17  18
ENDBRANCH   1  17
TORSDOF 7
ENDMDL
MODEL 3
REMARK VINA RESULT:     -12.7      5.070      8.849
REMARK  Name = 46937052
REMARK  7 active torsions:
REMARK  status: ('A' for Active; 'I' for Inactive)
REMARK    1  A    between atoms: O_1  and  C_3
REMARK    2  A    between atoms: O_1  and  C_17
REMARK    3  A    between atoms: C_4  and  C_11
REMARK    4  A    between atoms: C_17  and  C_18
REMARK    5  A    between atoms: C_18  and  N_19
REMARK    6  A    between atoms: C_18  and  C_23
REMARK    7  A    between atoms: C_23  and  C_25
REMARK                            x       y       z     vdW  Elec       q    Type
REMARK                         _______ _______ _______ _____ _____    ______ ____
ROOT
ATOM      1  O   UNL     1      32.971 -22.454 -18.944  0.00  0.00    -0.476 OA
ENDROOT
BRANCH   1   3
ATOM      2  N   UNL     1      31.847 -23.637 -15.670  0.00  0.00    -0.239 NA
ATOM      3  C   UNL     1      33.023 -22.928 -17.659  0.00  0.00    +0.158 C 
ATOM      4  C   UNL     1      34.264 -23.663 -15.734  0.00  0.00    +0.039 C 
ATOM      5  C   UNL     1      34.241 -23.181 -17.038  0.00  0.00    +0.042 C 
ATOM      6  C   UNL     1      31.865 -23.171 -16.939  0.00  0.00    +0.136 C 
ATOM      7  C   UNL     1      33.049 -23.872 -15.099  0.00  0.00    +0.101 C 
BRANCH   4  11
ATOM      8  N   UNL     1      36.341 -24.821 -15.553  0.00  0.00    -0.264 NA
ATOM      9  N   UNL     1      38.938 -24.467 -12.931  0.00  0.00    -0.150 NA
ATOM     10  N   UNL     1      38.744 -23.532 -11.823  0.00  0.00    -0.147 NA
ATOM     11  C   UNL     1      35.550 -23.943 -15.040  0.00  0.00    +0.078 C 
ATOM     12  C   UNL     1      36.938 -23.429 -13.185  0.00  0.00    +0.040 C 
ATOM     13  C   UNL     1      37.884 -24.389 -13.699  0.00  0.00    +0.107 C 
ATOM     14  C   UNL     1      37.628 -25.159 -14.941  0.00  0.00    +0.173 C 
ATOM     15  C   UNL     1      35.788 -23.173 -13.787  0.00  0.00    +0.022 C 
ATOM     16  C   UNL     1      37.590 -22.952 -11.988  0.00  0.00    +0.123 C 
ENDBRANCH   4  11
ENDBRANCH   1   3
BRANCH   1  17
ATOM     17  C   UNL     1      34.205 -22.074 -19.538  0.00  0.00    +0.184 C 
BRANCH  17  18
ATOM     18  C   UNL     1      33.973 -21.018 -20.626  0.00  0.00    -0.017 C 
BRANCH  18  19
ATOM     19  N   UNL     1      32.719 -20.320 -20.330  0.00  0.00    +0.384 N 
ATOM     20  H   UNL     1      32.584 -19.564 -21.001  0.00  0.00    -0.089 HD
ATOM     21  H   UNL     1      32.759 -19.934 -19.387  0.00  0.00    -0.089 HD
ATOM     22  H   UNL     1      31.941 -20.977 -20.397  0.00  0.00    -0.089 HD
ENDBRANCH  18  19
BRANCH  18  23
ATOM     23  C   UNL     1      35.120 -19.981 -20.720  0.00  0.00    +0.010 C 
BRANCH  23  25
ATOM     24  N   UNL     1      35.015 -18.623 -24.201  0.00  0.00    -0.244 NA
ATOM     25  C   UNL     1      35.051 -19.091 -21.893  0.00  0.00    -0.004 C 
ATOM     26  C   UNL     1      34.948 -17.767 -22.060  0.00  0.00    +0.011 C 
ATOM     27  C   UNL     1      34.925 -17.465 -23.476  0.00  0.00    +0.080 C 
ATOM     28  C   UNL     1      35.087 -19.548 -23.292  0.00  0.00    +0.094 C 
ATOM     29  C   UNL     1      34.867 -16.731 -21.062  0.00  0.00    -0.020 C 
ATOM     30  C   UNL     1      34.827 -16.202 -23.908  0.00  0.00    +0.015 C 
ATOM     31  C   UNL     1      34.737 -15.046 -22.932  0.00  0.00    -0.020 C 
ATOM     32  C   UNL     1      34.767 -15.454 -21.470  0.00  0.00    +0.052 C 
ENDBRANCH  23  25
ENDBRANCH  18  23
ENDBRANCH  17  18
ENDBRANCH   1  17
TORSDOF 7
ENDMDL
MODEL 4
REMARK VINA RESULT:     -12.6      5.317     11.749
REMARK  Name = 46937052
REMARK  7 active torsions:
REMARK  status: ('A' for Active; 'I' for Inactive)
REMARK    1  A    between atoms: O_1  and  C_3
REMARK    2  A    between atoms: O_1  and  C_17
REMARK    3  A    between atoms: C_4  and  C_11
REMARK    4  A    between atoms: C_17  and  C_18
REMARK    5  A    between atoms: C_18  and  N_19
REMARK    6  A    between atoms: C_18  and  C_23
REMARK    7  A    between atoms: C_23  and  C_25
REMARK                            x       y       z     vdW  Elec       q    Type
REMARK                         _______ _______ _______ _____ _____    ______ ____
ROOT
ATOM      1  O   UNL     1      33.070 -22.331 -19.019  0.00  0.00    -0.476 OA
ENDROOT
BRANCH   1   3
ATOM      2  N   UNL     1      36.582 -21.507 -19.625  0.00  0.00    -0.239 NA
ATOM      3  C   UNL     1      34.174 -21.683 -19.509  0.00  0.00    +0.158 C 
ATOM      4  C   UNL     1      35.184 -19.949 -20.835  0.00  0.00    +0.039 C 
ATOM      5  C   UNL     1      34.046 -20.586 -20.353  0.00  0.00    +0.042 C 
ATOM      6  C   UNL     1      35.453 -22.100 -19.178  0.00  0.00    +0.136 C 
ATOM      7  C   UNL     1      36.418 -20.444 -20.444  0.00  0.00    +0.101 C 
BRANCH   4  11
ATOM      8  N   UNL     1      35.107 -17.596 -21.216  0.00  0.00    -0.264 NA
ATOM      9  N   UNL     1      34.784 -15.810 -24.449  0.00  0.00    -0.150 NA
ATOM     10  N   UNL     1      34.671 -16.563 -25.698  0.00  0.00    -0.147 NA
ATOM     11  C   UNL     1      35.081 -18.773 -21.740  0.00  0.00    +0.078 C 
ATOM     12  C   UNL     1      34.854 -18.028 -23.982  0.00  0.00    +0.040 C 
ATOM     13  C   UNL     1      34.886 -16.677 -23.477  0.00  0.00    +0.107 C 
ATOM     14  C   UNL     1      35.014 -16.381 -22.029  0.00  0.00    +0.173 C 
ATOM     15  C   UNL     1      34.938 -19.084 -23.190  0.00  0.00    +0.022 C 
ATOM     16  C   UNL     1      34.710 -17.831 -25.405  0.00  0.00    +0.123 C 
ENDBRANCH   4  11
ENDBRANCH   1   3
BRANCH   1  17
ATOM     17  C   UNL     1      33.305 -23.439 -18.160  0.00  0.00    +0.184 C 
BRANCH  17  18
ATOM     18  C   UNL     1      33.046 -23.048 -16.699  0.00  0.00    -0.017 C 
BRANCH  18  19
ATOM     19  N   UNL     1      31.597 -23.021 -16.482  0.00  0.00    +0.384 N 
ATOM     20  H   UNL     1      31.284 -23.936 -16.157  0.00  0.00    -0.089 HD
ATOM     21  H   UNL     1      31.126 -22.791 -17.357  0.00  0.00    -0.089 HD
ATOM     22  H   UNL     1      31.372 -22.317 -15.779  0.00  0.00    -0.089 HD
ENDBRANCH  18  19
BRANCH  18  23
ATOM     23  C   UNL     1      33.691 -24.025 -15.685  0.00  0.00    +0.010 C 
BRANCH  23  25
ATOM     24  N   UNL     1      37.141 -22.616 -15.395  0.00  0.00    -0.244 NA
ATOM     25  C   UNL     1      35.146 -23.862 -15.513  0.00  0.00    -0.004 C 
ATOM     26  C   UNL     1      36.162 -24.701 -15.280  0.00  0.00    +0.011 C 
ATOM     27  C   UNL     1      37.396 -23.947 -15.205  0.00  0.00    +0.080 C 
ATOM     28  C   UNL     1      35.855 -22.573 -15.570  0.00  0.00    +0.094 C 
ATOM     29  C   UNL     1      36.135 -26.132 -15.115  0.00  0.00    -0.020 C 
ATOM     30  C   UNL     1      38.564 -24.561 -14.979  0.00  0.00    +0.015 C 
ATOM     31  C   UNL     1      38.635 -26.064 -14.794  0.00  0.00    -0.020 C 
ATOM     32  C   UNL     1      37.296 -26.773 -14.887  0.00  0.00    +0.052 C 
ENDBRANCH  23  25
ENDBRANCH  18  23
ENDBRANCH  17  18
ENDBRANCH   1  17
TORSDOF 7
ENDMDL
MODEL 5
REMARK VINA RESULT:     -12.4      3.893      7.097
REMARK  Name = 46937052
REMARK  7 active torsions:
REMARK  status: ('A' for Active; 'I' for Inactive)
REMARK    1  A    between atoms: O_1  and  C_3
REMARK    2  A    between atoms: O_1  and  C_17
REMARK    3  A    between atoms: C_4  and  C_11
REMARK    4  A    between atoms: C_17  and  C_18
REMARK    5  A    between atoms: C_18  and  N_19
REMARK    6  A    between atoms: C_18  and  C_23
REMARK    7  A    between atoms: C_23  and  C_25
REMARK                            x       y       z     vdW  Elec       q    Type
REMARK                         _______ _______ _______ _____ _____    ______ ____
ROOT
ATOM      1  O   UNL     1      34.027 -20.367 -21.128  0.00  0.00    -0.476 OA
ENDROOT
BRANCH   1   3
ATOM      2  N   UNL     1      36.070 -22.154 -18.675  0.00  0.00    -0.239 NA
ATOM      3  C   UNL     1      34.357 -21.119 -20.031  0.00  0.00    +0.158 C 
ATOM      4  C   UNL     1      33.739 -22.367 -18.070  0.00  0.00    +0.039 C 
ATOM      5  C   UNL     1      33.375 -21.608 -19.176  0.00  0.00    +0.042 C 
ATOM      6  C   UNL     1      35.678 -21.418 -19.739  0.00  0.00    +0.136 C 
ATOM      7  C   UNL     1      35.088 -22.611 -17.866  0.00  0.00    +0.101 C 
BRANCH   4  11
ATOM      8  N   UNL     1      31.471 -22.715 -17.419  0.00  0.00    -0.264 NA
ATOM      9  N   UNL     1      30.196 -24.478 -14.417  0.00  0.00    -0.150 NA
ATOM     10  N   UNL     1      31.129 -25.053 -13.449  0.00  0.00    -0.147 NA
ATOM     11  C   UNL     1      32.713 -22.905 -17.136  0.00  0.00    +0.078 C 
ATOM     12  C   UNL     1      32.317 -24.085 -15.115  0.00  0.00    +0.040 C 
ATOM     13  C   UNL     1      30.906 -23.926 -15.365  0.00  0.00    +0.107 C 
ATOM     14  C   UNL     1      30.393 -23.210 -16.559  0.00  0.00    +0.173 C 
ATOM     15  C   UNL     1      33.241 -23.608 -15.933  0.00  0.00    +0.022 C 
ATOM     16  C   UNL     1      32.338 -24.813 -13.868  0.00  0.00    +0.123 C 
ENDBRANCH   4  11
ENDBRANCH   1   3
BRANCH   1  17
ATOM     17  C   UNL     1      35.104 -19.885 -21.921  0.00  0.00    +0.184 C 
BRANCH  17  18
ATOM     18  C   UNL     1      34.987 -18.368 -22.118  0.00  0.00    -0.017 C 
BRANCH  18  19
ATOM     19  N   UNL     1      35.529 -17.707 -20.928  0.00  0.00    +0.384 N 
ATOM     20  H   UNL     1      34.987 -17.984 -20.109  0.00  0.00    -0.089 HD
ATOM     21  H   UNL     1      35.475 -16.696 -21.046  0.00  0.00    -0.089 HD
ATOM     22  H   UNL     1      36.503 -17.983 -20.800  0.00  0.00    -0.089 HD
ENDBRANCH  18  19
BRANCH  18  23
ATOM     23  C   UNL     1      35.744 -17.858 -23.369  0.00  0.00    +0.010 C 
BRANCH  23  25
ATOM     24  N   UNL     1      33.791 -16.319 -26.160  0.00  0.00    -0.244 NA
ATOM     25  C   UNL     1      34.975 -16.930 -24.219  0.00  0.00    -0.004 C 
ATOM     26  C   UNL     1      34.560 -15.665 -24.086  0.00  0.00    +0.011 C 
ATOM     27  C   UNL     1      33.829 -15.276 -25.275  0.00  0.00    +0.080 C 
ATOM     28  C   UNL     1      34.447 -17.260 -25.552  0.00  0.00    +0.094 C 
ATOM     29  C   UNL     1      34.755 -14.758 -22.984  0.00  0.00    -0.020 C 
ATOM     30  C   UNL     1      33.306 -14.049 -25.390  0.00  0.00    +0.015 C 
ATOM     31  C   UNL     1      33.461 -13.026 -24.282  0.00  0.00    -0.020 C 
ATOM     32  C   UNL     1      34.239 -13.518 -23.075  0.00  0.00    +0.052 C 
ENDBRANCH  23  25
ENDBRANCH  18  23
ENDBRANCH  17  18
ENDBRANCH   1  17
TORSDOF 7
ENDMDL
MODEL 6
REMARK VINA RESULT:     -12.4      1.397      2.058
REMARK  Name = 46937052
REMARK  7 active torsions:
REMARK  status: ('A' for Active; 'I' for Inactive)
REMARK    1  A    between atoms: O_1  and  C_3
REMARK    2  A    between atoms: O_1  and  C_17
REMARK    3  A    between atoms: C_4  and  C_11
REMARK    4  A    between atoms: C_17  and  C_18
REMARK    5  A    between atoms: C_18  and  N_19
REMARK    6  A    between atoms: C_18  and  C_23
REMARK    7  A    between atoms: C_23  and  C_25
REMARK                            x       y       z     vdW  Elec       q    Type
REMARK                         _______ _______ _______ _____ _____    ______ ____
ROOT
ATOM      1  O   UNL     1      35.313 -15.356 -23.294  0.00  0.00    -0.476 OA
ENDROOT
BRANCH   1   3
ATOM      2  N   UNL     1      34.675 -18.636 -24.784  0.00  0.00    -0.239 NA
ATOM      3  C   UNL     1      35.167 -16.715 -23.401  0.00  0.00    +0.158 C 
ATOM      4  C   UNL     1      35.196 -18.920 -22.441  0.00  0.00    +0.039 C 
ATOM      5  C   UNL     1      35.349 -17.545 -22.301  0.00  0.00    +0.042 C 
ATOM      6  C   UNL     1      34.834 -17.305 -24.610  0.00  0.00    +0.136 C 
ATOM      7  C   UNL     1      34.860 -19.411 -23.693  0.00  0.00    +0.101 C 
BRANCH   4  11
ATOM      8  N   UNL     1      36.559 -19.934 -20.766  0.00  0.00    -0.264 NA
ATOM      9  N   UNL     1      35.556 -22.386 -18.174  0.00  0.00    -0.150 NA
ATOM     10  N   UNL     1      34.173 -22.857 -18.101  0.00  0.00    -0.147 NA
ATOM     11  C   UNL     1      35.383 -19.835 -21.283  0.00  0.00    +0.078 C 
ATOM     12  C   UNL     1      34.348 -21.379 -19.807  0.00  0.00    +0.040 C 
ATOM     13  C   UNL     1      35.629 -21.538 -19.164  0.00  0.00    +0.107 C 
ATOM     14  C   UNL     1      36.836 -20.807 -19.624  0.00  0.00    +0.173 C 
ATOM     15  C   UNL     1      34.166 -20.573 -20.841  0.00  0.00    +0.022 C 
ATOM     16  C   UNL     1      33.501 -22.269 -19.048  0.00  0.00    +0.123 C 
ENDBRANCH   4  11
ENDBRANCH   1   3
BRANCH   1  17
ATOM     17  C   UNL     1      34.332 -14.665 -22.532  0.00  0.00    +0.184 C 
BRANCH  17  18
ATOM     18  C   UNL     1      33.653 -13.586 -23.385  0.00  0.00    -0.017 C 
BRANCH  18  19
ATOM     19  N   UNL     1      33.257 -14.189 -24.660  0.00  0.00    +0.384 N 
ATOM     20  H   UNL     1      33.131 -15.194 -24.536  0.00  0.00    -0.089 HD
ATOM     21  H   UNL     1      33.983 -14.021 -25.356  0.00  0.00    -0.089 HD
ATOM     22  H   UNL     1      32.380 -13.774 -24.974  0.00  0.00    -0.089 HD
ENDBRANCH  18  19
BRANCH  18  23
ATOM     23  C   UNL     1      32.404 -12.971 -22.706  0.00  0.00    +0.010 C 
BRANCH  23  25
ATOM     24  N   UNL     1      32.890  -9.297 -23.193  0.00  0.00    -0.244 NA
ATOM     25  C   UNL     1      32.464 -11.511 -22.513  0.00  0.00    -0.004 C 
ATOM     26  C   UNL     1      32.183 -10.688 -21.495  0.00  0.00    +0.011 C 
ATOM     27  C   UNL     1      32.441  -9.322 -21.901  0.00  0.00    +0.080 C 
ATOM     28  C   UNL     1      32.901 -10.549 -23.537  0.00  0.00    +0.094 C 
ATOM     29  C   UNL     1      31.698 -11.010 -20.177  0.00  0.00    -0.020 C 
ATOM     30  C   UNL     1      32.237  -8.304 -21.057  0.00  0.00    +0.015 C 
ATOM     31  C   UNL     1      31.729  -8.544 -19.648  0.00  0.00    -0.020 C 
ATOM     32  C   UNL     1      31.484 -10.004 -19.310  0.00  0.00    +0.052 C 
ENDBRANCH  23  25
ENDBRANCH  18  23
ENDBRANCH  17  18
ENDBRANCH   1  17
TORSDOF 7
ENDMDL
MODEL 7
REMARK VINA RESULT:     -12.4      5.516     12.341
REMARK  Name = 46937052
REMARK  7 active torsions:
REMARK  status: ('A' for Active; 'I' for Inactive)
REMARK    1  A    between atoms: O_1  and  C_3
REMARK    2  A    between atoms: O_1  and  C_17
REMARK    3  A    between atoms: C_4  and  C_11
REMARK    4  A    between atoms: C_17  and  C_18
REMARK    5  A    between atoms: C_18  and  N_19
REMARK    6  A    between atoms: C_18  and  C_23
REMARK    7  A    between atoms: C_23  and  C_25
REMARK                            x       y       z     vdW  Elec       q    Type
REMARK                         _______ _______ _______ _____ _____    ______ ____
ROOT
ATOM      1  O   UNL     1      36.186 -22.430 -18.648  0.00  0.00    -0.476 OA
ENDROOT
BRANCH   1   3
ATOM      2  N   UNL     1      32.830 -21.653 -19.880  0.00  0.00    -0.239 NA
ATOM      3  C   UNL     1      35.180 -21.800 -19.334  0.00  0.00    +0.158 C 
ATOM      4  C   UNL     1      34.406 -20.090 -20.839  0.00  0.00    +0.039 C 
ATOM      5  C   UNL     1      35.446 -20.710 -20.155  0.00  0.00    +0.042 C 
ATOM      6  C   UNL     1      33.867 -22.229 -19.232  0.00  0.00    +0.136 C 
ATOM      7  C   UNL     1      33.127 -20.596 -20.669  0.00  0.00    +0.101 C 
BRANCH   4  11
ATOM      8  N   UNL     1      34.973 -17.799 -21.180  0.00  0.00    -0.264 NA
ATOM      9  N   UNL     1      35.271 -15.969 -24.390  0.00  0.00    -0.150 NA
ATOM     10  N   UNL     1      35.014 -16.655 -25.656  0.00  0.00    -0.147 NA
ATOM     11  C   UNL     1      34.657 -18.922 -21.725  0.00  0.00    +0.078 C 
ATOM     12  C   UNL     1      34.729 -18.128 -23.961  0.00  0.00    +0.040 C 
ATOM     13  C   UNL     1      35.099 -16.839 -23.431  0.00  0.00    +0.107 C 
ATOM     14  C   UNL     1      35.241 -16.597 -21.974  0.00  0.00    +0.173 C 
ATOM     15  C   UNL     1      34.497 -19.175 -23.185  0.00  0.00    +0.022 C 
ATOM     16  C   UNL     1      34.702 -17.890 -25.385  0.00  0.00    +0.123 C 
ENDBRANCH   4  11
ENDBRANCH   1   3
BRANCH   1  17
ATOM     17  C   UNL     1      36.880 -21.659 -17.677  0.00  0.00    +0.184 C 
BRANCH  17  18
ATOM     18  C   UNL     1      36.848 -22.359 -16.313  0.00  0.00    -0.017 C 
BRANCH  18  19
ATOM     19  N   UNL     1      35.701 -23.272 -16.292  0.00  0.00    +0.384 N 
ATOM     20  H   UNL     1      35.729 -23.833 -15.441  0.00  0.00    -0.089 HD
ATOM     21  H   UNL     1      35.740 -23.886 -17.106  0.00  0.00    -0.089 HD
ATOM     22  H   UNL     1      34.836 -22.731 -16.314  0.00  0.00    -0.089 HD
ENDBRANCH  18  19
BRANCH  18  23
ATOM     23  C   UNL     1      38.138 -23.161 -16.011  0.00  0.00    +0.010 C 
BRANCH  23  25
ATOM     24  N   UNL     1      38.201 -26.413 -14.169  0.00  0.00    -0.244 NA
ATOM     25  C   UNL     1      37.983 -24.219 -14.996  0.00  0.00    -0.004 C 
ATOM     26  C   UNL     1      37.474 -24.263 -13.759  0.00  0.00    +0.011 C 
ATOM     27  C   UNL     1      37.602 -25.609 -13.239  0.00  0.00    +0.080 C 
ATOM     28  C   UNL     1      38.416 -25.614 -15.171  0.00  0.00    +0.094 C 
ATOM     29  C   UNL     1      36.877 -23.204 -12.987  0.00  0.00    -0.020 C 
ATOM     30  C   UNL     1      37.164 -25.915 -12.011  0.00  0.00    +0.015 C 
ATOM     31  C   UNL     1      36.521 -24.867 -11.125  0.00  0.00    -0.020 C 
ATOM     32  C   UNL     1      36.430 -23.486 -11.750  0.00  0.00    +0.052 C 
ENDBRANCH  23  25
ENDBRANCH  18  23
ENDBRANCH  17  18
ENDBRANCH   1  17
TORSDOF 7
ENDMDL
MODEL 8
REMARK VINA RESULT:     -12.4      1.140      1.371
REMARK  Name = 46937052
REMARK  7 active torsions:
REMARK  status: ('A' for Active; 'I' for Inactive)
REMARK    1  A    between atoms: O_1  and  C_3
REMARK    2  A    between atoms: O_1  and  C_17
REMARK    3  A    between atoms: C_4  and  C_11
REMARK    4  A    between atoms: C_17  and  C_18
REMARK    5  A    between atoms: C_18  and  N_19
REMARK    6  A    between atoms: C_18  and  C_23
REMARK    7  A    between atoms: C_23  and  C_25
REMARK                            x       y       z     vdW  Elec       q    Type
REMARK                         _______ _______ _______ _____ _____    ______ ____
ROOT
ATOM      1  O   UNL     1      35.280 -15.239 -23.256  0.00  0.00    -0.476 OA
ENDROOT
BRANCH   1   3
ATOM      2  N   UNL     1      34.549 -18.460 -24.828  0.00  0.00    -0.239 NA
ATOM      3  C   UNL     1      35.107 -16.591 -23.401  0.00  0.00    +0.158 C 
ATOM      4  C   UNL     1      35.114 -18.823 -22.506  0.00  0.00    +0.039 C 
ATOM      5  C   UNL     1      35.296 -17.456 -22.329  0.00  0.00    +0.042 C 
ATOM      6  C   UNL     1      34.737 -17.138 -24.618  0.00  0.00    +0.136 C 
ATOM      7  C   UNL     1      34.743 -19.270 -23.764  0.00  0.00    +0.101 C 
BRANCH   4  11
ATOM      8  N   UNL     1      36.505 -19.968 -20.942  0.00  0.00    -0.264 NA
ATOM      9  N   UNL     1      35.495 -22.403 -18.336  0.00  0.00    -0.150 NA
ATOM     10  N   UNL     1      34.089 -22.779 -18.183  0.00  0.00    -0.147 NA
ATOM     11  C   UNL     1      35.308 -19.776 -21.380  0.00  0.00    +0.078 C 
ATOM     12  C   UNL     1      34.261 -21.277 -19.869  0.00  0.00    +0.040 C 
ATOM     13  C   UNL     1      35.566 -21.539 -19.313  0.00  0.00    +0.107 C 
ATOM     14  C   UNL     1      36.790 -20.885 -19.836  0.00  0.00    +0.173 C 
ATOM     15  C   UNL     1      34.073 -20.437 -20.874  0.00  0.00    +0.022 C 
ATOM     16  C   UNL     1      33.402 -22.123 -19.074  0.00  0.00    +0.123 C 
ENDBRANCH   4  11
ENDBRANCH   1   3
BRANCH   1  17
ATOM     17  C   UNL     1      34.328 -14.552 -22.455  0.00  0.00    +0.184 C 
BRANCH  17  18
ATOM     18  C   UNL     1      33.817 -13.302 -23.183  0.00  0.00    -0.017 C 
BRANCH  18  19
ATOM     19  N   UNL     1      33.912 -13.539 -24.626  0.00  0.00    +0.384 N 
ATOM     20  H   UNL     1      33.029 -13.288 -25.070  0.00  0.00    -0.089 HD
ATOM     21  H   UNL     1      34.110 -14.525 -24.796  0.00  0.00    -0.089 HD
ATOM     22  H   UNL     1      34.663 -12.969 -25.015  0.00  0.00    -0.089 HD
ENDBRANCH  18  19
BRANCH  18  23
ATOM     23  C   UNL     1      32.353 -12.945 -22.823  0.00  0.00    +0.010 C 
BRANCH  23  25
ATOM     24  N   UNL     1      31.867 -10.679 -19.891  0.00  0.00    -0.244 NA
ATOM     25  C   UNL     1      32.202 -11.765 -21.954  0.00  0.00    -0.004 C 
ATOM     26  C   UNL     1      32.217 -10.442 -22.159  0.00  0.00    +0.011 C 
ATOM     27  C   UNL     1      32.012  -9.762 -20.897  0.00  0.00    +0.080 C 
ATOM     28  C   UNL     1      31.977 -11.821 -20.501  0.00  0.00    +0.094 C 
ATOM     29  C   UNL     1      32.401  -9.718 -23.391  0.00  0.00    -0.020 C 
ATOM     30  C   UNL     1      31.985  -8.425 -20.833  0.00  0.00    +0.015 C 
ATOM     31  C   UNL     1      32.168  -7.578 -22.077  0.00  0.00    -0.020 C 
ATOM     32  C   UNL     1      32.378  -8.374 -23.353  0.00  0.00    +0.052 C 
ENDBRANCH  23  25
ENDBRANCH  18  23
ENDBRANCH  17  18
ENDBRANCH   1  17
TORSDOF 7
ENDMDL
MODEL 9
REMARK VINA RESULT:     -12.3      3.295     11.105
REMARK  Name = 46937052
REMARK  7 active torsions:
REMARK  status: ('A' for Active; 'I' for Inactive)
REMARK    1  A    between atoms: O_1  and  C_3
REMARK    2  A    between atoms: O_1  and  C_17
REMARK    3  A    between atoms: C_4  and  C_11
REMARK    4  A    between atoms: C_17  and  C_18
REMARK    5  A    between atoms: C_18  and  N_19
REMARK    6  A    between atoms: C_18  and  C_23
REMARK    7  A    between atoms: C_23  and  C_25
REMARK                            x       y       z     vdW  Elec       q    Type
REMARK                         _______ _______ _______ _____ _____    ______ ____
ROOT
ATOM      1  O   UNL     1      31.633 -12.218 -21.101  0.00  0.00    -0.476 OA
ENDROOT
BRANCH   1   3
ATOM      2  N   UNL     1      32.291  -9.141 -19.235  0.00  0.00    -0.239 NA
ATOM      3  C   UNL     1      31.896 -10.896 -20.849  0.00  0.00    +0.158 C 
ATOM      4  C   UNL     1      32.299  -8.648 -21.602  0.00  0.00    +0.039 C 
ATOM      5  C   UNL     1      32.032  -9.982 -21.887  0.00  0.00    +0.042 C 
ATOM      6  C   UNL     1      32.033 -10.429 -19.552  0.00  0.00    +0.136 C 
ATOM      7  C   UNL     1      32.418  -8.281 -20.270  0.00  0.00    +0.101 C 
BRANCH   4  11
ATOM      8  N   UNL     1      31.421  -6.945 -23.023  0.00  0.00    -0.264 NA
ATOM      9  N   UNL     1      33.187  -5.025 -25.656  0.00  0.00    -0.150 NA
ATOM     10  N   UNL     1      34.599  -5.286 -25.937  0.00  0.00    -0.147 NA
ATOM     11  C   UNL     1      32.450  -7.644 -22.690  0.00  0.00    +0.078 C 
ATOM     12  C   UNL     1      33.924  -6.661 -24.269  0.00  0.00    +0.040 C 
ATOM     13  C   UNL     1      32.824  -5.830 -24.694  0.00  0.00    +0.107 C 
ATOM     14  C   UNL     1      31.477  -5.934 -24.080  0.00  0.00    +0.173 C 
ATOM     15  C   UNL     1      33.804  -7.561 -23.307  0.00  0.00    +0.022 C 
ATOM     16  C   UNL     1      34.998  -6.229 -25.132  0.00  0.00    +0.123 C 
ENDBRANCH   4  11
ENDBRANCH   1   3
BRANCH   1  17
ATOM     17  C   UNL     1      32.747 -13.101 -21.113  0.00  0.00    +0.184 C 
BRANCH  17  18
ATOM     18  C   UNL     1      32.749 -13.944 -22.395  0.00  0.00    -0.017 C 
BRANCH  18  19
ATOM     19  N   UNL     1      31.916 -13.266 -23.392  0.00  0.00    +0.384 N 
ATOM     20  H   UNL     1      31.123 -12.823 -22.927  0.00  0.00    -0.089 HD
ATOM     21  H   UNL     1      31.576 -13.947 -24.071  0.00  0.00    -0.089 HD
ATOM     22  H   UNL     1      32.469 -12.555 -23.870  0.00  0.00    -0.089 HD
ENDBRANCH  18  19
BRANCH  18  23
ATOM     23  C   UNL     1      34.167 -14.156 -22.980  0.00  0.00    +0.010 C 
BRANCH  23  25
ATOM     24  N   UNL     1      34.236 -16.465 -25.918  0.00  0.00    -0.244 NA
ATOM     25  C   UNL     1      34.304 -15.336 -23.853  0.00  0.00    -0.004 C 
ATOM     26  C   UNL     1      34.638 -16.616 -23.652  0.00  0.00    +0.011 C 
ATOM     27  C   UNL     1      34.600 -17.322 -24.916  0.00  0.00    +0.080 C 
ATOM     28  C   UNL     1      34.068 -15.332 -25.305  0.00  0.00    +0.094 C 
ATOM     29  C   UNL     1      34.994 -17.277 -22.423  0.00  0.00    -0.020 C 
ATOM     30  C   UNL     1      34.897 -18.626 -24.983  0.00  0.00    +0.015 C 
ATOM     31  C   UNL     1      35.282 -19.407 -23.742  0.00  0.00    -0.020 C 
ATOM     32  C   UNL     1      35.297 -18.587 -22.464  0.00  0.00    +0.052 C 
ENDBRANCH  23  25
ENDBRANCH  18  23
ENDBRANCH  17  18
ENDBRANCH   1  17
TORSDOF 7
ENDMDL
