MODEL 1
REMARK VINA RESULT:     -13.1      0.000      0.000
REMARK  Name = 198752
REMARK  6 active torsions:
REMARK  status: ('A' for Active; 'I' for Inactive)
REMARK    1  A    between atoms: C_1  and  C_3
REMARK    2  A    between atoms: C_1  and  C_16
REMARK    3  A    between atoms: N_2  and  C_9
REMARK    4  A    between atoms: C_9  and  C_10
REMARK    5  A    between atoms: C_16  and  C_18
REMARK    6  A    between atoms: C_18  and  C_20
REMARK                            x       y       z     vdW  Elec       q    Type
REMARK                         _______ _______ _______ _____ _____    ______ ____
ROOT
ATOM      1  C   UNL     1      36.290 -18.797 -21.236  0.00  0.00    +0.008 C 
ENDROOT
BRANCH   1   3
ATOM      2  N   UNL     1      34.156 -21.917 -19.146  0.00  0.00    +0.390 N 
ATOM      3  C   UNL     1      35.600 -20.131 -20.969  0.00  0.00    -0.004 C 
ATOM      4  C   UNL     1      34.123 -19.926 -20.613  0.00  0.00    -0.023 C 
ATOM      5  C   UNL     1      36.301 -20.900 -19.843  0.00  0.00    -0.023 C 
ATOM      6  C   UNL     1      33.449 -21.250 -20.247  0.00  0.00    -0.077 C 
ATOM      7  C   UNL     1      35.555 -22.191 -19.503  0.00  0.00    -0.077 C 
ATOM      8  H   UNL     1      34.154 -21.288 -18.343  0.00  0.00    -0.079 HD
BRANCH   2   9
ATOM      9  C   UNL     1      33.472 -23.155 -18.772  0.00  0.00    -0.050 C 
BRANCH   9  10
ATOM     10  C   UNL     1      33.092 -23.168 -17.316  0.00  0.00    -0.043 C 
ATOM     11  C   UNL     1      34.068 -23.406 -16.358  0.00  0.00    -0.006 C 
ATOM     12  C   UNL     1      31.772 -22.940 -16.950  0.00  0.00    -0.006 C 
ATOM     13  C   UNL     1      33.716 -23.418 -15.008  0.00  0.00    -0.000 C 
ATOM     14  C   UNL     1      31.421 -22.952 -15.601  0.00  0.00    -0.000 C 
ATOM     15  C   UNL     1      32.393 -23.192 -14.629  0.00  0.00    -0.000 C 
ENDBRANCH   9  10
ENDBRANCH   2   9
ENDBRANCH   1   3
BRANCH   1  16
ATOM     16  C   UNL     1      36.739 -18.679 -22.693  0.00  0.00    +0.069 C 
BRANCH  16  18
ATOM     17  O   UNL     1      35.186 -19.844 -24.122  0.00  0.00    -0.291 OA
ATOM     18  C   UNL     1      35.574 -18.735 -23.699  0.00  0.00    +0.173 C 
BRANCH  18  20
ATOM     19  N   UNL     1      34.296 -14.141 -22.780  0.00  0.00    -0.333 N 
ATOM     20  C   UNL     1      34.942 -17.505 -24.146  0.00  0.00    +0.036 C 
ATOM     21  C   UNL     1      33.736 -15.109 -24.995  0.00  0.00    -0.009 C 
ATOM     22  C   UNL     1      33.108 -13.855 -25.572  0.00  0.00    +0.028 C 
ATOM     23  C   UNL     1      34.310 -15.176 -23.706  0.00  0.00    +0.041 C 
ATOM     24  C   UNL     1      33.902 -12.583 -25.277  0.00  0.00    +0.006 C 
ATOM     25  C   UNL     1      33.685 -12.021 -23.873  0.00  0.00    +0.022 C 
ATOM     26  C   UNL     1      34.924 -16.385 -23.314  0.00  0.00    +0.017 C 
ATOM     27  C   UNL     1      33.341 -13.055 -22.811  0.00  0.00    +0.087 C 
ATOM     28  C   UNL     1      34.344 -17.443 -25.394  0.00  0.00    +0.003 C 
ATOM     29  C   UNL     1      33.745 -16.257 -25.814  0.00  0.00    -0.003 C 
ATOM     30  H   UNL     1      34.972 -14.146 -22.064  0.00  0.00    +0.147 HD
ENDBRANCH  18  20
ENDBRANCH  16  18
ENDBRANCH   1  16
TORSDOF 6
ENDMDL
MODEL 2
REMARK VINA RESULT:     -13.0      2.390      9.957
REMARK  Name = 198752
REMARK  6 active torsions:
REMARK  status: ('A' for Active; 'I' for Inactive)
REMARK    1  A    between atoms: C_1  and  C_3
REMARK    2  A    between atoms: C_1  and  C_16
REMARK    3  A    between atoms: N_2  and  C_9
REMARK    4  A    between atoms: C_9  and  C_10
REMARK    5  A    between atoms: C_16  and  C_18
REMARK    6  A    between atoms: C_18  and  C_20
REMARK                            x       y       z     vdW  Elec       q    Type
REMARK                         _______ _______ _______ _____ _____    ______ ____
ROOT
ATOM      1  C   UNL     1      36.425 -21.535 -19.204  0.00  0.00    +0.008 C 
ENDROOT
BRANCH   1   3
ATOM      2  N   UNL     1      35.570 -18.255 -21.880  0.00  0.00    +0.390 N 
ATOM      3  C   UNL     1      36.272 -20.744 -20.500  0.00  0.00    -0.004 C 
ATOM      4  C   UNL     1      37.195 -19.521 -20.511  0.00  0.00    -0.023 C 
ATOM      5  C   UNL     1      34.820 -20.298 -20.705  0.00  0.00    -0.023 C 
ATOM      6  C   UNL     1      36.974 -18.669 -21.762  0.00  0.00    -0.077 C 
ATOM      7  C   UNL     1      34.678 -19.420 -21.949  0.00  0.00    -0.077 C 
ATOM      8  H   UNL     1      35.327 -17.722 -21.045  0.00  0.00    -0.079 HD
BRANCH   2   9
ATOM      9  C   UNL     1      35.384 -17.398 -23.052  0.00  0.00    -0.050 C 
BRANCH   9  10
ATOM     10  C   UNL     1      34.662 -16.124 -22.705  0.00  0.00    -0.043 C 
ATOM     11  C   UNL     1      34.532 -15.753 -21.374  0.00  0.00    -0.006 C 
ATOM     12  C   UNL     1      34.136 -15.337 -23.721  0.00  0.00    -0.006 C 
ATOM     13  C   UNL     1      33.862 -14.572 -21.053  0.00  0.00    -0.000 C 
ATOM     14  C   UNL     1      33.468 -14.156 -23.400  0.00  0.00    -0.000 C 
ATOM     15  C   UNL     1      33.330 -13.774 -22.065  0.00  0.00    -0.000 C 
ENDBRANCH   9  10
ENDBRANCH   2   9
ENDBRANCH   1   3
BRANCH   1  16
ATOM     16  C   UNL     1      35.080 -22.060 -18.704  0.00  0.00    +0.069 C 
BRANCH  16  18
ATOM     17  O   UNL     1      36.283 -23.001 -16.839  0.00  0.00    -0.291 OA
ATOM     18  C   UNL     1      35.163 -22.749 -17.329  0.00  0.00    +0.173 C 
BRANCH  18  20
ATOM     19  N   UNL     1      30.309 -22.823 -17.175  0.00  0.00    -0.333 N 
ATOM     20  C   UNL     1      33.944 -23.098 -16.618  0.00  0.00    +0.036 C 
ATOM     21  C   UNL     1      31.572 -23.779 -15.266  0.00  0.00    -0.009 C 
ATOM     22  C   UNL     1      30.361 -24.234 -14.475  0.00  0.00    +0.028 C 
ATOM     23  C   UNL     1      31.493 -23.164 -16.536  0.00  0.00    +0.041 C 
ATOM     24  C   UNL     1      29.294 -24.916 -15.330  0.00  0.00    +0.006 C 
ATOM     25  C   UNL     1      28.399 -23.948 -16.104  0.00  0.00    +0.022 C 
ATOM     26  C   UNL     1      32.699 -22.851 -17.198  0.00  0.00    +0.017 C 
ATOM     27  C   UNL     1      29.055 -22.628 -16.482  0.00  0.00    +0.087 C 
ATOM     28  C   UNL     1      34.013 -23.668 -15.356  0.00  0.00    +0.003 C 
ATOM     29  C   UNL     1      32.838 -24.003 -14.686  0.00  0.00    -0.003 C 
ATOM     30  H   UNL     1      30.323 -22.707 -18.153  0.00  0.00    +0.147 HD
ENDBRANCH  18  20
ENDBRANCH  16  18
ENDBRANCH   1  16
TORSDOF 6
ENDMDL
MODEL 3
REMARK VINA RESULT:     -13.0      2.841      5.573
REMARK  Name = 198752
REMARK  6 active torsions:
REMARK  status: ('A' for Active; 'I' for Inactive)
REMARK    1  A    between atoms: C_1  and  C_3
REMARK    2  A    between atoms: C_1  and  C_16
REMARK    3  A    between atoms: N_2  and  C_9
REMARK    4  A    between atoms: C_9  and  C_10
REMARK    5  A    between atoms: C_16  and  C_18
REMARK    6  A    between atoms: C_18  and  C_20
REMARK                            x       y       z     vdW  Elec       q    Type
REMARK                         _______ _______ _______ _____ _____    ______ ____
ROOT
ATOM      1  C   UNL     1      34.051 -15.620 -25.689  0.00  0.00    +0.008 C 
ENDROOT
BRANCH   1   3
ATOM      2  N   UNL     1      35.330 -18.380 -22.623  0.00  0.00    +0.390 N 
ATOM      3  C   UNL     1      34.967 -16.495 -24.839  0.00  0.00    -0.004 C 
ATOM      4  C   UNL     1      34.569 -17.971 -24.941  0.00  0.00    -0.023 C 
ATOM      5  C   UNL     1      34.945 -16.053 -23.372  0.00  0.00    -0.023 C 
ATOM      6  C   UNL     1      35.419 -18.842 -24.014  0.00  0.00    -0.077 C 
ATOM      7  C   UNL     1      35.782 -16.988 -22.497  0.00  0.00    -0.077 C 
ATOM      8  H   UNL     1      34.351 -18.419 -22.341  0.00  0.00    -0.079 HD
BRANCH   2   9
ATOM      9  C   UNL     1      36.106 -19.252 -21.741  0.00  0.00    -0.050 C 
BRANCH   9  10
ATOM     10  C   UNL     1      35.220 -20.147 -20.917  0.00  0.00    -0.043 C 
ATOM     11  C   UNL     1      35.791 -21.145 -20.139  0.00  0.00    -0.006 C 
ATOM     12  C   UNL     1      33.844 -19.963 -20.945  0.00  0.00    -0.006 C 
ATOM     13  C   UNL     1      34.970 -21.975 -19.375  0.00  0.00    -0.000 C 
ATOM     14  C   UNL     1      33.024 -20.792 -20.182  0.00  0.00    -0.000 C 
ATOM     15  C   UNL     1      33.587 -21.799 -19.397  0.00  0.00    -0.000 C 
ENDBRANCH   9  10
ENDBRANCH   2   9
ENDBRANCH   1   3
BRANCH   1  16
ATOM     16  C   UNL     1      32.994 -14.918 -24.836  0.00  0.00    +0.069 C 
BRANCH  16  18
ATOM     17  O   UNL     1      33.780 -12.755 -25.553  0.00  0.00    -0.291 OA
ATOM     18  C   UNL     1      33.274 -13.418 -24.625  0.00  0.00    +0.173 C 
BRANCH  18  20
ATOM     19  N   UNL     1      32.636  -9.365 -22.026  0.00  0.00    -0.333 N 
ATOM     20  C   UNL     1      32.948 -12.791 -23.354  0.00  0.00    +0.036 C 
ATOM     21  C   UNL     1      32.305 -11.556 -20.910  0.00  0.00    -0.009 C 
ATOM     22  C   UNL     1      31.896 -10.997 -19.561  0.00  0.00    +0.028 C 
ATOM     23  C   UNL     1      32.599 -10.753 -22.034  0.00  0.00    +0.041 C 
ATOM     24  C   UNL     1      30.910  -9.833 -19.656  0.00  0.00    +0.006 C 
ATOM     25  C   UNL     1      31.557  -8.490 -19.993  0.00  0.00    +0.022 C 
ATOM     26  C   UNL     1      32.901 -11.400 -23.252  0.00  0.00    +0.017 C 
ATOM     27  C   UNL     1      32.827  -8.579 -20.827  0.00  0.00    +0.087 C 
ATOM     28  C   UNL     1      32.694 -13.571 -22.237  0.00  0.00    +0.003 C 
ATOM     29  C   UNL     1      32.378 -12.960 -21.026  0.00  0.00    -0.003 C 
ATOM     30  H   UNL     1      32.527  -8.890 -22.881  0.00  0.00    +0.147 HD
ENDBRANCH  18  20
ENDBRANCH  16  18
ENDBRANCH   1  16
TORSDOF 6
ENDMDL
MODEL 4
REMARK VINA RESULT:     -12.9      2.574      9.872
REMARK  Name = 198752
REMARK  6 active torsions:
REMARK  status: ('A' for Active; 'I' for Inactive)
REMARK    1  A    between atoms: C_1  and  C_3
REMARK    2  A    between atoms: C_1  and  C_16
REMARK    3  A    between atoms: N_2  and  C_9
REMARK    4  A    between atoms: C_9  and  C_10
REMARK    5  A    between atoms: C_16  and  C_18
REMARK    6  A    between atoms: C_18  and  C_20
REMARK                            x       y       z     vdW  Elec       q    Type
REMARK                         _______ _______ _______ _____ _____    ______ ____
ROOT
ATOM      1  C   UNL     1      34.951 -15.490 -22.767  0.00  0.00    +0.008 C 
ENDROOT
BRANCH   1   3
ATOM      2  N   UNL     1      32.398 -12.129 -21.850  0.00  0.00    +0.390 N 
ATOM      3  C   UNL     1      33.686 -14.651 -22.608  0.00  0.00    -0.004 C 
ATOM      4  C   UNL     1      33.739 -13.402 -23.493  0.00  0.00    -0.023 C 
ATOM      5  C   UNL     1      33.477 -14.241 -21.146  0.00  0.00    -0.023 C 
ATOM      6  C   UNL     1      32.521 -12.505 -23.265  0.00  0.00    -0.077 C 
ATOM      7  C   UNL     1      32.268 -13.317 -20.996  0.00  0.00    -0.077 C 
ATOM      8  H   UNL     1      33.250 -11.639 -21.580  0.00  0.00    -0.079 HD
BRANCH   2   9
ATOM      9  C   UNL     1      31.260 -11.231 -21.655  0.00  0.00    -0.050 C 
BRANCH   9  10
ATOM     10  C   UNL     1      31.687  -9.789 -21.598  0.00  0.00    -0.043 C 
ATOM     11  C   UNL     1      31.563  -8.994 -22.729  0.00  0.00    -0.006 C 
ATOM     12  C   UNL     1      32.198  -9.273 -20.415  0.00  0.00    -0.006 C 
ATOM     13  C   UNL     1      31.960  -7.658 -22.676  0.00  0.00    -0.000 C 
ATOM     14  C   UNL     1      32.594  -7.937 -20.362  0.00  0.00    -0.000 C 
ATOM     15  C   UNL     1      32.475  -7.129 -21.493  0.00  0.00    -0.000 C 
ENDBRANCH   9  10
ENDBRANCH   2   9
ENDBRANCH   1   3
BRANCH   1  16
ATOM     16  C   UNL     1      35.123 -15.978 -24.206  0.00  0.00    +0.069 C 
BRANCH  16  18
ATOM     17  O   UNL     1      34.840 -18.018 -25.458  0.00  0.00    -0.291 OA
ATOM     18  C   UNL     1      35.080 -17.512 -24.343  0.00  0.00    +0.173 C 
BRANCH  18  20
ATOM     19  N   UNL     1      33.342 -20.552 -20.977  0.00  0.00    -0.333 N 
ATOM     20  C   UNL     1      35.318 -18.351 -23.180  0.00  0.00    +0.036 C 
ATOM     21  C   UNL     1      35.759 -19.993 -20.938  0.00  0.00    -0.009 C 
ATOM     22  C   UNL     1      36.119 -20.885 -19.766  0.00  0.00    +0.028 C 
ATOM     23  C   UNL     1      34.460 -19.906 -21.487  0.00  0.00    +0.041 C 
ATOM     24  C   UNL     1      35.476 -22.270 -19.834  0.00  0.00    +0.006 C 
ATOM     25  C   UNL     1      34.015 -22.305 -19.386  0.00  0.00    +0.022 C 
ATOM     26  C   UNL     1      34.273 -19.089 -22.622  0.00  0.00    +0.017 C 
ATOM     27  C   UNL     1      33.242 -21.014 -19.611  0.00  0.00    +0.087 C 
ATOM     28  C   UNL     1      36.581 -18.413 -22.613  0.00  0.00    +0.003 C 
ATOM     29  C   UNL     1      36.800 -19.224 -21.502  0.00  0.00    -0.003 C 
ATOM     30  H   UNL     1      32.576 -20.702 -21.577  0.00  0.00    +0.147 HD
ENDBRANCH  18  20
ENDBRANCH  16  18
ENDBRANCH   1  16
TORSDOF 6
ENDMDL
MODEL 5
REMARK VINA RESULT:     -12.9      3.260     11.054
REMARK  Name = 198752
REMARK  6 active torsions:
REMARK  status: ('A' for Active; 'I' for Inactive)
REMARK    1  A    between atoms: C_1  and  C_3
REMARK    2  A    between atoms: C_1  and  C_16
REMARK    3  A    between atoms: N_2  and  C_9
REMARK    4  A    between atoms: C_9  and  C_10
REMARK    5  A    between atoms: C_16  and  C_18
REMARK    6  A    between atoms: C_18  and  C_20
REMARK                            x       y       z     vdW  Elec       q    Type
REMARK                         _______ _______ _______ _____ _____    ______ ____
ROOT
ATOM      1  C   UNL     1      32.908 -22.336 -18.524  0.00  0.00    +0.008 C 
ENDROOT
BRANCH   1   3
ATOM      2  N   UNL     1      35.603 -19.734 -20.674  0.00  0.00    +0.390 N 
ATOM      3  C   UNL     1      33.821 -21.815 -19.630  0.00  0.00    -0.004 C 
ATOM      4  C   UNL     1      35.252 -21.623 -19.116  0.00  0.00    -0.023 C 
ATOM      5  C   UNL     1      33.296 -20.494 -20.203  0.00  0.00    -0.023 C 
ATOM      6  C   UNL     1      36.151 -21.008 -20.191  0.00  0.00    -0.077 C 
ATOM      7  C   UNL     1      34.260 -19.916 -21.241  0.00  0.00    -0.077 C 
ATOM      8  H   UNL     1      35.525 -19.102 -19.877  0.00  0.00    -0.079 HD
BRANCH   2   9
ATOM      9  C   UNL     1      36.498 -19.132 -21.662  0.00  0.00    -0.050 C 
BRANCH   9  10
ATOM     10  C   UNL     1      35.737 -18.524 -22.811  0.00  0.00    -0.043 C 
ATOM     11  C   UNL     1      35.524 -17.153 -22.839  0.00  0.00    -0.006 C 
ATOM     12  C   UNL     1      35.261 -19.343 -23.825  0.00  0.00    -0.006 C 
ATOM     13  C   UNL     1      34.819 -16.590 -23.903  0.00  0.00    -0.000 C 
ATOM     14  C   UNL     1      34.556 -18.780 -24.889  0.00  0.00    -0.000 C 
ATOM     15  C   UNL     1      34.335 -17.403 -24.928  0.00  0.00    -0.000 C 
ENDBRANCH   9  10
ENDBRANCH   2   9
ENDBRANCH   1   3
BRANCH   1  16
ATOM     16  C   UNL     1      33.563 -23.477 -17.746  0.00  0.00    +0.069 C 
BRANCH  16  18
ATOM     17  O   UNL     1      32.106 -23.061 -15.871  0.00  0.00    -0.291 OA
ATOM     18  C   UNL     1      33.227 -23.466 -16.243  0.00  0.00    +0.173 C 
BRANCH  18  20
ATOM     19  N   UNL     1      37.670 -25.202 -15.331  0.00  0.00    -0.333 N 
ATOM     20  C   UNL     1      34.211 -23.926 -15.276  0.00  0.00    +0.036 C 
ATOM     21  C   UNL     1      36.136 -24.804 -13.422  0.00  0.00    -0.009 C 
ATOM     22  C   UNL     1      37.112 -25.208 -12.335  0.00  0.00    +0.028 C 
ATOM     23  C   UNL     1      36.460 -24.780 -14.797  0.00  0.00    +0.041 C 
ATOM     24  C   UNL     1      38.520 -24.650 -12.541  0.00  0.00    +0.006 C 
ATOM     25  C   UNL     1      39.359 -25.427 -13.555  0.00  0.00    +0.022 C 
ATOM     26  C   UNL     1      35.480 -24.318 -15.702  0.00  0.00    +0.017 C 
ATOM     27  C   UNL     1      38.565 -26.115 -14.655  0.00  0.00    +0.087 C 
ATOM     28  C   UNL     1      33.888 -23.987 -13.930  0.00  0.00    +0.003 C 
ATOM     29  C   UNL     1      34.841 -24.423 -13.012  0.00  0.00    -0.003 C 
ATOM     30  H   UNL     1      37.933 -24.863 -16.217  0.00  0.00    +0.147 HD
ENDBRANCH  18  20
ENDBRANCH  16  18
ENDBRANCH   1  16
TORSDOF 6
ENDMDL
MODEL 6
REMARK VINA RESULT:     -12.8      3.291      6.150
REMARK  Name = 198752
REMARK  6 active torsions:
REMARK  status: ('A' for Active; 'I' for Inactive)
REMARK    1  A    between atoms: C_1  and  C_3
REMARK    2  A    between atoms: C_1  and  C_16
REMARK    3  A    between atoms: N_2  and  C_9
REMARK    4  A    between atoms: C_9  and  C_10
REMARK    5  A    between atoms: C_16  and  C_18
REMARK    6  A    between atoms: C_18  and  C_20
REMARK                            x       y       z     vdW  Elec       q    Type
REMARK                         _______ _______ _______ _____ _____    ______ ____
ROOT
ATOM      1  C   UNL     1      34.162 -13.910 -23.150  0.00  0.00    +0.008 C 
ENDROOT
BRANCH   1   3
ATOM      2  N   UNL     1      34.962 -18.094 -22.437  0.00  0.00    +0.390 N 
ATOM      3  C   UNL     1      34.936 -15.216 -22.996  0.00  0.00    -0.004 C 
ATOM      4  C   UNL     1      34.467 -16.257 -24.018  0.00  0.00    -0.023 C 
ATOM      5  C   UNL     1      34.788 -15.780 -21.579  0.00  0.00    -0.023 C 
ATOM      6  C   UNL     1      35.167 -17.601 -23.805  0.00  0.00    -0.077 C 
ATOM      7  C   UNL     1      35.478 -17.139 -21.447  0.00  0.00    -0.077 C 
ATOM      8  H   UNL     1      33.959 -18.193 -22.285  0.00  0.00    -0.079 HD
BRANCH   2   9
ATOM      9  C   UNL     1      35.593 -19.402 -22.263  0.00  0.00    -0.050 C 
BRANCH   9  10
ATOM     10  C   UNL     1      34.917 -20.212 -21.189  0.00  0.00    -0.043 C 
ATOM     11  C   UNL     1      33.541 -20.123 -21.031  0.00  0.00    -0.006 C 
ATOM     12  C   UNL     1      35.678 -21.036 -20.372  0.00  0.00    -0.006 C 
ATOM     13  C   UNL     1      32.914 -20.873 -20.036  0.00  0.00    -0.000 C 
ATOM     14  C   UNL     1      35.052 -21.786 -19.377  0.00  0.00    -0.000 C 
ATOM     15  C   UNL     1      33.669 -21.704 -19.209  0.00  0.00    -0.000 C 
ENDBRANCH   9  10
ENDBRANCH   2   9
ENDBRANCH   1   3
BRANCH   1  16
ATOM     16  C   UNL     1      32.698 -14.073 -22.741  0.00  0.00    +0.069 C 
BRANCH  16  18
ATOM     17  O   UNL     1      32.164 -14.082 -20.391  0.00  0.00    -0.291 OA
ATOM     18  C   UNL     1      32.354 -13.383 -21.408  0.00  0.00    +0.173 C 
BRANCH  18  20
ATOM     19  N   UNL     1      32.716  -9.085 -23.640  0.00  0.00    -0.333 N 
ATOM     20  C   UNL     1      32.254 -11.934 -21.345  0.00  0.00    +0.036 C 
ATOM     21  C   UNL     1      32.050  -9.129 -21.251  0.00  0.00    -0.009 C 
ATOM     22  C   UNL     1      31.862  -7.633 -21.101  0.00  0.00    +0.028 C 
ATOM     23  C   UNL     1      32.409  -9.757 -22.464  0.00  0.00    +0.041 C 
ATOM     24  C   UNL     1      31.117  -6.991 -22.271  0.00  0.00    +0.006 C 
ATOM     25  C   UNL     1      31.986  -6.738 -23.502  0.00  0.00    +0.022 C 
ATOM     26  C   UNL     1      32.486 -11.166 -22.486  0.00  0.00    +0.017 C 
ATOM     27  C   UNL     1      33.147  -7.705 -23.681  0.00  0.00    +0.087 C 
ATOM     28  C   UNL     1      31.938 -11.309 -20.149  0.00  0.00    +0.003 C 
ATOM     29  C   UNL     1      31.839  -9.921 -20.101  0.00  0.00    -0.003 C 
ATOM     30  H   UNL     1      32.637  -9.573 -24.491  0.00  0.00    +0.147 HD
ENDBRANCH  18  20
ENDBRANCH  16  18
ENDBRANCH   1  16
TORSDOF 6
ENDMDL
MODEL 7
REMARK VINA RESULT:     -12.7      1.284      2.057
REMARK  Name = 198752
REMARK  6 active torsions:
REMARK  status: ('A' for Active; 'I' for Inactive)
REMARK    1  A    between atoms: C_1  and  C_3
REMARK    2  A    between atoms: C_1  and  C_16
REMARK    3  A    between atoms: N_2  and  C_9
REMARK    4  A    between atoms: C_9  and  C_10
REMARK    5  A    between atoms: C_16  and  C_18
REMARK    6  A    between atoms: C_18  and  C_20
REMARK                            x       y       z     vdW  Elec       q    Type
REMARK                         _______ _______ _______ _____ _____    ______ ____
ROOT
ATOM      1  C   UNL     1      36.824 -20.383 -20.027  0.00  0.00    +0.008 C 
ENDROOT
BRANCH   1   3
ATOM      2  N   UNL     1      34.487 -22.760 -17.281  0.00  0.00    +0.390 N 
ATOM      3  C   UNL     1      36.254 -21.607 -19.317  0.00  0.00    -0.004 C 
ATOM      4  C   UNL     1      34.734 -21.690 -19.498  0.00  0.00    -0.023 C 
ATOM      5  C   UNL     1      36.596 -21.587 -17.823  0.00  0.00    -0.023 C 
ATOM      6  C   UNL     1      34.143 -22.858 -18.706  0.00  0.00    -0.077 C 
ATOM      7  C   UNL     1      35.943 -22.757 -17.087  0.00  0.00    -0.077 C 
ATOM      8  H   UNL     1      34.121 -21.876 -16.929  0.00  0.00    -0.079 HD
BRANCH   2   9
ATOM      9  C   UNL     1      33.872 -23.854 -16.529  0.00  0.00    -0.050 C 
BRANCH   9  10
ATOM     10  C   UNL     1      32.521 -23.471 -15.986  0.00  0.00    -0.043 C 
ATOM     11  C   UNL     1      32.317 -23.451 -14.613  0.00  0.00    -0.006 C 
ATOM     12  C   UNL     1      31.498 -23.142 -16.865  0.00  0.00    -0.006 C 
ATOM     13  C   UNL     1      31.065 -23.097 -14.111  0.00  0.00    -0.000 C 
ATOM     14  C   UNL     1      30.247 -22.787 -16.363  0.00  0.00    -0.000 C 
ATOM     15  C   UNL     1      30.030 -22.765 -14.985  0.00  0.00    -0.000 C 
ENDBRANCH   9  10
ENDBRANCH   2   9
ENDBRANCH   1   3
BRANCH   1  16
ATOM     16  C   UNL     1      35.854 -19.840 -21.077  0.00  0.00    +0.069 C 
BRANCH  16  18
ATOM     17  O   UNL     1      37.741 -18.675 -22.023  0.00  0.00    -0.291 OA
ATOM     18  C   UNL     1      36.505 -18.850 -22.060  0.00  0.00    +0.173 C 
BRANCH  18  20
ATOM     19  N   UNL     1      34.384 -14.705 -23.442  0.00  0.00    -0.333 N 
ATOM     20  C   UNL     1      35.681 -18.131 -23.018  0.00  0.00    +0.036 C 
ATOM     21  C   UNL     1      34.101 -16.716 -24.867  0.00  0.00    -0.009 C 
ATOM     22  C   UNL     1      33.283 -16.040 -25.950  0.00  0.00    +0.028 C 
ATOM     23  C   UNL     1      34.623 -16.039 -23.742  0.00  0.00    +0.041 C 
ATOM     24  C   UNL     1      33.822 -14.669 -26.357  0.00  0.00    +0.006 C 
ATOM     25  C   UNL     1      33.448 -13.540 -25.398  0.00  0.00    +0.022 C 
ATOM     26  C   UNL     1      35.426 -16.770 -22.841  0.00  0.00    +0.017 C 
ATOM     27  C   UNL     1      33.252 -13.963 -23.950  0.00  0.00    +0.087 C 
ATOM     28  C   UNL     1      35.134 -18.796 -24.104  0.00  0.00    +0.003 C 
ATOM     29  C   UNL     1      34.351 -18.096 -25.019  0.00  0.00    -0.003 C 
ATOM     30  H   UNL     1      35.019 -14.238 -22.851  0.00  0.00    +0.147 HD
ENDBRANCH  18  20
ENDBRANCH  16  18
ENDBRANCH   1  16
TORSDOF 6
ENDMDL
MODEL 8
REMARK VINA RESULT:     -12.7      5.264     12.440
REMARK  Name = 198752
REMARK  6 active torsions:
REMARK  status: ('A' for Active; 'I' for Inactive)
REMARK    1  A    between atoms: C_1  and  C_3
REMARK    2  A    between atoms: C_1  and  C_16
REMARK    3  A    between atoms: N_2  and  C_9
REMARK    4  A    between atoms: C_9  and  C_10
REMARK    5  A    between atoms: C_16  and  C_18
REMARK    6  A    between atoms: C_18  and  C_20
REMARK                            x       y       z     vdW  Elec       q    Type
REMARK                         _______ _______ _______ _____ _____    ______ ____
ROOT
ATOM      1  C   UNL     1      31.806 -10.957 -20.646  0.00  0.00    +0.008 C 
ENDROOT
BRANCH   1   3
ATOM      2  N   UNL     1      32.338  -7.229 -22.762  0.00  0.00    +0.390 N 
ATOM      3  C   UNL     1      31.519  -9.556 -21.177  0.00  0.00    -0.004 C 
ATOM      4  C   UNL     1      31.473  -9.546 -22.709  0.00  0.00    -0.023 C 
ATOM      5  C   UNL     1      32.568  -8.553 -20.684  0.00  0.00    -0.023 C 
ATOM      6  C   UNL     1      31.285  -8.128 -23.251  0.00  0.00    -0.077 C 
ATOM      7  C   UNL     1      32.343  -7.168 -21.294  0.00  0.00    -0.077 C 
ATOM      8  H   UNL     1      33.237  -7.604 -23.064  0.00  0.00    -0.079 HD
BRANCH   2   9
ATOM      9  C   UNL     1      32.175  -5.891 -23.329  0.00  0.00    -0.050 C 
BRANCH   9  10
ATOM     10  C   UNL     1      33.130  -5.643 -24.465  0.00  0.00    -0.043 C 
ATOM     11  C   UNL     1      32.795  -4.726 -25.452  0.00  0.00    -0.006 C 
ATOM     12  C   UNL     1      34.333  -6.334 -24.511  0.00  0.00    -0.006 C 
ATOM     13  C   UNL     1      33.681  -4.496 -26.505  0.00  0.00    -0.000 C 
ATOM     14  C   UNL     1      35.218  -6.104 -25.563  0.00  0.00    -0.000 C 
ATOM     15  C   UNL     1      34.892  -5.185 -26.561  0.00  0.00    -0.000 C 
ENDBRANCH   9  10
ENDBRANCH   2   9
ENDBRANCH   1   3
BRANCH   1  16
ATOM     16  C   UNL     1      32.048 -11.950 -21.783  0.00  0.00    +0.069 C 
BRANCH  16  18
ATOM     17  O   UNL     1      32.483 -13.617 -20.097  0.00  0.00    -0.291 OA
ATOM     18  C   UNL     1      32.581 -13.313 -21.304  0.00  0.00    +0.173 C 
BRANCH  18  20
ATOM     19  N   UNL     1      35.087 -17.389 -22.140  0.00  0.00    -0.333 N 
ATOM     20  C   UNL     1      33.189 -14.229 -22.256  0.00  0.00    +0.036 C 
ATOM     21  C   UNL     1      34.361 -16.023 -24.079  0.00  0.00    -0.009 C 
ATOM     22  C   UNL     1      34.910 -16.945 -25.150  0.00  0.00    +0.028 C 
ATOM     23  C   UNL     1      34.434 -16.297 -22.695  0.00  0.00    +0.041 C 
ATOM     24  C   UNL     1      34.629 -18.424 -24.884  0.00  0.00    +0.006 C 
ATOM     25  C   UNL     1      35.574 -19.069 -23.871  0.00  0.00    +0.022 C 
ATOM     26  C   UNL     1      33.822 -15.388 -21.805  0.00  0.00    +0.017 C 
ATOM     27  C   UNL     1      36.132 -18.123 -22.818  0.00  0.00    +0.087 C 
ATOM     28  C   UNL     1      33.154 -13.949 -23.613  0.00  0.00    +0.003 C 
ATOM     29  C   UNL     1      33.735 -14.836 -24.516  0.00  0.00    -0.003 C 
ATOM     30  H   UNL     1      34.826 -17.678 -21.236  0.00  0.00    +0.147 HD
ENDBRANCH  18  20
ENDBRANCH  16  18
ENDBRANCH   1  16
TORSDOF 6
ENDMDL
MODEL 9
REMARK VINA RESULT:     -12.7      5.315      9.129
REMARK  Name = 198752
REMARK  6 active torsions:
REMARK  status: ('A' for Active; 'I' for Inactive)
REMARK    1  A    between atoms: C_1  and  C_3
REMARK    2  A    between atoms: C_1  and  C_16
REMARK    3  A    between atoms: N_2  and  C_9
REMARK    4  A    between atoms: C_9  and  C_10
REMARK    5  A    between atoms: C_16  and  C_18
REMARK    6  A    between atoms: C_18  and  C_20
REMARK                            x       y       z     vdW  Elec       q    Type
REMARK                         _______ _______ _______ _____ _____    ______ ____
ROOT
ATOM      1  C   UNL     1      31.273 -11.400 -21.871  0.00  0.00    +0.008 C 
ENDROOT
BRANCH   1   3
ATOM      2  N   UNL     1      33.979 -14.737 -22.321  0.00  0.00    +0.390 N 
ATOM      3  C   UNL     1      32.539 -12.245 -21.761  0.00  0.00    -0.004 C 
ATOM      4  C   UNL     1      33.102 -12.576 -23.148  0.00  0.00    -0.023 C 
ATOM      5  C   UNL     1      32.272 -13.540 -20.988  0.00  0.00    -0.023 C 
ATOM      6  C   UNL     1      34.313 -13.505 -23.049  0.00  0.00    -0.077 C 
ATOM      7  C   UNL     1      33.511 -14.437 -20.961  0.00  0.00    -0.077 C 
ATOM      8  H   UNL     1      33.220 -15.201 -22.819  0.00  0.00    -0.079 HD
BRANCH   2   9
ATOM      9  C   UNL     1      35.131 -15.637 -22.279  0.00  0.00    -0.050 C 
BRANCH   9  10
ATOM     10  C   UNL     1      34.921 -16.856 -23.138  0.00  0.00    -0.043 C 
ATOM     11  C   UNL     1      34.614 -16.699 -24.482  0.00  0.00    -0.006 C 
ATOM     12  C   UNL     1      35.038 -18.119 -22.574  0.00  0.00    -0.006 C 
ATOM     13  C   UNL     1      34.419 -17.829 -25.278  0.00  0.00    -0.000 C 
ATOM     14  C   UNL     1      34.844 -19.247 -23.369  0.00  0.00    -0.000 C 
ATOM     15  C   UNL     1      34.534 -19.102 -24.721  0.00  0.00    -0.000 C 
ENDBRANCH   9  10
ENDBRANCH   2   9
ENDBRANCH   1   3
BRANCH   1  16
ATOM     16  C   UNL     1      31.021 -10.598 -20.594  0.00  0.00    +0.069 C 
BRANCH  16  18
ATOM     17  O   UNL     1      32.840  -9.690 -19.299  0.00  0.00    -0.291 OA
ATOM     18  C   UNL     1      32.111  -9.550 -20.303  0.00  0.00    +0.173 C 
BRANCH  18  20
ATOM     19  N   UNL     1      34.422  -7.511 -24.057  0.00  0.00    -0.333 N 
ATOM     20  C   UNL     1      32.281  -8.413 -21.193  0.00  0.00    +0.036 C 
ATOM     21  C   UNL     1      32.616  -6.231 -22.938  0.00  0.00    -0.009 C 
ATOM     22  C   UNL     1      32.676  -5.022 -23.850  0.00  0.00    +0.028 C 
ATOM     23  C   UNL     1      33.422  -7.379 -23.102  0.00  0.00    +0.041 C 
ATOM     24  C   UNL     1      32.794  -5.381 -25.331  0.00  0.00    +0.006 C 
ATOM     25  C   UNL     1      34.207  -5.760 -25.773  0.00  0.00    +0.022 C 
ATOM     26  C   UNL     1      33.220  -8.465 -22.224  0.00  0.00    +0.017 C 
ATOM     27  C   UNL     1      35.073  -6.386 -24.691  0.00  0.00    +0.087 C 
ATOM     28  C   UNL     1      31.519  -7.269 -21.015  0.00  0.00    +0.003 C 
ATOM     29  C   UNL     1      31.686  -6.188 -21.877  0.00  0.00    -0.003 C 
ATOM     30  H   UNL     1      34.704  -8.418 -24.315  0.00  0.00    +0.147 HD
ENDBRANCH  18  20
ENDBRANCH  16  18
ENDBRANCH   1  16
TORSDOF 6
ENDMDL
