MODEL 1
REMARK VINA RESULT:     -15.2      0.000      0.000
REMARK  Name = 21081761
REMARK  5 active torsions:
REMARK  status: ('A' for Active; 'I' for Inactive)
REMARK    1  A    between atoms: N_2  and  C_6
REMARK    2  A    between atoms: C_3  and  C_25
REMARK    3  A    between atoms: C_7  and  O_12
REMARK    4  A    between atoms: O_12  and  C_16
REMARK    5  A    between atoms: N_24  and  C_31
REMARK                            x       y       z     vdW  Elec       q    Type
REMARK                         _______ _______ _______ _____ _____    ______ ____
ROOT
ATOM      1  O   UNL     1      36.527 -18.176 -22.498  0.00  0.00    -0.270 OA
ATOM      2  N   UNL     1      34.303 -18.718 -21.929  0.00  0.00    -0.280 N 
ATOM      3  C   UNL     1      35.318 -17.989 -22.552  0.00  0.00    +0.254 C 
ATOM      4  H   UNL     1      33.383 -18.409 -22.095  0.00  0.00    +0.155 HD
ENDROOT
BRANCH   2   6
ATOM      5  F   UNL     1      37.048 -21.768 -19.473  0.00  0.00    -0.201 F 
ATOM      6  C   UNL     1      34.433 -19.833 -21.100  0.00  0.00    +0.053 C 
ATOM      7  C   UNL     1      34.694 -22.063 -19.445  0.00  0.00    +0.173 C 
ATOM      8  C   UNL     1      35.699 -20.254 -20.691  0.00  0.00    +0.047 C 
ATOM      9  C   UNL     1      33.298 -20.526 -20.680  0.00  0.00    +0.018 C 
ATOM     10  C   UNL     1      35.829 -21.370 -19.863  0.00  0.00    +0.176 C 
ATOM     11  C   UNL     1      33.428 -21.642 -19.853  0.00  0.00    +0.041 C 
BRANCH   7  12
ATOM     12  O   UNL     1      34.822 -23.168 -18.625  0.00  0.00    -0.451 OA
BRANCH  12  16
ATOM     13  N   UNL     1      34.803 -23.209 -13.970  0.00  0.00    -0.297 N 
ATOM     14  N   UNL     1      32.633 -23.159 -15.014  0.00  0.00    -0.229 NA
ATOM     15  C   UNL     1      34.778 -23.189 -16.202  0.00  0.00    +0.067 C 
ATOM     16  C   UNL     1      34.129 -23.165 -17.448  0.00  0.00    +0.150 C 
ATOM     17  C   UNL     1      33.978 -23.184 -15.064  0.00  0.00    +0.135 C 
ATOM     18  C   UNL     1      36.127 -23.219 -15.758  0.00  0.00    +0.022 C 
ATOM     19  C   UNL     1      36.111 -23.231 -14.381  0.00  0.00    +0.063 C 
ATOM     20  C   UNL     1      32.735 -23.139 -17.454  0.00  0.00    +0.058 C 
ATOM     21  C   UNL     1      32.061 -23.138 -16.241  0.00  0.00    +0.103 C 
ATOM     22  H   UNL     1      34.503 -23.211 -13.032  0.00  0.00    +0.154 HD
ENDBRANCH  12  16
ENDBRANCH   7  12
ENDBRANCH   2   6
BRANCH   3  25
ATOM     23  O   UNL     1      34.102 -15.604 -21.514  0.00  0.00    -0.269 OA
ATOM     24  N   UNL     1      33.796 -14.621 -23.643  0.00  0.00    -0.233 N 
ATOM     25  C   UNL     1      34.798 -16.875 -23.353  0.00  0.00    +0.108 C 
ATOM     26  C   UNL     1      34.214 -15.634 -22.739  0.00  0.00    +0.261 C 
ATOM     27  C   UNL     1      33.872 -14.845 -25.018  0.00  0.00    +0.072 C 
ATOM     28  C   UNL     1      34.845 -17.013 -24.683  0.00  0.00    +0.010 C 
ATOM     29  C   UNL     1      34.361 -15.974 -25.542  0.00  0.00    +0.017 C 
BRANCH  24  31
ATOM     30  F   UNL     1      31.774  -9.809 -21.675  0.00  0.00    -0.204 F 
ATOM     31  C   UNL     1      33.271 -13.370 -23.131  0.00  0.00    +0.059 C 
ATOM     32  C   UNL     1      33.605 -12.167 -23.753  0.00  0.00    +0.018 C 
ATOM     33  C   UNL     1      32.431 -13.370 -22.017  0.00  0.00    +0.018 C 
ATOM     34  C   UNL     1      33.099 -10.964 -23.261  0.00  0.00    +0.031 C 
ATOM     35  C   UNL     1      31.924 -12.167 -21.525  0.00  0.00    +0.031 C 
ATOM     36  C   UNL     1      32.259 -10.964 -22.147  0.00  0.00    +0.140 C 
ENDBRANCH  24  31
ENDBRANCH   3  25
TORSDOF 5
ENDMDL
MODEL 2
REMARK VINA RESULT:     -15.1      2.740     10.714
REMARK  Name = 21081761
REMARK  5 active torsions:
REMARK  status: ('A' for Active; 'I' for Inactive)
REMARK    1  A    between atoms: N_2  and  C_6
REMARK    2  A    between atoms: C_3  and  C_25
REMARK    3  A    between atoms: C_7  and  O_12
REMARK    4  A    between atoms: O_12  and  C_16
REMARK    5  A    between atoms: N_24  and  C_31
REMARK                            x       y       z     vdW  Elec       q    Type
REMARK                         _______ _______ _______ _____ _____    ______ ____
ROOT
ATOM      1  O   UNL     1      32.736 -22.282 -19.942  0.00  0.00    -0.270 OA
ATOM      2  N   UNL     1      34.713 -21.182 -19.276  0.00  0.00    -0.280 N 
ATOM      3  C   UNL     1      33.621 -22.040 -19.131  0.00  0.00    +0.254 C 
ATOM      4  H   UNL     1      35.321 -21.120 -18.503  0.00  0.00    +0.155 HD
ENDROOT
BRANCH   2   6
ATOM      5  F   UNL     1      37.937 -18.680 -21.769  0.00  0.00    -0.201 F 
ATOM      6  C   UNL     1      35.048 -20.401 -20.382  0.00  0.00    +0.053 C 
ATOM      7  C   UNL     1      35.718 -18.837 -22.593  0.00  0.00    +0.173 C 
ATOM      8  C   UNL     1      36.350 -19.920 -20.529  0.00  0.00    +0.047 C 
ATOM      9  C   UNL     1      34.082 -20.100 -21.342  0.00  0.00    +0.018 C 
ATOM     10  C   UNL     1      36.685 -19.137 -21.634  0.00  0.00    +0.176 C 
ATOM     11  C   UNL     1      34.416 -19.317 -22.447  0.00  0.00    +0.041 C 
BRANCH   7  12
ATOM     12  O   UNL     1      36.048 -18.061 -23.688  0.00  0.00    -0.451 OA
BRANCH  12  16
ATOM     13  N   UNL     1      33.625 -14.265 -22.506  0.00  0.00    -0.297 N 
ATOM     14  N   UNL     1      33.392 -14.971 -24.797  0.00  0.00    -0.229 NA
ATOM     15  C   UNL     1      34.775 -16.083 -23.105  0.00  0.00    +0.067 C 
ATOM     16  C   UNL     1      35.190 -17.054 -24.031  0.00  0.00    +0.150 C 
ATOM     17  C   UNL     1      33.898 -15.102 -23.557  0.00  0.00    +0.135 C 
ATOM     18  C   UNL     1      35.025 -15.812 -21.733  0.00  0.00    +0.022 C 
ATOM     19  C   UNL     1      34.304 -14.688 -21.393  0.00  0.00    +0.063 C 
ATOM     20  C   UNL     1      34.696 -16.966 -25.331  0.00  0.00    +0.058 C 
ATOM     21  C   UNL     1      33.825 -15.932 -25.646  0.00  0.00    +0.103 C 
ATOM     22  H   UNL     1      33.031 -13.480 -22.544  0.00  0.00    +0.154 HD
ENDBRANCH  12  16
ENDBRANCH   7  12
ENDBRANCH   2   6
BRANCH   3  25
ATOM     23  O   UNL     1      35.923 -22.897 -17.643  0.00  0.00    -0.269 OA
ATOM     24  N   UNL     1      34.662 -23.667 -15.797  0.00  0.00    -0.233 N 
ATOM     25  C   UNL     1      33.596 -22.699 -17.820  0.00  0.00    +0.108 C 
ATOM     26  C   UNL     1      34.845 -23.079 -17.077  0.00  0.00    +0.261 C 
ATOM     27  C   UNL     1      33.373 -23.927 -15.331  0.00  0.00    +0.072 C 
ATOM     28  C   UNL     1      32.392 -22.973 -17.304  0.00  0.00    +0.010 C 
ATOM     29  C   UNL     1      32.275 -23.614 -16.027  0.00  0.00    +0.017 C 
BRANCH  24  31
ATOM     30  F   UNL     1      39.104 -25.005 -12.697  0.00  0.00    -0.204 F 
ATOM     31  C   UNL     1      35.817 -24.015 -14.991  0.00  0.00    +0.059 C 
ATOM     32  C   UNL     1      36.334 -23.094 -14.080  0.00  0.00    +0.018 C 
ATOM     33  C   UNL     1      36.410 -25.270 -15.128  0.00  0.00    +0.018 C 
ATOM     34  C   UNL     1      37.444 -23.429 -13.304  0.00  0.00    +0.031 C 
ATOM     35  C   UNL     1      37.520 -25.605 -14.353  0.00  0.00    +0.031 C 
ATOM     36  C   UNL     1      38.037 -24.685 -13.441  0.00  0.00    +0.140 C 
ENDBRANCH  24  31
ENDBRANCH   3  25
TORSDOF 5
ENDMDL
MODEL 3
REMARK VINA RESULT:     -15.0      3.211     11.317
REMARK  Name = 21081761
REMARK  5 active torsions:
REMARK  status: ('A' for Active; 'I' for Inactive)
REMARK    1  A    between atoms: N_2  and  C_6
REMARK    2  A    between atoms: C_3  and  C_25
REMARK    3  A    between atoms: C_7  and  O_12
REMARK    4  A    between atoms: O_12  and  C_16
REMARK    5  A    between atoms: N_24  and  C_31
REMARK                            x       y       z     vdW  Elec       q    Type
REMARK                         _______ _______ _______ _____ _____    ______ ____
ROOT
ATOM      1  O   UNL     1      35.287 -14.531 -23.585  0.00  0.00    -0.270 OA
ATOM      2  N   UNL     1      33.280 -14.987 -22.431  0.00  0.00    -0.280 N 
ATOM      3  C   UNL     1      34.463 -15.299 -23.104  0.00  0.00    +0.254 C 
ATOM      4  H   UNL     1      32.746 -15.751 -22.117  0.00  0.00    +0.155 HD
ENDROOT
BRANCH   2   6
ATOM      5  F   UNL     1      32.026 -11.622 -19.273  0.00  0.00    -0.201 F 
ATOM      6  C   UNL     1      32.763 -13.722 -22.150  0.00  0.00    +0.053 C 
ATOM      7  C   UNL     1      31.727 -11.193 -21.587  0.00  0.00    +0.173 C 
ATOM      8  C   UNL     1      32.649 -13.293 -20.827  0.00  0.00    +0.047 C 
ATOM      9  C   UNL     1      32.360 -12.886 -23.191  0.00  0.00    +0.018 C 
ATOM     10  C   UNL     1      32.131 -12.028 -20.545  0.00  0.00    +0.176 C 
ATOM     11  C   UNL     1      31.841 -11.622 -22.910  0.00  0.00    +0.041 C 
BRANCH   7  12
ATOM     12  O   UNL     1      31.213  -9.941 -21.309  0.00  0.00    -0.451 OA
BRANCH  12  16
ATOM     13  N   UNL     1      32.877  -5.630 -20.747  0.00  0.00    -0.297 N 
ATOM     14  N   UNL     1      33.282  -6.623 -22.904  0.00  0.00    -0.229 NA
ATOM     15  C   UNL     1      32.091  -7.698 -21.049  0.00  0.00    +0.067 C 
ATOM     16  C   UNL     1      31.880  -8.859 -21.810  0.00  0.00    +0.150 C 
ATOM     17  C   UNL     1      32.783  -6.653 -21.654  0.00  0.00    +0.135 C 
ATOM     18  C   UNL     1      31.766  -7.269 -19.734  0.00  0.00    +0.022 C 
ATOM     19  C   UNL     1      32.262  -5.994 -19.577  0.00  0.00    +0.063 C 
ATOM     20  C   UNL     1      32.377  -8.882 -23.112  0.00  0.00    +0.058 C 
ATOM     21  C   UNL     1      33.049  -7.766 -23.591  0.00  0.00    +0.103 C 
ATOM     22  H   UNL     1      33.319  -4.765 -20.910  0.00  0.00    +0.154 HD
ENDBRANCH  12  16
ENDBRANCH   7  12
ENDBRANCH   2   6
BRANCH   3  25
ATOM     23  O   UNL     1      34.860 -17.100 -20.903  0.00  0.00    -0.269 OA
ATOM     24  N   UNL     1      34.993 -19.024 -22.271  0.00  0.00    -0.233 N 
ATOM     25  C   UNL     1      34.682 -16.746 -23.211  0.00  0.00    +0.108 C 
ATOM     26  C   UNL     1      34.836 -17.636 -22.011  0.00  0.00    +0.261 C 
ATOM     27  C   UNL     1      35.070 -19.477 -23.589  0.00  0.00    +0.072 C 
ATOM     28  C   UNL     1      34.758 -17.257 -24.446  0.00  0.00    +0.010 C 
ATOM     29  C   UNL     1      34.968 -18.661 -24.642  0.00  0.00    +0.017 C 
BRANCH  24  31
ATOM     30  F   UNL     1      35.387 -22.618 -18.023  0.00  0.00    -0.204 F 
ATOM     31  C   UNL     1      35.095 -19.958 -21.167  0.00  0.00    +0.059 C 
ATOM     32  C   UNL     1      33.943 -20.530 -20.628  0.00  0.00    +0.018 C 
ATOM     33  C   UNL     1      36.347 -20.285 -20.644  0.00  0.00    +0.018 C 
ATOM     34  C   UNL     1      34.041 -21.429 -19.566  0.00  0.00    +0.031 C 
ATOM     35  C   UNL     1      36.446 -21.184 -19.582  0.00  0.00    +0.031 C 
ATOM     36  C   UNL     1      35.293 -21.756 -19.043  0.00  0.00    +0.140 C 
ENDBRANCH  24  31
ENDBRANCH   3  25
TORSDOF 5
ENDMDL
MODEL 4
REMARK VINA RESULT:     -14.9      1.366      2.245
REMARK  Name = 21081761
REMARK  5 active torsions:
REMARK  status: ('A' for Active; 'I' for Inactive)
REMARK    1  A    between atoms: N_2  and  C_6
REMARK    2  A    between atoms: C_3  and  C_25
REMARK    3  A    between atoms: C_7  and  O_12
REMARK    4  A    between atoms: O_12  and  C_16
REMARK    5  A    between atoms: N_24  and  C_31
REMARK                            x       y       z     vdW  Elec       q    Type
REMARK                         _______ _______ _______ _____ _____    ______ ____
ROOT
ATOM      1  O   UNL     1      36.654 -18.569 -22.038  0.00  0.00    -0.270 OA
ATOM      2  N   UNL     1      34.404 -19.179 -21.676  0.00  0.00    -0.280 N 
ATOM      3  C   UNL     1      35.453 -18.455 -22.247  0.00  0.00    +0.254 C 
ATOM      4  H   UNL     1      33.498 -18.938 -21.975  0.00  0.00    +0.155 HD
ENDROOT
BRANCH   2   6
ATOM      5  F   UNL     1      32.308 -22.068 -18.493  0.00  0.00    -0.201 F 
ATOM      6  C   UNL     1      34.485 -20.204 -20.732  0.00  0.00    +0.053 C 
ATOM      7  C   UNL     1      34.647 -22.250 -18.844  0.00  0.00    +0.173 C 
ATOM      8  C   UNL     1      33.335 -20.635 -20.069  0.00  0.00    +0.047 C 
ATOM      9  C   UNL     1      35.716 -20.797 -20.451  0.00  0.00    +0.018 C 
ATOM     10  C   UNL     1      33.416 -21.658 -19.125  0.00  0.00    +0.176 C 
ATOM     11  C   UNL     1      35.797 -21.820 -19.506  0.00  0.00    +0.041 C 
BRANCH   7  12
ATOM     12  O   UNL     1      34.728 -23.264 -17.907  0.00  0.00    -0.451 OA
BRANCH  12  16
ATOM     13  N   UNL     1      35.434 -23.611 -13.318  0.00  0.00    -0.297 N 
ATOM     14  N   UNL     1      37.221 -22.587 -14.566  0.00  0.00    -0.229 NA
ATOM     15  C   UNL     1      35.126 -23.430 -15.522  0.00  0.00    +0.067 C 
ATOM     16  C   UNL     1      35.523 -23.052 -16.816  0.00  0.00    +0.150 C 
ATOM     17  C   UNL     1      36.010 -23.169 -14.480  0.00  0.00    +0.135 C 
ATOM     18  C   UNL     1      33.985 -24.050 -14.948  0.00  0.00    +0.022 C 
ATOM     19  C   UNL     1      34.202 -24.149 -13.592  0.00  0.00    +0.063 C 
ATOM     20  C   UNL     1      36.769 -22.445 -16.963  0.00  0.00    +0.058 C 
ATOM     21  C   UNL     1      37.551 -22.244 -15.833  0.00  0.00    +0.103 C 
ATOM     22  H   UNL     1      35.841 -23.553 -12.424  0.00  0.00    +0.154 HD
ENDBRANCH  12  16
ENDBRANCH   7  12
ENDBRANCH   2   6
BRANCH   3  25
ATOM     23  O   UNL     1      34.355 -15.887 -21.582  0.00  0.00    -0.269 OA
ATOM     24  N   UNL     1      34.087 -15.221 -23.835  0.00  0.00    -0.233 N 
ATOM     25  C   UNL     1      34.982 -17.451 -23.208  0.00  0.00    +0.108 C 
ATOM     26  C   UNL     1      34.460 -16.106 -22.789  0.00  0.00    +0.261 C 
ATOM     27  C   UNL     1      34.146 -15.652 -25.161  0.00  0.00    +0.072 C 
ATOM     28  C   UNL     1      35.017 -17.789 -24.502  0.00  0.00    +0.010 C 
ATOM     29  C   UNL     1      34.578 -16.868 -25.508  0.00  0.00    +0.017 C 
BRANCH  24  31
ATOM     30  F   UNL     1      32.302 -10.078 -22.614  0.00  0.00    -0.204 F 
ATOM     31  C   UNL     1      33.623 -13.884 -23.518  0.00  0.00    +0.059 C 
ATOM     32  C   UNL     1      32.642 -13.699 -22.543  0.00  0.00    +0.018 C 
ATOM     33  C   UNL     1      34.158 -12.783 -24.187  0.00  0.00    +0.018 C 
ATOM     34  C   UNL     1      32.197 -12.414 -22.237  0.00  0.00    +0.031 C 
ATOM     35  C   UNL     1      33.712 -11.497 -23.882  0.00  0.00    +0.031 C 
ATOM     36  C   UNL     1      32.732 -11.312 -22.907  0.00  0.00    +0.140 C 
ENDBRANCH  24  31
ENDBRANCH   3  25
TORSDOF 5
ENDMDL
MODEL 5
REMARK VINA RESULT:     -14.7      0.995      1.148
REMARK  Name = 21081761
REMARK  5 active torsions:
REMARK  status: ('A' for Active; 'I' for Inactive)
REMARK    1  A    between atoms: N_2  and  C_6
REMARK    2  A    between atoms: C_3  and  C_25
REMARK    3  A    between atoms: C_7  and  O_12
REMARK    4  A    between atoms: O_12  and  C_16
REMARK    5  A    between atoms: N_24  and  C_31
REMARK                            x       y       z     vdW  Elec       q    Type
REMARK                         _______ _______ _______ _____ _____    ______ ____
ROOT
ATOM      1  O   UNL     1      36.578 -18.627 -21.088  0.00  0.00    -0.270 OA
ATOM      2  N   UNL     1      34.404 -19.530 -21.235  0.00  0.00    -0.280 N 
ATOM      3  C   UNL     1      35.446 -18.657 -21.554  0.00  0.00    +0.254 C 
ATOM      4  H   UNL     1      33.559 -19.393 -21.723  0.00  0.00    +0.155 HD
ENDROOT
BRANCH   2   6
ATOM      5  F   UNL     1      36.770 -22.363 -18.195  0.00  0.00    -0.201 F 
ATOM      6  C   UNL     1      34.413 -20.574 -20.310  0.00  0.00    +0.053 C 
ATOM      7  C   UNL     1      34.432 -22.662 -18.460  0.00  0.00    +0.173 C 
ATOM      8  C   UNL     1      35.609 -20.957 -19.701  0.00  0.00    +0.047 C 
ATOM      9  C   UNL     1      33.226 -21.235 -19.992  0.00  0.00    +0.018 C 
ATOM     10  C   UNL     1      35.618 -22.002 -18.777  0.00  0.00    +0.176 C 
ATOM     11  C   UNL     1      33.236 -22.280 -19.068  0.00  0.00    +0.041 C 
BRANCH   7  12
ATOM     12  O   UNL     1      34.440 -23.698 -17.545  0.00  0.00    -0.451 OA
BRANCH  12  16
ATOM     13  N   UNL     1      34.177 -23.610 -12.898  0.00  0.00    -0.297 N 
ATOM     14  N   UNL     1      32.106 -23.207 -14.060  0.00  0.00    -0.229 NA
ATOM     15  C   UNL     1      34.270 -23.646 -15.128  0.00  0.00    +0.067 C 
ATOM     16  C   UNL     1      33.699 -23.542 -16.408  0.00  0.00    +0.150 C 
ATOM     17  C   UNL     1      33.427 -23.469 -14.036  0.00  0.00    +0.135 C 
ATOM     18  C   UNL     1      35.567 -23.901 -14.610  0.00  0.00    +0.022 C 
ATOM     19  C   UNL     1      35.480 -23.873 -13.236  0.00  0.00    +0.063 C 
ATOM     20  C   UNL     1      32.334 -23.270 -16.492  0.00  0.00    +0.058 C 
ATOM     21  C   UNL     1      31.611 -23.118 -15.317  0.00  0.00    +0.103 C 
ATOM     22  H   UNL     1      33.834 -23.534 -11.978  0.00  0.00    +0.154 HD
ENDBRANCH  12  16
ENDBRANCH   7  12
ENDBRANCH   2   6
BRANCH   3  25
ATOM     23  O   UNL     1      34.183 -16.124 -21.073  0.00  0.00    -0.269 OA
ATOM     24  N   UNL     1      34.179 -15.493 -23.352  0.00  0.00    -0.233 N 
ATOM     25  C   UNL     1      35.066 -17.682 -22.582  0.00  0.00    +0.108 C 
ATOM     26  C   UNL     1      34.448 -16.352 -22.253  0.00  0.00    +0.261 C 
ATOM     27  C   UNL     1      34.421 -15.936 -24.653  0.00  0.00    +0.072 C 
ATOM     28  C   UNL     1      35.276 -18.032 -23.856  0.00  0.00    +0.010 C 
ATOM     29  C   UNL     1      34.936 -17.139 -24.924  0.00  0.00    +0.017 C 
BRANCH  24  31
ATOM     30  F   UNL     1      32.075 -10.406 -22.449  0.00  0.00    -0.204 F 
ATOM     31  C   UNL     1      33.632 -14.171 -23.117  0.00  0.00    +0.059 C 
ATOM     32  C   UNL     1      34.017 -13.103 -23.928  0.00  0.00    +0.018 C 
ATOM     33  C   UNL     1      32.721 -13.967 -22.080  0.00  0.00    +0.018 C 
ATOM     34  C   UNL     1      33.491 -11.831 -23.702  0.00  0.00    +0.031 C 
ATOM     35  C   UNL     1      32.194 -12.696 -21.855  0.00  0.00    +0.031 C 
ATOM     36  C   UNL     1      32.579 -11.628 -22.666  0.00  0.00    +0.140 C 
ENDBRANCH  24  31
ENDBRANCH   3  25
TORSDOF 5
ENDMDL
MODEL 6
REMARK VINA RESULT:     -14.5      2.695     10.402
REMARK  Name = 21081761
REMARK  5 active torsions:
REMARK  status: ('A' for Active; 'I' for Inactive)
REMARK    1  A    between atoms: N_2  and  C_6
REMARK    2  A    between atoms: C_3  and  C_25
REMARK    3  A    between atoms: C_7  and  O_12
REMARK    4  A    between atoms: O_12  and  C_16
REMARK    5  A    between atoms: N_24  and  C_31
REMARK                            x       y       z     vdW  Elec       q    Type
REMARK                         _______ _______ _______ _____ _____    ______ ____
ROOT
ATOM      1  O   UNL     1      35.771 -22.867 -20.135  0.00  0.00    -0.270 OA
ATOM      2  N   UNL     1      34.958 -20.722 -19.586  0.00  0.00    -0.280 N 
ATOM      3  C   UNL     1      35.275 -22.062 -19.356  0.00  0.00    +0.254 C 
ATOM      4  H   UNL     1      34.561 -20.235 -18.827  0.00  0.00    +0.155 HD
ENDROOT
BRANCH   2   6
ATOM      5  F   UNL     1      37.765 -18.197 -22.521  0.00  0.00    -0.201 F 
ATOM      6  C   UNL     1      35.135 -19.988 -20.759  0.00  0.00    +0.053 C 
ATOM      7  C   UNL     1      35.488 -18.519 -23.104  0.00  0.00    +0.173 C 
ATOM      8  C   UNL     1      36.385 -19.447 -21.063  0.00  0.00    +0.047 C 
ATOM      9  C   UNL     1      34.062 -19.795 -21.629  0.00  0.00    +0.018 C 
ATOM     10  C   UNL     1      36.561 -18.712 -22.235  0.00  0.00    +0.176 C 
ATOM     11  C   UNL     1      34.238 -19.059 -22.801  0.00  0.00    +0.041 C 
BRANCH   7  12
ATOM     12  O   UNL     1      35.661 -17.790 -24.266  0.00  0.00    -0.451 OA
BRANCH  12  16
ATOM     13  N   UNL     1      33.600 -13.904 -22.741  0.00  0.00    -0.297 N 
ATOM     14  N   UNL     1      33.038 -14.561 -24.989  0.00  0.00    -0.229 NA
ATOM     15  C   UNL     1      34.573 -15.764 -23.502  0.00  0.00    +0.067 C 
ATOM     16  C   UNL     1      34.816 -16.739 -24.483  0.00  0.00    +0.150 C 
ATOM     17  C   UNL     1      33.694 -14.735 -23.826  0.00  0.00    +0.135 C 
ATOM     18  C   UNL     1      35.012 -15.527 -22.172  0.00  0.00    +0.022 C 
ATOM     19  C   UNL     1      34.397 -14.376 -21.729  0.00  0.00    +0.063 C 
ATOM     20  C   UNL     1      34.162 -16.607 -25.708  0.00  0.00    +0.058 C 
ATOM     21  C   UNL     1      33.309 -15.528 -25.896  0.00  0.00    +0.103 C 
ATOM     22  H   UNL     1      33.046 -13.091 -22.693  0.00  0.00    +0.154 HD
ENDBRANCH  12  16
ENDBRANCH   7  12
ENDBRANCH   2   6
BRANCH   3  25
ATOM     23  O   UNL     1      32.676 -22.857 -18.432  0.00  0.00    -0.269 OA
ATOM     24  N   UNL     1      33.416 -23.371 -16.246  0.00  0.00    -0.233 N 
ATOM     25  C   UNL     1      34.946 -22.491 -17.992  0.00  0.00    +0.108 C 
ATOM     26  C   UNL     1      33.570 -22.938 -17.590  0.00  0.00    +0.261 C 
ATOM     27  C   UNL     1      34.495 -23.292 -15.364  0.00  0.00    +0.072 C 
ATOM     28  C   UNL     1      35.935 -22.452 -17.091  0.00  0.00    +0.010 C 
ATOM     29  C   UNL     1      35.702 -22.854 -15.736  0.00  0.00    +0.017 C 
BRANCH  24  31
ATOM     30  F   UNL     1      28.476 -25.284 -14.497  0.00  0.00    -0.204 F 
ATOM     31  C   UNL     1      32.132 -23.868 -15.791  0.00  0.00    +0.059 C 
ATOM     32  C   UNL     1      30.955 -23.401 -16.378  0.00  0.00    +0.018 C 
ATOM     33  C   UNL     1      32.073 -24.814 -14.767  0.00  0.00    +0.018 C 
ATOM     34  C   UNL     1      29.720 -23.880 -15.941  0.00  0.00    +0.031 C 
ATOM     35  C   UNL     1      30.838 -25.293 -14.330  0.00  0.00    +0.031 C 
ATOM     36  C   UNL     1      29.662 -24.826 -14.917  0.00  0.00    +0.140 C 
ENDBRANCH  24  31
ENDBRANCH   3  25
TORSDOF 5
ENDMDL
MODEL 7
REMARK VINA RESULT:     -14.4      3.799      6.992
REMARK  Name = 21081761
REMARK  5 active torsions:
REMARK  status: ('A' for Active; 'I' for Inactive)
REMARK    1  A    between atoms: N_2  and  C_6
REMARK    2  A    between atoms: C_3  and  C_25
REMARK    3  A    between atoms: C_7  and  O_12
REMARK    4  A    between atoms: O_12  and  C_16
REMARK    5  A    between atoms: N_24  and  C_31
REMARK                            x       y       z     vdW  Elec       q    Type
REMARK                         _______ _______ _______ _____ _____    ______ ____
ROOT
ATOM      1  O   UNL     1      31.418 -12.664 -21.360  0.00  0.00    -0.270 OA
ATOM      2  N   UNL     1      33.590 -12.558 -22.275  0.00  0.00    -0.280 N 
ATOM      3  C   UNL     1      32.411 -12.048 -21.726  0.00  0.00    +0.254 C 
ATOM      4  H   UNL     1      34.280 -11.896 -22.510  0.00  0.00    +0.155 HD
ENDROOT
BRANCH   2   6
ATOM      5  F   UNL     1      34.173 -16.169 -25.355  0.00  0.00    -0.201 F 
ATOM      6  C   UNL     1      33.909 -13.891 -22.532  0.00  0.00    +0.053 C 
ATOM      7  C   UNL     1      34.544 -16.559 -23.044  0.00  0.00    +0.173 C 
ATOM      8  C   UNL     1      33.882 -14.376 -23.839  0.00  0.00    +0.047 C 
ATOM      9  C   UNL     1      34.254 -14.740 -21.480  0.00  0.00    +0.018 C 
ATOM     10  C   UNL     1      34.200 -15.710 -24.096  0.00  0.00    +0.176 C 
ATOM     11  C   UNL     1      34.571 -16.074 -21.736  0.00  0.00    +0.041 C 
BRANCH   7  12
ATOM     12  O   UNL     1      34.858 -17.881 -23.297  0.00  0.00    -0.451 OA
BRANCH  12  16
ATOM     13  N   UNL     1      34.880 -20.946 -19.793  0.00  0.00    -0.297 N 
ATOM     14  N   UNL     1      37.015 -19.966 -20.325  0.00  0.00    -0.229 NA
ATOM     15  C   UNL     1      34.903 -19.472 -21.470  0.00  0.00    +0.067 C 
ATOM     16  C   UNL     1      35.541 -18.564 -22.331  0.00  0.00    +0.150 C 
ATOM     17  C   UNL     1      35.691 -20.114 -20.520  0.00  0.00    +0.135 C 
ATOM     18  C   UNL     1      33.576 -19.945 -21.292  0.00  0.00    +0.022 C 
ATOM     19  C   UNL     1      33.592 -20.851 -20.254  0.00  0.00    +0.063 C 
ATOM     20  C   UNL     1      36.913 -18.372 -22.173  0.00  0.00    +0.058 C 
ATOM     21  C   UNL     1      37.577 -19.081 -21.181  0.00  0.00    +0.103 C 
ATOM     22  H   UNL     1      35.176 -21.524 -19.053  0.00  0.00    +0.154 HD
ENDBRANCH  12  16
ENDBRANCH   7  12
ENDBRANCH   2   6
BRANCH   3  25
ATOM     23  O   UNL     1      33.393 -10.218 -23.709  0.00  0.00    -0.269 OA
ATOM     24  N   UNL     1      32.843  -8.289 -22.456  0.00  0.00    -0.233 N 
ATOM     25  C   UNL     1      32.437 -10.586 -21.603  0.00  0.00    +0.108 C 
ATOM     26  C   UNL     1      32.924  -9.685 -22.703  0.00  0.00    +0.261 C 
ATOM     27  C   UNL     1      32.400  -7.829 -21.216  0.00  0.00    +0.072 C 
ATOM     28  C   UNL     1      32.018 -10.069 -20.443  0.00  0.00    +0.010 C 
ATOM     29  C   UNL     1      32.007  -8.651 -20.237  0.00  0.00    +0.017 C 
BRANCH  24  31
ATOM     30  F   UNL     1      34.383  -4.676 -26.419  0.00  0.00    -0.204 F 
ATOM     31  C   UNL     1      33.243  -7.350 -23.487  0.00  0.00    +0.059 C 
ATOM     32  C   UNL     1      32.286  -6.550 -24.111  0.00  0.00    +0.018 C 
ATOM     33  C   UNL     1      34.586  -7.246 -23.852  0.00  0.00    +0.018 C 
ATOM     34  C   UNL     1      32.671  -5.647 -25.101  0.00  0.00    +0.031 C 
ATOM     35  C   UNL     1      34.971  -6.343 -24.843  0.00  0.00    +0.031 C 
ATOM     36  C   UNL     1      34.014  -5.543 -25.467  0.00  0.00    +0.140 C 
ENDBRANCH  24  31
ENDBRANCH   3  25
TORSDOF 5
ENDMDL
MODEL 8
REMARK VINA RESULT:     -14.3      1.927      2.855
REMARK  Name = 21081761
REMARK  5 active torsions:
REMARK  status: ('A' for Active; 'I' for Inactive)
REMARK    1  A    between atoms: N_2  and  C_6
REMARK    2  A    between atoms: C_3  and  C_25
REMARK    3  A    between atoms: C_7  and  O_12
REMARK    4  A    between atoms: O_12  and  C_16
REMARK    5  A    between atoms: N_24  and  C_31
REMARK                            x       y       z     vdW  Elec       q    Type
REMARK                         _______ _______ _______ _____ _____    ______ ____
ROOT
ATOM      1  O   UNL     1      36.629 -19.051 -20.671  0.00  0.00    -0.270 OA
ATOM      2  N   UNL     1      34.553 -20.154 -20.872  0.00  0.00    -0.280 N 
ATOM      3  C   UNL     1      35.545 -19.231 -21.212  0.00  0.00    +0.254 C 
ATOM      4  H   UNL     1      33.743 -20.145 -21.432  0.00  0.00    +0.155 HD
ENDROOT
BRANCH   2   6
ATOM      5  F   UNL     1      32.233 -23.036 -17.842  0.00  0.00    -0.201 F 
ATOM      6  C   UNL     1      34.569 -21.086 -19.834  0.00  0.00    +0.053 C 
ATOM      7  C   UNL     1      34.602 -22.949 -17.758  0.00  0.00    +0.173 C 
ATOM      8  C   UNL     1      33.371 -21.607 -19.345  0.00  0.00    +0.047 C 
ATOM      9  C   UNL     1      35.784 -21.498 -19.286  0.00  0.00    +0.018 C 
ATOM     10  C   UNL     1      33.387 -22.538 -18.306  0.00  0.00    +0.176 C 
ATOM     11  C   UNL     1      35.801 -22.428 -18.247  0.00  0.00    +0.041 C 
BRANCH   7  12
ATOM     12  O   UNL     1      34.619 -23.871 -16.728  0.00  0.00    -0.451 OA
BRANCH  12  16
ATOM     13  N   UNL     1      37.840 -25.922 -14.065  0.00  0.00    -0.297 N 
ATOM     14  N   UNL     1      37.732 -23.521 -13.896  0.00  0.00    -0.229 NA
ATOM     15  C   UNL     1      36.305 -24.908 -15.330  0.00  0.00    +0.067 C 
ATOM     16  C   UNL     1      35.629 -23.775 -15.812  0.00  0.00    +0.150 C 
ATOM     17  C   UNL     1      37.317 -24.700 -14.398  0.00  0.00    +0.135 C 
ATOM     18  C   UNL     1      36.230 -26.309 -15.551  0.00  0.00    +0.022 C 
ATOM     19  C   UNL     1      37.186 -26.907 -14.759  0.00  0.00    +0.063 C 
ATOM     20  C   UNL     1      36.018 -22.528 -15.325  0.00  0.00    +0.058 C 
ATOM     21  C   UNL     1      37.046 -22.466 -14.394  0.00  0.00    +0.103 C 
ATOM     22  H   UNL     1      38.573 -26.071 -13.424  0.00  0.00    +0.154 HD
ENDBRANCH  12  16
ENDBRANCH   7  12
ENDBRANCH   2   6
BRANCH   3  25
ATOM     23  O   UNL     1      34.546 -16.541 -21.107  0.00  0.00    -0.269 OA
ATOM     24  N   UNL     1      34.424 -16.307 -23.457  0.00  0.00    -0.233 N 
ATOM     25  C   UNL     1      35.173 -18.410 -22.370  0.00  0.00    +0.108 C 
ATOM     26  C   UNL     1      34.700 -16.990 -22.243  0.00  0.00    +0.261 C 
ATOM     27  C   UNL     1      34.528 -16.984 -24.672  0.00  0.00    +0.072 C 
ATOM     28  C   UNL     1      35.256 -18.990 -23.574  0.00  0.00    +0.010 C 
ATOM     29  C   UNL     1      34.915 -18.260 -24.759  0.00  0.00    +0.017 C 
BRANCH  24  31
ATOM     30  F   UNL     1      32.842 -10.958 -23.333  0.00  0.00    -0.204 F 
ATOM     31  C   UNL     1      34.013 -14.916 -23.424  0.00  0.00    +0.059 C 
ATOM     32  C   UNL     1      34.412 -14.047 -24.440  0.00  0.00    +0.018 C 
ATOM     33  C   UNL     1      33.218 -14.448 -22.377  0.00  0.00    +0.018 C 
ATOM     34  C   UNL     1      34.016 -12.710 -24.409  0.00  0.00    +0.031 C 
ATOM     35  C   UNL     1      32.822 -13.111 -22.347  0.00  0.00    +0.031 C 
ATOM     36  C   UNL     1      33.221 -12.242 -23.363  0.00  0.00    +0.140 C 
ENDBRANCH  24  31
ENDBRANCH   3  25
TORSDOF 5
ENDMDL
MODEL 9
REMARK VINA RESULT:     -14.2      1.433      2.346
REMARK  Name = 21081761
REMARK  5 active torsions:
REMARK  status: ('A' for Active; 'I' for Inactive)
REMARK    1  A    between atoms: N_2  and  C_6
REMARK    2  A    between atoms: C_3  and  C_25
REMARK    3  A    between atoms: C_7  and  O_12
REMARK    4  A    between atoms: O_12  and  C_16
REMARK    5  A    between atoms: N_24  and  C_31
REMARK                            x       y       z     vdW  Elec       q    Type
REMARK                         _______ _______ _______ _____ _____    ______ ____
ROOT
ATOM      1  O   UNL     1      35.003 -16.132 -20.302  0.00  0.00    -0.270 OA
ATOM      2  N   UNL     1      34.585 -17.802 -21.915  0.00  0.00    -0.280 N 
ATOM      3  C   UNL     1      34.676 -16.498 -21.424  0.00  0.00    +0.254 C 
ATOM      4  H   UNL     1      34.301 -17.893 -22.854  0.00  0.00    +0.155 HD
ENDROOT
BRANCH   2   6
ATOM      5  F   UNL     1      33.031 -21.737 -19.685  0.00  0.00    -0.201 F 
ATOM      6  C   UNL     1      34.846 -18.993 -21.237  0.00  0.00    +0.053 C 
ATOM      7  C   UNL     1      35.368 -21.373 -19.879  0.00  0.00    +0.173 C 
ATOM      8  C   UNL     1      33.790 -19.788 -20.790  0.00  0.00    +0.047 C 
ATOM      9  C   UNL     1      36.163 -19.390 -21.006  0.00  0.00    +0.018 C 
ATOM     10  C   UNL     1      34.050 -20.978 -20.111  0.00  0.00    +0.176 C 
ATOM     11  C   UNL     1      36.424 -20.579 -20.326  0.00  0.00    +0.041 C 
BRANCH   7  12
ATOM     12  O   UNL     1      35.627 -22.552 -19.205  0.00  0.00    -0.451 OA
BRANCH  12  16
ATOM     13  N   UNL     1      34.107 -23.150 -14.846  0.00  0.00    -0.297 N 
ATOM     14  N   UNL     1      36.348 -22.292 -15.053  0.00  0.00    -0.229 NA
ATOM     15  C   UNL     1      34.866 -22.852 -16.924  0.00  0.00    +0.067 C 
ATOM     16  C   UNL     1      35.844 -22.474 -17.858  0.00  0.00    +0.150 C 
ATOM     17  C   UNL     1      35.189 -22.733 -15.576  0.00  0.00    +0.135 C 
ATOM     18  C   UNL     1      33.540 -23.358 -16.987  0.00  0.00    +0.022 C 
ATOM     19  C   UNL     1      33.099 -23.532 -15.693  0.00  0.00    +0.063 C 
ATOM     20  C   UNL     1      37.065 -22.009 -17.371  0.00  0.00    +0.058 C 
ATOM     21  C   UNL     1      37.252 -21.941 -15.997  0.00  0.00    +0.103 C 
ATOM     22  H   UNL     1      34.060 -23.172 -13.862  0.00  0.00    +0.154 HD
ENDBRANCH  12  16
ENDBRANCH   7  12
ENDBRANCH   2   6
BRANCH   3  25
ATOM     23  O   UNL     1      33.383 -13.987 -20.907  0.00  0.00    -0.269 OA
ATOM     24  N   UNL     1      33.450 -13.286 -23.164  0.00  0.00    -0.233 N 
ATOM     25  C   UNL     1      34.324 -15.493 -22.434  0.00  0.00    +0.108 C 
ATOM     26  C   UNL     1      33.688 -14.177 -22.084  0.00  0.00    +0.261 C 
ATOM     27  C   UNL     1      33.737 -13.687 -24.469  0.00  0.00    +0.072 C 
ATOM     28  C   UNL     1      34.578 -15.802 -23.710  0.00  0.00    +0.010 C 
ATOM     29  C   UNL     1      34.268 -14.878 -24.760  0.00  0.00    +0.017 C 
BRANCH  24  31
ATOM     30  F   UNL     1      31.285  -8.240 -22.173  0.00  0.00    -0.204 F 
ATOM     31  C   UNL     1      32.887 -11.975 -22.906  0.00  0.00    +0.059 C 
ATOM     32  C   UNL     1      33.439 -10.847 -23.515  0.00  0.00    +0.018 C 
ATOM     33  C   UNL     1      31.793 -11.841 -22.050  0.00  0.00    +0.018 C 
ATOM     34  C   UNL     1      32.897  -9.586 -23.268  0.00  0.00    +0.031 C 
ATOM     35  C   UNL     1      31.252 -10.579 -21.803  0.00  0.00    +0.031 C 
ATOM     36  C   UNL     1      31.804  -9.452 -22.412  0.00  0.00    +0.140 C 
ENDBRANCH  24  31
ENDBRANCH   3  25
TORSDOF 5
ENDMDL
