MODEL 1
REMARK VINA RESULT:     -12.8      0.000      0.000
REMARK  Name = 16048422
REMARK  11 active torsions:
REMARK  status: ('A' for Active; 'I' for Inactive)
REMARK    1  A    between atoms: C_1  and  C_4
REMARK    2  A    between atoms: C_1  and  N_18
REMARK    3  A    between atoms: C_1  and  C_33
REMARK    4  A    between atoms: N_3  and  C_6
REMARK    5  A    between atoms: C_6  and  C_9
REMARK    6  A    between atoms: C_9  and  C_11
REMARK    7  A    between atoms: C_19  and  C_21
REMARK    8  A    between atoms: C_24  and  C_27
REMARK    9  A    between atoms: C_33  and  C_34
REMARK   10  A    between atoms: C_34  and  C_36
REMARK   11  A    between atoms: C_36  and  O_37
REMARK                            x       y       z     vdW  Elec       q    Type
REMARK                         _______ _______ _______ _____ _____    ______ ____
ROOT
ATOM      1  C   UNL     1      35.367 -16.603 -23.888  0.00  0.00    +0.149 C 
ENDROOT
BRANCH   1   4
ATOM      2  O   UNL     1      35.020 -14.209 -23.865  0.00  0.00    -0.273 OA
ATOM      3  N   UNL     1      33.979 -15.502 -22.240  0.00  0.00    -0.306 N 
ATOM      4  C   UNL     1      34.776 -15.303 -23.357  0.00  0.00    +0.240 C 
ATOM      5  H   UNL     1      33.850 -16.422 -21.915  0.00  0.00    +0.149 HD
BRANCH   3   6
ATOM      6  C   UNL     1      33.330 -14.424 -21.530  0.00  0.00    +0.061 C 
ATOM      7  C   UNL     1      32.568 -14.998 -20.326  0.00  0.00    +0.020 C 
ATOM      8  C   UNL     1      34.420 -13.471 -21.011  0.00  0.00    +0.020 C 
BRANCH   6   9
ATOM      9  C   UNL     1      32.393 -13.630 -22.478  0.00  0.00    +0.044 C 
BRANCH   9  11
ATOM     10  F   UNL     1      31.697  -8.167 -21.259  0.00  0.00    -0.204 F 
ATOM     11  C   UNL     1      32.207 -12.166 -22.151  0.00  0.00    -0.020 C 
ATOM     12  C   UNL     1      32.738 -11.190 -22.995  0.00  0.00    -0.002 C 
ATOM     13  C   UNL     1      31.504 -11.791 -21.006  0.00  0.00    -0.002 C 
ATOM     14  C   UNL     1      32.565  -9.839 -22.694  0.00  0.00    +0.029 C 
ATOM     15  C   UNL     1      31.331 -10.440 -20.705  0.00  0.00    +0.029 C 
ATOM     16  C   UNL     1      31.862  -9.464 -21.549  0.00  0.00    +0.140 C 
ENDBRANCH   9  11
ENDBRANCH   6   9
ENDBRANCH   3   6
ENDBRANCH   1   4
BRANCH   1  18
ATOM     17  O   UNL     1      37.144 -18.743 -23.175  0.00  0.00    -0.270 OA
ATOM     18  N   UNL     1      35.168 -17.575 -22.841  0.00  0.00    -0.295 N 
ATOM     19  C   UNL     1      36.088 -18.578 -22.570  0.00  0.00    +0.246 C 
ATOM     20  H   UNL     1      34.348 -17.526 -22.299  0.00  0.00    +0.150 HD
BRANCH  19  21
ATOM     21  C   UNL     1      35.722 -19.517 -21.478  0.00  0.00    +0.053 C 
ATOM     22  C   UNL     1      34.382 -19.819 -21.237  0.00  0.00    +0.005 C 
ATOM     23  C   UNL     1      36.720 -20.097 -20.695  0.00  0.00    +0.005 C 
ATOM     24  C   UNL     1      35.037 -21.281 -19.429  0.00  0.00    +0.000 C 
ATOM     25  C   UNL     1      34.040 -20.701 -20.212  0.00  0.00    +0.000 C 
ATOM     26  C   UNL     1      36.378 -20.979 -19.670  0.00  0.00    +0.000 C 
BRANCH  24  27
ATOM     27  C   UNL     1      34.682 -22.195 -18.366  0.00  0.00    +0.000 C 
ATOM     28  C   UNL     1      35.607 -22.494 -17.364  0.00  0.00    +0.000 C 
ATOM     29  C   UNL     1      33.415 -22.778 -18.340  0.00  0.00    +0.000 C 
ATOM     30  C   UNL     1      35.264 -23.375 -16.338  0.00  0.00    +0.000 C 
ATOM     31  C   UNL     1      33.073 -23.659 -17.314  0.00  0.00    +0.000 C 
ATOM     32  C   UNL     1      33.998 -23.958 -16.314  0.00  0.00    +0.000 C 
ENDBRANCH  24  27
ENDBRANCH  19  21
ENDBRANCH   1  18
BRANCH   1  33
ATOM     33  C   UNL     1      34.681 -17.053 -25.184  0.00  0.00    +0.041 C 
BRANCH  33  34
ATOM     34  C   UNL     1      33.285 -16.463 -25.395  0.00  0.00    +0.112 C 
BRANCH  34  36
ATOM     35  O   UNL     1      33.989 -14.924 -27.148  0.00  0.00    -0.250 OA
ATOM     36  C   UNL     1      33.296 -15.162 -26.168  0.00  0.00    +0.314 C 
BRANCH  36  37
ATOM     37  O   UNL     1      32.405 -14.273 -25.657  0.00  0.00    -0.480 OA
ATOM     38  H   UNL     1      32.432 -14.051 -24.748  0.00  0.00    +0.295 HD
ENDBRANCH  36  37
ENDBRANCH  34  36
ENDBRANCH  33  34
ENDBRANCH   1  33
TORSDOF 11
ENDMDL
MODEL 2
REMARK VINA RESULT:     -12.7      6.002     11.096
REMARK  Name = 16048422
REMARK  11 active torsions:
REMARK  status: ('A' for Active; 'I' for Inactive)
REMARK    1  A    between atoms: C_1  and  C_4
REMARK    2  A    between atoms: C_1  and  N_18
REMARK    3  A    between atoms: C_1  and  C_33
REMARK    4  A    between atoms: N_3  and  C_6
REMARK    5  A    between atoms: C_6  and  C_9
REMARK    6  A    between atoms: C_9  and  C_11
REMARK    7  A    between atoms: C_19  and  C_21
REMARK    8  A    between atoms: C_24  and  C_27
REMARK    9  A    between atoms: C_33  and  C_34
REMARK   10  A    between atoms: C_34  and  C_36
REMARK   11  A    between atoms: C_36  and  O_37
REMARK                            x       y       z     vdW  Elec       q    Type
REMARK                         _______ _______ _______ _____ _____    ______ ____
ROOT
ATOM      1  C   UNL     1      34.647 -24.141 -15.888  0.00  0.00    +0.149 C 
ENDROOT
BRANCH   1   4
ATOM      2  O   UNL     1      33.500 -23.171 -13.992  0.00  0.00    -0.273 OA
ATOM      3  N   UNL     1      32.244 -24.246 -15.623  0.00  0.00    -0.306 N 
ATOM      4  C   UNL     1      33.422 -23.781 -15.057  0.00  0.00    +0.240 C 
ATOM      5  H   UNL     1      32.295 -24.724 -16.483  0.00  0.00    +0.149 HD
BRANCH   3   6
ATOM      6  C   UNL     1      30.947 -24.063 -15.013  0.00  0.00    +0.061 C 
ATOM      7  C   UNL     1      30.953 -24.696 -13.613  0.00  0.00    +0.020 C 
ATOM      8  C   UNL     1      30.699 -22.552 -14.867  0.00  0.00    +0.020 C 
BRANCH   6   9
ATOM      9  C   UNL     1      29.832 -24.660 -15.910  0.00  0.00    +0.044 C 
BRANCH   9  11
ATOM     10  F   UNL     1      25.639 -21.153 -17.301  0.00  0.00    -0.204 F 
ATOM     11  C   UNL     1      28.708 -23.720 -16.283  0.00  0.00    -0.020 C 
ATOM     12  C   UNL     1      28.389 -23.512 -17.625  0.00  0.00    -0.002 C 
ATOM     13  C   UNL     1      27.990 -23.061 -15.285  0.00  0.00    -0.002 C 
ATOM     14  C   UNL     1      27.351 -22.645 -17.969  0.00  0.00    +0.029 C 
ATOM     15  C   UNL     1      26.953 -22.195 -15.629  0.00  0.00    +0.029 C 
ATOM     16  C   UNL     1      26.634 -21.987 -16.971  0.00  0.00    +0.140 C 
ENDBRANCH   9  11
ENDBRANCH   6   9
ENDBRANCH   3   6
ENDBRANCH   1   4
BRANCH   1  18
ATOM     17  O   UNL     1      33.426 -24.231 -18.485  0.00  0.00    -0.270 OA
ATOM     18  N   UNL     1      34.730 -23.131 -16.915  0.00  0.00    -0.295 N 
ATOM     19  C   UNL     1      34.102 -23.264 -18.144  0.00  0.00    +0.246 C 
ATOM     20  H   UNL     1      35.252 -22.316 -16.736  0.00  0.00    +0.150 HD
BRANCH  19  21
ATOM     21  C   UNL     1      34.307 -22.148 -19.104  0.00  0.00    +0.053 C 
ATOM     22  C   UNL     1      35.600 -21.754 -19.449  0.00  0.00    +0.005 C 
ATOM     23  C   UNL     1      33.207 -21.496 -19.659  0.00  0.00    +0.005 C 
ATOM     24  C   UNL     1      34.691 -20.053 -20.905  0.00  0.00    +0.000 C 
ATOM     25  C   UNL     1      35.792 -20.705 -20.349  0.00  0.00    +0.000 C 
ATOM     26  C   UNL     1      33.398 -20.448 -20.560  0.00  0.00    +0.000 C 
BRANCH  24  27
ATOM     27  C   UNL     1      34.890 -18.967 -21.839  0.00  0.00    +0.000 C 
ATOM     28  C   UNL     1      35.129 -17.676 -21.367  0.00  0.00    +0.000 C 
ATOM     29  C   UNL     1      34.845 -19.209 -23.212  0.00  0.00    +0.000 C 
ATOM     30  C   UNL     1      35.322 -16.628 -22.267  0.00  0.00    +0.000 C 
ATOM     31  C   UNL     1      35.037 -18.161 -24.112  0.00  0.00    +0.000 C 
ATOM     32  C   UNL     1      35.275 -16.871 -23.640  0.00  0.00    +0.000 C 
ENDBRANCH  24  27
ENDBRANCH  19  21
ENDBRANCH   1  18
BRANCH   1  33
ATOM     33  C   UNL     1      35.925 -24.158 -15.041  0.00  0.00    +0.041 C 
BRANCH  33  34
ATOM     34  C   UNL     1      36.289 -25.534 -14.478  0.00  0.00    +0.112 C 
BRANCH  34  36
ATOM     35  O   UNL     1      36.603 -27.230 -16.198  0.00  0.00    -0.250 OA
ATOM     36  C   UNL     1      37.076 -26.388 -15.447  0.00  0.00    +0.314 C 
BRANCH  36  37
ATOM     37  O   UNL     1      38.400 -26.088 -15.412  0.00  0.00    -0.480 OA
ATOM     38  H   UNL     1      38.810 -25.686 -16.153  0.00  0.00    +0.295 HD
ENDBRANCH  36  37
ENDBRANCH  34  36
ENDBRANCH  33  34
ENDBRANCH   1  33
TORSDOF 11
ENDMDL
MODEL 3
REMARK VINA RESULT:     -12.4      7.285     11.997
REMARK  Name = 16048422
REMARK  11 active torsions:
REMARK  status: ('A' for Active; 'I' for Inactive)
REMARK    1  A    between atoms: C_1  and  C_4
REMARK    2  A    between atoms: C_1  and  N_18
REMARK    3  A    between atoms: C_1  and  C_33
REMARK    4  A    between atoms: N_3  and  C_6
REMARK    5  A    between atoms: C_6  and  C_9
REMARK    6  A    between atoms: C_9  and  C_11
REMARK    7  A    between atoms: C_19  and  C_21
REMARK    8  A    between atoms: C_24  and  C_27
REMARK    9  A    between atoms: C_33  and  C_34
REMARK   10  A    between atoms: C_34  and  C_36
REMARK   11  A    between atoms: C_36  and  O_37
REMARK                            x       y       z     vdW  Elec       q    Type
REMARK                         _______ _______ _______ _____ _____    ______ ____
ROOT
ATOM      1  C   UNL     1      31.442 -23.351 -15.349  0.00  0.00    +0.149 C 
ENDROOT
BRANCH   1   4
ATOM      2  O   UNL     1      32.282 -25.342 -14.262  0.00  0.00    -0.273 OA
ATOM      3  N   UNL     1      33.730 -23.557 -14.588  0.00  0.00    -0.306 N 
ATOM      4  C   UNL     1      32.511 -24.210 -14.684  0.00  0.00    +0.240 C 
ATOM      5  H   UNL     1      33.805 -22.648 -14.960  0.00  0.00    +0.149 HD
BRANCH   3   6
ATOM      6  C   UNL     1      34.896 -24.144 -13.968  0.00  0.00    +0.061 C 
ATOM      7  C   UNL     1      34.653 -24.276 -12.457  0.00  0.00    +0.020 C 
ATOM      8  C   UNL     1      35.090 -25.552 -14.558  0.00  0.00    +0.020 C 
BRANCH   6   9
ATOM      9  C   UNL     1      36.162 -23.303 -14.277  0.00  0.00    +0.044 C 
BRANCH   9  11
ATOM     10  F   UNL     1      41.060 -26.099 -14.215  0.00  0.00    -0.204 F 
ATOM     11  C   UNL     1      37.475 -24.053 -14.260  0.00  0.00    -0.020 C 
ATOM     12  C   UNL     1      37.898 -24.692 -13.095  0.00  0.00    -0.002 C 
ATOM     13  C   UNL     1      38.263 -24.104 -15.410  0.00  0.00    -0.002 C 
ATOM     14  C   UNL     1      39.109 -25.384 -13.080  0.00  0.00    +0.029 C 
ATOM     15  C   UNL     1      39.474 -24.796 -15.395  0.00  0.00    +0.029 C 
ATOM     16  C   UNL     1      39.897 -25.436 -14.230  0.00  0.00    +0.140 C 
ENDBRANCH   9  11
ENDBRANCH   6   9
ENDBRANCH   3   6
ENDBRANCH   1   4
BRANCH   1  18
ATOM     17  O   UNL     1      33.113 -24.499 -17.382  0.00  0.00    -0.270 OA
ATOM     18  N   UNL     1      32.118 -22.644 -16.409  0.00  0.00    -0.295 N 
ATOM     19  C   UNL     1      32.907 -23.289 -17.350  0.00  0.00    +0.246 C 
ATOM     20  H   UNL     1      32.015 -21.667 -16.468  0.00  0.00    +0.150 HD
BRANCH  19  21
ATOM     21  C   UNL     1      33.557 -22.416 -18.362  0.00  0.00    +0.053 C 
ATOM     22  C   UNL     1      34.947 -22.381 -18.463  0.00  0.00    +0.005 C 
ATOM     23  C   UNL     1      32.775 -21.632 -19.210  0.00  0.00    +0.005 C 
ATOM     24  C   UNL     1      34.776 -20.777 -20.261  0.00  0.00    +0.000 C 
ATOM     25  C   UNL     1      35.557 -21.561 -19.413  0.00  0.00    +0.000 C 
ATOM     26  C   UNL     1      33.385 -20.812 -20.161  0.00  0.00    +0.000 C 
BRANCH  24  27
ATOM     27  C   UNL     1      35.407 -19.927 -21.247  0.00  0.00    +0.000 C 
ATOM     28  C   UNL     1      34.728 -19.593 -22.418  0.00  0.00    +0.000 C 
ATOM     29  C   UNL     1      36.696 -19.439 -21.025  0.00  0.00    +0.000 C 
ATOM     30  C   UNL     1      35.337 -18.771 -23.368  0.00  0.00    +0.000 C 
ATOM     31  C   UNL     1      37.304 -18.618 -21.975  0.00  0.00    +0.000 C 
ATOM     32  C   UNL     1      36.625 -18.285 -23.146  0.00  0.00    +0.000 C 
ENDBRANCH  24  27
ENDBRANCH  19  21
ENDBRANCH   1  18
BRANCH   1  33
ATOM     33  C   UNL     1      30.295 -24.201 -15.908  0.00  0.00    +0.041 C 
BRANCH  33  34
ATOM     34  C   UNL     1      28.902 -23.612 -15.673  0.00  0.00    +0.112 C 
BRANCH  34  36
ATOM     35  O   UNL     1      28.145 -21.995 -17.330  0.00  0.00    -0.250 OA
ATOM     36  C   UNL     1      28.225 -23.153 -16.945  0.00  0.00    +0.314 C 
BRANCH  36  37
ATOM     37  O   UNL     1      27.724 -24.203 -17.649  0.00  0.00    -0.480 OA
ATOM     38  H   UNL     1      27.660 -24.154 -18.582  0.00  0.00    +0.295 HD
ENDBRANCH  36  37
ENDBRANCH  34  36
ENDBRANCH  33  34
ENDBRANCH   1  33
TORSDOF 11
ENDMDL
MODEL 4
REMARK VINA RESULT:     -12.2      3.104     10.115
REMARK  Name = 16048422
REMARK  11 active torsions:
REMARK  status: ('A' for Active; 'I' for Inactive)
REMARK    1  A    between atoms: C_1  and  C_4
REMARK    2  A    between atoms: C_1  and  N_18
REMARK    3  A    between atoms: C_1  and  C_33
REMARK    4  A    between atoms: N_3  and  C_6
REMARK    5  A    between atoms: C_6  and  C_9
REMARK    6  A    between atoms: C_9  and  C_11
REMARK    7  A    between atoms: C_19  and  C_21
REMARK    8  A    between atoms: C_24  and  C_27
REMARK    9  A    between atoms: C_33  and  C_34
REMARK   10  A    between atoms: C_34  and  C_36
REMARK   11  A    between atoms: C_36  and  O_37
REMARK                            x       y       z     vdW  Elec       q    Type
REMARK                         _______ _______ _______ _____ _____    ______ ____
ROOT
ATOM      1  C   UNL     1      33.551 -15.433 -24.269  0.00  0.00    +0.149 C 
ENDROOT
BRANCH   1   4
ATOM      2  O   UNL     1      35.399 -15.340 -22.711  0.00  0.00    -0.273 OA
ATOM      3  N   UNL     1      34.446 -17.404 -23.188  0.00  0.00    -0.306 N 
ATOM      4  C   UNL     1      34.563 -16.026 -23.297  0.00  0.00    +0.240 C 
ATOM      5  H   UNL     1      33.739 -17.856 -23.703  0.00  0.00    +0.149 HD
BRANCH   3   6
ATOM      6  C   UNL     1      35.311 -18.207 -22.354  0.00  0.00    +0.061 C 
ATOM      7  C   UNL     1      36.757 -18.080 -22.856  0.00  0.00    +0.020 C 
ATOM      8  C   UNL     1      35.239 -17.655 -20.921  0.00  0.00    +0.020 C 
BRANCH   6   9
ATOM      9  C   UNL     1      34.836 -19.684 -22.337  0.00  0.00    +0.044 C 
BRANCH   9  11
ATOM     10  F   UNL     1      35.753 -22.516 -17.546  0.00  0.00    -0.204 F 
ATOM     11  C   UNL     1      35.081 -20.443 -21.053  0.00  0.00    -0.020 C 
ATOM     12  C   UNL     1      36.384 -20.615 -20.583  0.00  0.00    -0.002 C 
ATOM     13  C   UNL     1      34.006 -20.971 -20.339  0.00  0.00    -0.002 C 
ATOM     14  C   UNL     1      36.610 -21.315 -19.398  0.00  0.00    +0.029 C 
ATOM     15  C   UNL     1      34.233 -21.671 -19.154  0.00  0.00    +0.029 C 
ATOM     16  C   UNL     1      35.535 -21.843 -18.684  0.00  0.00    +0.140 C 
ENDBRANCH   9  11
ENDBRANCH   6   9
ENDBRANCH   3   6
ENDBRANCH   1   4
BRANCH   1  18
ATOM     17  O   UNL     1      32.257 -14.653 -21.828  0.00  0.00    -0.270 OA
ATOM     18  N   UNL     1      33.317 -14.085 -23.811  0.00  0.00    -0.295 N 
ATOM     19  C   UNL     1      32.680 -13.806 -22.611  0.00  0.00    +0.246 C 
ATOM     20  H   UNL     1      33.620 -13.335 -24.371  0.00  0.00    +0.150 HD
BRANCH  19  21
ATOM     21  C   UNL     1      32.490 -12.367 -22.295  0.00  0.00    +0.053 C 
ATOM     22  C   UNL     1      32.897 -11.393 -23.207  0.00  0.00    +0.005 C 
ATOM     23  C   UNL     1      31.905 -11.990 -21.087  0.00  0.00    +0.005 C 
ATOM     24  C   UNL     1      32.134  -9.665 -21.702  0.00  0.00    +0.000 C 
ATOM     25  C   UNL     1      32.720 -10.042 -22.910  0.00  0.00    +0.000 C 
ATOM     26  C   UNL     1      31.726 -10.639 -20.790  0.00  0.00    +0.000 C 
BRANCH  24  27
ATOM     27  C   UNL     1      31.949  -8.264 -21.393  0.00  0.00    +0.000 C 
ATOM     28  C   UNL     1      31.459  -7.393 -22.368  0.00  0.00    +0.000 C 
ATOM     29  C   UNL     1      32.258  -7.782 -20.121  0.00  0.00    +0.000 C 
ATOM     30  C   UNL     1      31.279  -6.043 -22.070  0.00  0.00    +0.000 C 
ATOM     31  C   UNL     1      32.079  -6.431 -19.824  0.00  0.00    +0.000 C 
ATOM     32  C   UNL     1      31.590  -5.561 -20.798  0.00  0.00    +0.000 C 
ENDBRANCH  24  27
ENDBRANCH  19  21
ENDBRANCH   1  18
BRANCH   1  33
ATOM     33  C   UNL     1      34.078 -15.432 -25.709  0.00  0.00    +0.041 C 
BRANCH  33  34
ATOM     34  C   UNL     1      33.061 -14.966 -26.753  0.00  0.00    +0.112 C 
BRANCH  34  36
ATOM     35  O   UNL     1      34.595 -13.375 -27.777  0.00  0.00    -0.250 OA
ATOM     36  C   UNL     1      33.458 -13.681 -27.445  0.00  0.00    +0.314 C 
BRANCH  36  37
ATOM     37  O   UNL     1      32.378 -12.894 -27.690  0.00  0.00    -0.480 OA
ATOM     38  H   UNL     1      32.334 -12.391 -28.479  0.00  0.00    +0.295 HD
ENDBRANCH  36  37
ENDBRANCH  34  36
ENDBRANCH  33  34
ENDBRANCH   1  33
TORSDOF 11
ENDMDL
MODEL 5
REMARK VINA RESULT:     -11.8      1.282      2.064
REMARK  Name = 16048422
REMARK  11 active torsions:
REMARK  status: ('A' for Active; 'I' for Inactive)
REMARK    1  A    between atoms: C_1  and  C_4
REMARK    2  A    between atoms: C_1  and  N_18
REMARK    3  A    between atoms: C_1  and  C_33
REMARK    4  A    between atoms: N_3  and  C_6
REMARK    5  A    between atoms: C_6  and  C_9
REMARK    6  A    between atoms: C_9  and  C_11
REMARK    7  A    between atoms: C_19  and  C_21
REMARK    8  A    between atoms: C_24  and  C_27
REMARK    9  A    between atoms: C_33  and  C_34
REMARK   10  A    between atoms: C_34  and  C_36
REMARK   11  A    between atoms: C_36  and  O_37
REMARK                            x       y       z     vdW  Elec       q    Type
REMARK                         _______ _______ _______ _____ _____    ______ ____
ROOT
ATOM      1  C   UNL     1      35.467 -16.558 -23.900  0.00  0.00    +0.149 C 
ENDROOT
BRANCH   1   4
ATOM      2  O   UNL     1      34.541 -15.037 -22.263  0.00  0.00    -0.273 OA
ATOM      3  N   UNL     1      34.309 -14.525 -24.516  0.00  0.00    -0.306 N 
ATOM      4  C   UNL     1      34.739 -15.299 -23.448  0.00  0.00    +0.240 C 
ATOM      5  H   UNL     1      34.521 -14.827 -25.429  0.00  0.00    +0.149 HD
BRANCH   3   6
ATOM      6  C   UNL     1      33.565 -13.297 -24.354  0.00  0.00    +0.061 C 
ATOM      7  C   UNL     1      34.509 -12.196 -23.848  0.00  0.00    +0.020 C 
ATOM      8  C   UNL     1      33.023 -12.883 -25.733  0.00  0.00    +0.020 C 
BRANCH   6   9
ATOM      9  C   UNL     1      32.362 -13.509 -23.397  0.00  0.00    +0.044 C 
BRANCH   9  11
ATOM     10  F   UNL     1      31.508  -9.454 -19.571  0.00  0.00    -0.204 F 
ATOM     11  C   UNL     1      32.133 -12.422 -22.371  0.00  0.00    -0.020 C 
ATOM     12  C   UNL     1      32.260 -12.708 -21.012  0.00  0.00    -0.002 C 
ATOM     13  C   UNL     1      31.795 -11.134 -22.785  0.00  0.00    -0.002 C 
ATOM     14  C   UNL     1      32.049 -11.705 -20.066  0.00  0.00    +0.029 C 
ATOM     15  C   UNL     1      31.585 -10.131 -21.839  0.00  0.00    +0.029 C 
ATOM     16  C   UNL     1      31.712 -10.417 -20.479  0.00  0.00    +0.140 C 
ENDBRANCH   9  11
ENDBRANCH   6   9
ENDBRANCH   3   6
ENDBRANCH   1   4
BRANCH   1  18
ATOM     17  O   UNL     1      37.209 -18.723 -23.177  0.00  0.00    -0.270 OA
ATOM     18  N   UNL     1      35.246 -17.530 -22.858  0.00  0.00    -0.295 N 
ATOM     19  C   UNL     1      36.150 -18.545 -22.580  0.00  0.00    +0.246 C 
ATOM     20  H   UNL     1      34.422 -17.471 -22.323  0.00  0.00    +0.150 HD
BRANCH  19  21
ATOM     21  C   UNL     1      35.762 -19.482 -21.494  0.00  0.00    +0.053 C 
ATOM     22  C   UNL     1      36.743 -20.064 -20.692  0.00  0.00    +0.005 C 
ATOM     23  C   UNL     1      34.417 -19.778 -21.277  0.00  0.00    +0.005 C 
ATOM     24  C   UNL     1      35.034 -21.240 -19.455  0.00  0.00    +0.000 C 
ATOM     25  C   UNL     1      36.379 -20.944 -19.672  0.00  0.00    +0.000 C 
ATOM     26  C   UNL     1      34.052 -20.657 -20.256  0.00  0.00    +0.000 C 
BRANCH  24  27
ATOM     27  C   UNL     1      34.656 -22.152 -18.397  0.00  0.00    +0.000 C 
ATOM     28  C   UNL     1      35.574 -22.484 -17.401  0.00  0.00    +0.000 C 
ATOM     29  C   UNL     1      33.372 -22.697 -18.372  0.00  0.00    +0.000 C 
ATOM     30  C   UNL     1      35.209 -23.362 -16.380  0.00  0.00    +0.000 C 
ATOM     31  C   UNL     1      33.008 -23.576 -17.352  0.00  0.00    +0.000 C 
ATOM     32  C   UNL     1      33.926 -23.909 -16.356  0.00  0.00    +0.000 C 
ENDBRANCH  24  27
ENDBRANCH  19  21
ENDBRANCH   1  18
BRANCH   1  33
ATOM     33  C   UNL     1      34.935 -17.073 -25.243  0.00  0.00    +0.041 C 
BRANCH  33  34
ATOM     34  C   UNL     1      33.648 -17.895 -25.138  0.00  0.00    +0.112 C 
BRANCH  34  36
ATOM     35  O   UNL     1      31.558 -18.036 -26.381  0.00  0.00    -0.250 OA
ATOM     36  C   UNL     1      32.544 -17.396 -26.043  0.00  0.00    +0.314 C 
BRANCH  36  37
ATOM     37  O   UNL     1      32.759 -16.110 -26.428  0.00  0.00    -0.480 OA
ATOM     38  H   UNL     1      32.508 -15.829 -27.285  0.00  0.00    +0.295 HD
ENDBRANCH  36  37
ENDBRANCH  34  36
ENDBRANCH  33  34
ENDBRANCH   1  33
TORSDOF 11
ENDMDL
MODEL 6
REMARK VINA RESULT:     -11.7      1.811      2.827
REMARK  Name = 16048422
REMARK  11 active torsions:
REMARK  status: ('A' for Active; 'I' for Inactive)
REMARK    1  A    between atoms: C_1  and  C_4
REMARK    2  A    between atoms: C_1  and  N_18
REMARK    3  A    between atoms: C_1  and  C_33
REMARK    4  A    between atoms: N_3  and  C_6
REMARK    5  A    between atoms: C_6  and  C_9
REMARK    6  A    between atoms: C_9  and  C_11
REMARK    7  A    between atoms: C_19  and  C_21
REMARK    8  A    between atoms: C_24  and  C_27
REMARK    9  A    between atoms: C_33  and  C_34
REMARK   10  A    between atoms: C_34  and  C_36
REMARK   11  A    between atoms: C_36  and  O_37
REMARK                            x       y       z     vdW  Elec       q    Type
REMARK                         _______ _______ _______ _____ _____    ______ ____
ROOT
ATOM      1  C   UNL     1      35.027 -18.794 -22.069  0.00  0.00    +0.149 C 
ENDROOT
BRANCH   1   4
ATOM      2  O   UNL     1      35.677 -16.990 -20.594  0.00  0.00    -0.273 OA
ATOM      3  N   UNL     1      34.072 -16.576 -22.220  0.00  0.00    -0.306 N 
ATOM      4  C   UNL     1      34.986 -17.366 -21.540  0.00  0.00    +0.240 C 
ATOM      5  H   UNL     1      33.568 -16.978 -22.965  0.00  0.00    +0.149 HD
BRANCH   3   6
ATOM      6  C   UNL     1      33.821 -15.192 -21.888  0.00  0.00    +0.061 C 
ATOM      7  C   UNL     1      32.965 -15.125 -20.614  0.00  0.00    +0.020 C 
ATOM      8  C   UNL     1      35.174 -14.518 -21.606  0.00  0.00    +0.020 C 
BRANCH   6   9
ATOM      9  C   UNL     1      33.144 -14.459 -23.076  0.00  0.00    +0.044 C 
BRANCH   9  11
ATOM     10  F   UNL     1      32.028  -8.987 -22.289  0.00  0.00    -0.204 F 
ATOM     11  C   UNL     1      32.845 -12.992 -22.865  0.00  0.00    -0.020 C 
ATOM     12  C   UNL     1      33.463 -12.032 -23.666  0.00  0.00    -0.002 C 
ATOM     13  C   UNL     1      31.951 -12.599 -21.869  0.00  0.00    -0.002 C 
ATOM     14  C   UNL     1      33.187 -10.679 -23.472  0.00  0.00    +0.029 C 
ATOM     15  C   UNL     1      31.674 -11.246 -21.675  0.00  0.00    +0.029 C 
ATOM     16  C   UNL     1      32.293 -10.286 -22.476  0.00  0.00    +0.140 C 
ENDBRANCH   9  11
ENDBRANCH   6   9
ENDBRANCH   3   6
ENDBRANCH   1   4
BRANCH   1  18
ATOM     17  O   UNL     1      36.350 -20.966 -20.737  0.00  0.00    -0.270 OA
ATOM     18  N   UNL     1      34.486 -19.614 -21.013  0.00  0.00    -0.295 N 
ATOM     19  C   UNL     1      35.206 -20.646 -20.428  0.00  0.00    +0.246 C 
ATOM     20  H   UNL     1      33.572 -19.436 -20.695  0.00  0.00    +0.150 HD
BRANCH  19  21
ATOM     21  C   UNL     1      34.497 -21.415 -19.372  0.00  0.00    +0.053 C 
ATOM     22  C   UNL     1      33.103 -21.449 -19.350  0.00  0.00    +0.005 C 
ATOM     23  C   UNL     1      35.227 -22.105 -18.404  0.00  0.00    +0.005 C 
ATOM     24  C   UNL     1      33.169 -22.860 -17.390  0.00  0.00    +0.000 C 
ATOM     25  C   UNL     1      32.439 -22.170 -18.358  0.00  0.00    +0.000 C 
ATOM     26  C   UNL     1      34.563 -22.827 -17.413  0.00  0.00    +0.000 C 
BRANCH  24  27
ATOM     27  C   UNL     1      32.480 -23.609 -16.362  0.00  0.00    +0.000 C 
ATOM     28  C   UNL     1      31.115 -23.871 -16.485  0.00  0.00    +0.000 C 
ATOM     29  C   UNL     1      33.180 -24.071 -15.247  0.00  0.00    +0.000 C 
ATOM     30  C   UNL     1      30.452 -24.595 -15.494  0.00  0.00    +0.000 C 
ATOM     31  C   UNL     1      32.516 -24.794 -14.256  0.00  0.00    +0.000 C 
ATOM     32  C   UNL     1      31.152 -25.055 -14.380  0.00  0.00    +0.000 C 
ENDBRANCH  24  27
ENDBRANCH  19  21
ENDBRANCH   1  18
BRANCH   1  33
ATOM     33  C   UNL     1      34.201 -18.949 -23.352  0.00  0.00    +0.041 C 
BRANCH  33  34
ATOM     34  C   UNL     1      34.986 -18.694 -24.641  0.00  0.00    +0.112 C 
BRANCH  34  36
ATOM     35  O   UNL     1      33.774 -17.084 -26.009  0.00  0.00    -0.250 OA
ATOM     36  C   UNL     1      34.703 -17.342 -25.256  0.00  0.00    +0.314 C 
BRANCH  36  37
ATOM     37  O   UNL     1      35.602 -16.410 -24.845  0.00  0.00    -0.480 OA
ATOM     38  H   UNL     1      35.380 -15.817 -24.154  0.00  0.00    +0.295 HD
ENDBRANCH  36  37
ENDBRANCH  34  36
ENDBRANCH  33  34
ENDBRANCH   1  33
TORSDOF 11
ENDMDL
MODEL 7
REMARK VINA RESULT:     -11.6      6.604     12.372
REMARK  Name = 16048422
REMARK  11 active torsions:
REMARK  status: ('A' for Active; 'I' for Inactive)
REMARK    1  A    between atoms: C_1  and  C_4
REMARK    2  A    between atoms: C_1  and  N_18
REMARK    3  A    between atoms: C_1  and  C_33
REMARK    4  A    between atoms: N_3  and  C_6
REMARK    5  A    between atoms: C_6  and  C_9
REMARK    6  A    between atoms: C_9  and  C_11
REMARK    7  A    between atoms: C_19  and  C_21
REMARK    8  A    between atoms: C_24  and  C_27
REMARK    9  A    between atoms: C_33  and  C_34
REMARK   10  A    between atoms: C_34  and  C_36
REMARK   11  A    between atoms: C_36  and  O_37
REMARK                            x       y       z     vdW  Elec       q    Type
REMARK                         _______ _______ _______ _____ _____    ______ ____
ROOT
ATOM      1  C   UNL     1      32.920 -23.280 -15.727  0.00  0.00    +0.149 C 
ENDROOT
BRANCH   1   4
ATOM      2  O   UNL     1      35.010 -24.471 -15.977  0.00  0.00    -0.273 OA
ATOM      3  N   UNL     1      34.492 -23.555 -13.907  0.00  0.00    -0.306 N 
ATOM      4  C   UNL     1      34.257 -23.831 -15.246  0.00  0.00    +0.240 C 
ATOM      5  H   UNL     1      33.820 -23.032 -13.412  0.00  0.00    +0.149 HD
BRANCH   3   6
ATOM      6  C   UNL     1      35.674 -23.997 -13.204  0.00  0.00    +0.061 C 
ATOM      7  C   UNL     1      35.493 -23.742 -11.700  0.00  0.00    +0.020 C 
ATOM      8  C   UNL     1      35.823 -25.511 -13.430  0.00  0.00    +0.020 C 
BRANCH   6   9
ATOM      9  C   UNL     1      36.938 -23.290 -13.760  0.00  0.00    +0.044 C 
BRANCH   9  11
ATOM     10  F   UNL     1      41.280 -26.650 -15.053  0.00  0.00    -0.204 F 
ATOM     11  C   UNL     1      38.102 -24.191 -14.107  0.00  0.00    -0.020 C 
ATOM     12  C   UNL     1      38.732 -24.932 -13.107  0.00  0.00    -0.002 C 
ATOM     13  C   UNL     1      38.545 -24.280 -15.426  0.00  0.00    -0.002 C 
ATOM     14  C   UNL     1      39.805 -25.763 -13.427  0.00  0.00    +0.029 C 
ATOM     15  C   UNL     1      39.619 -25.111 -15.746  0.00  0.00    +0.029 C 
ATOM     16  C   UNL     1      40.248 -25.852 -14.746  0.00  0.00    +0.140 C 
ENDBRANCH   9  11
ENDBRANCH   6   9
ENDBRANCH   3   6
ENDBRANCH   1   4
BRANCH   1  18
ATOM     17  O   UNL     1      33.543 -24.116 -18.402  0.00  0.00    -0.270 OA
ATOM     18  N   UNL     1      33.232 -22.425 -16.845  0.00  0.00    -0.295 N 
ATOM     19  C   UNL     1      33.522 -22.924 -18.107  0.00  0.00    +0.246 C 
ATOM     20  H   UNL     1      33.241 -21.451 -16.709  0.00  0.00    +0.150 HD
BRANCH  19  21
ATOM     21  C   UNL     1      33.850 -21.914 -19.146  0.00  0.00    +0.053 C 
ATOM     22  C   UNL     1      32.839 -21.132 -19.703  0.00  0.00    +0.005 C 
ATOM     23  C   UNL     1      35.170 -21.748 -19.563  0.00  0.00    +0.005 C 
ATOM     24  C   UNL     1      34.467 -20.018 -21.096  0.00  0.00    +0.000 C 
ATOM     25  C   UNL     1      33.147 -20.184 -20.679  0.00  0.00    +0.000 C 
ATOM     26  C   UNL     1      35.480 -20.799 -20.539  0.00  0.00    +0.000 C 
BRANCH  24  27
ATOM     27  C   UNL     1      34.788 -19.034 -22.107  0.00  0.00    +0.000 C 
ATOM     28  C   UNL     1      35.133 -17.735 -21.733  0.00  0.00    +0.000 C 
ATOM     29  C   UNL     1      34.754 -19.385 -23.457  0.00  0.00    +0.000 C 
ATOM     30  C   UNL     1      35.444 -16.788 -22.709  0.00  0.00    +0.000 C 
ATOM     31  C   UNL     1      35.064 -18.436 -24.432  0.00  0.00    +0.000 C 
ATOM     32  C   UNL     1      35.409 -17.138 -24.058  0.00  0.00    +0.000 C 
ENDBRANCH  24  27
ENDBRANCH  19  21
ENDBRANCH   1  18
BRANCH   1  33
ATOM     33  C   UNL     1      31.962 -24.400 -16.151  0.00  0.00    +0.041 C 
BRANCH  33  34
ATOM     34  C   UNL     1      30.554 -24.280 -15.566  0.00  0.00    +0.112 C 
BRANCH  34  36
ATOM     35  O   UNL     1      31.083 -25.030 -13.310  0.00  0.00    -0.250 OA
ATOM     36  C   UNL     1      30.362 -25.081 -14.297  0.00  0.00    +0.314 C 
BRANCH  36  37
ATOM     37  O   UNL     1      29.254 -25.863 -14.365  0.00  0.00    -0.480 OA
ATOM     38  H   UNL     1      28.753 -26.035 -13.593  0.00  0.00    +0.295 HD
ENDBRANCH  36  37
ENDBRANCH  34  36
ENDBRANCH  33  34
ENDBRANCH   1  33
TORSDOF 11
ENDMDL
MODEL 8
REMARK VINA RESULT:     -11.5      1.824      2.702
REMARK  Name = 16048422
REMARK  11 active torsions:
REMARK  status: ('A' for Active; 'I' for Inactive)
REMARK    1  A    between atoms: C_1  and  C_4
REMARK    2  A    between atoms: C_1  and  N_18
REMARK    3  A    between atoms: C_1  and  C_33
REMARK    4  A    between atoms: N_3  and  C_6
REMARK    5  A    between atoms: C_6  and  C_9
REMARK    6  A    between atoms: C_9  and  C_11
REMARK    7  A    between atoms: C_19  and  C_21
REMARK    8  A    between atoms: C_24  and  C_27
REMARK    9  A    between atoms: C_33  and  C_34
REMARK   10  A    between atoms: C_34  and  C_36
REMARK   11  A    between atoms: C_36  and  O_37
REMARK                            x       y       z     vdW  Elec       q    Type
REMARK                         _______ _______ _______ _____ _____    ______ ____
ROOT
ATOM      1  C   UNL     1      35.536 -18.319 -22.112  0.00  0.00    +0.149 C 
ENDROOT
BRANCH   1   4
ATOM      2  O   UNL     1      35.361 -16.741 -20.288  0.00  0.00    -0.273 OA
ATOM      3  N   UNL     1      34.377 -16.205 -22.322  0.00  0.00    -0.306 N 
ATOM      4  C   UNL     1      35.104 -17.012 -21.460  0.00  0.00    +0.240 C 
ATOM      5  H   UNL     1      34.228 -16.519 -23.243  0.00  0.00    +0.149 HD
BRANCH   3   6
ATOM      6  C   UNL     1      33.825 -14.927 -21.933  0.00  0.00    +0.061 C 
ATOM      7  C   UNL     1      32.752 -15.146 -20.856  0.00  0.00    +0.020 C 
ATOM      8  C   UNL     1      34.961 -14.083 -21.330  0.00  0.00    +0.020 C 
BRANCH   6   9
ATOM      9  C   UNL     1      33.258 -14.179 -23.168  0.00  0.00    +0.044 C 
BRANCH   9  11
ATOM     10  F   UNL     1      31.732  -8.816 -22.318  0.00  0.00    -0.204 F 
ATOM     11  C   UNL     1      32.849 -12.741 -22.940  0.00  0.00    -0.020 C 
ATOM     12  C   UNL     1      33.452 -11.720 -23.675  0.00  0.00    -0.002 C 
ATOM     13  C   UNL     1      31.869 -12.437 -21.995  0.00  0.00    -0.002 C 
ATOM     14  C   UNL     1      33.074 -10.394 -23.465  0.00  0.00    +0.029 C 
ATOM     15  C   UNL     1      31.491 -11.111 -21.786  0.00  0.00    +0.029 C 
ATOM     16  C   UNL     1      32.094 -10.089 -22.520  0.00  0.00    +0.140 C 
ENDBRANCH   9  11
ENDBRANCH   6   9
ENDBRANCH   3   6
ENDBRANCH   1   4
BRANCH   1  18
ATOM     17  O   UNL     1      33.737 -20.387 -21.257  0.00  0.00    -0.270 OA
ATOM     18  N   UNL     1      35.743 -19.245 -21.026  0.00  0.00    -0.295 N 
ATOM     19  C   UNL     1      34.811 -20.216 -20.686  0.00  0.00    +0.246 C 
ATOM     20  H   UNL     1      36.576 -19.187 -20.506  0.00  0.00    +0.150 HD
BRANCH  19  21
ATOM     21  C   UNL     1      35.161 -21.074 -19.526  0.00  0.00    +0.053 C 
ATOM     22  C   UNL     1      36.463 -21.074 -19.025  0.00  0.00    +0.005 C 
ATOM     23  C   UNL     1      34.187 -21.879 -18.935  0.00  0.00    +0.005 C 
ATOM     24  C   UNL     1      35.817 -22.686 -17.345  0.00  0.00    +0.000 C 
ATOM     25  C   UNL     1      36.792 -21.881 -17.935  0.00  0.00    +0.000 C 
ATOM     26  C   UNL     1      34.515 -22.685 -17.845  0.00  0.00    +0.000 C 
BRANCH  24  27
ATOM     27  C   UNL     1      36.157 -23.522 -16.215  0.00  0.00    +0.000 C 
ATOM     28  C   UNL     1      37.468 -23.553 -15.739  0.00  0.00    +0.000 C 
ATOM     29  C   UNL     1      35.174 -24.296 -15.599  0.00  0.00    +0.000 C 
ATOM     30  C   UNL     1      37.796 -24.359 -14.648  0.00  0.00    +0.000 C 
ATOM     31  C   UNL     1      35.502 -25.102 -14.508  0.00  0.00    +0.000 C 
ATOM     32  C   UNL     1      36.813 -25.133 -14.033  0.00  0.00    +0.000 C 
ENDBRANCH  24  27
ENDBRANCH  19  21
ENDBRANCH   1  18
BRANCH   1  33
ATOM     33  C   UNL     1      34.472 -18.849 -23.082  0.00  0.00    +0.041 C 
BRANCH  33  34
ATOM     34  C   UNL     1      34.887 -18.812 -24.554  0.00  0.00    +0.112 C 
BRANCH  34  36
ATOM     35  O   UNL     1      33.534 -17.264 -25.860  0.00  0.00    -0.250 OA
ATOM     36  C   UNL     1      34.558 -17.502 -25.235  0.00  0.00    +0.314 C 
BRANCH  36  37
ATOM     37  O   UNL     1      35.541 -16.584 -25.047  0.00  0.00    -0.480 OA
ATOM     38  H   UNL     1      36.379 -16.704 -25.449  0.00  0.00    +0.295 HD
ENDBRANCH  36  37
ENDBRANCH  34  36
ENDBRANCH  33  34
ENDBRANCH   1  33
TORSDOF 11
ENDMDL
MODEL 9
REMARK VINA RESULT:     -11.4      6.372     12.288
REMARK  Name = 16048422
REMARK  11 active torsions:
REMARK  status: ('A' for Active; 'I' for Inactive)
REMARK    1  A    between atoms: C_1  and  C_4
REMARK    2  A    between atoms: C_1  and  N_18
REMARK    3  A    between atoms: C_1  and  C_33
REMARK    4  A    between atoms: N_3  and  C_6
REMARK    5  A    between atoms: C_6  and  C_9
REMARK    6  A    between atoms: C_9  and  C_11
REMARK    7  A    between atoms: C_19  and  C_21
REMARK    8  A    between atoms: C_24  and  C_27
REMARK    9  A    between atoms: C_33  and  C_34
REMARK   10  A    between atoms: C_34  and  C_36
REMARK   11  A    between atoms: C_36  and  O_37
REMARK                            x       y       z     vdW  Elec       q    Type
REMARK                         _______ _______ _______ _____ _____    ______ ____
ROOT
ATOM      1  C   UNL     1      35.680 -23.156 -15.741  0.00  0.00    +0.149 C 
ENDROOT
BRANCH   1   4
ATOM      2  O   UNL     1      38.027 -22.575 -15.703  0.00  0.00    -0.273 OA
ATOM      3  N   UNL     1      37.411 -24.752 -15.184  0.00  0.00    -0.306 N 
ATOM      4  C   UNL     1      37.164 -23.434 -15.537  0.00  0.00    +0.240 C 
ATOM      5  H   UNL     1      36.644 -25.360 -15.076  0.00  0.00    +0.149 HD
BRANCH   3   6
ATOM      6  C   UNL     1      38.740 -25.277 -14.966  0.00  0.00    +0.061 C 
ATOM      7  C   UNL     1      38.766 -26.764 -15.347  0.00  0.00    +0.020 C 
ATOM      8  C   UNL     1      39.709 -24.517 -15.888  0.00  0.00    +0.020 C 
BRANCH   6   9
ATOM      9  C   UNL     1      39.182 -25.052 -13.496  0.00  0.00    +0.044 C 
BRANCH   9  11
ATOM     10  F   UNL     1      35.055 -23.914  -9.823  0.00  0.00    -0.204 F 
ATOM     11  C   UNL     1      38.076 -24.747 -12.511  0.00  0.00    -0.020 C 
ATOM     12  C   UNL     1      37.150 -25.734 -12.175  0.00  0.00    -0.002 C 
ATOM     13  C   UNL     1      37.981 -23.478 -11.940  0.00  0.00    -0.002 C 
ATOM     14  C   UNL     1      36.130 -25.453 -11.266  0.00  0.00    +0.029 C 
ATOM     15  C   UNL     1      36.962 -23.197 -11.031  0.00  0.00    +0.029 C 
ATOM     16  C   UNL     1      36.036 -24.185 -10.695  0.00  0.00    +0.140 C 
ENDBRANCH   9  11
ENDBRANCH   6   9
ENDBRANCH   3   6
ENDBRANCH   1   4
BRANCH   1  18
ATOM     17  O   UNL     1      33.944 -23.566 -17.991  0.00  0.00    -0.270 OA
ATOM     18  N   UNL     1      35.598 -22.337 -16.925  0.00  0.00    -0.295 N 
ATOM     19  C   UNL     1      34.722 -22.616 -17.965  0.00  0.00    +0.246 C 
ATOM     20  H   UNL     1      36.184 -21.551 -16.999  0.00  0.00    +0.150 HD
BRANCH  19  21
ATOM     21  C   UNL     1      34.778 -21.692 -19.127  0.00  0.00    +0.053 C 
ATOM     22  C   UNL     1      36.011 -21.268 -19.622  0.00  0.00    +0.005 C 
ATOM     23  C   UNL     1      33.598 -21.250 -19.723  0.00  0.00    +0.005 C 
ATOM     24  C   UNL     1      34.883 -19.958 -21.309  0.00  0.00    +0.000 C 
ATOM     25  C   UNL     1      36.064 -20.400 -20.713  0.00  0.00    +0.000 C 
ATOM     26  C   UNL     1      33.650 -20.383 -20.815  0.00  0.00    +0.000 C 
BRANCH  24  27
ATOM     27  C   UNL     1      34.937 -19.058 -22.441  0.00  0.00    +0.000 C 
ATOM     28  C   UNL     1      35.233 -17.709 -22.246  0.00  0.00    +0.000 C 
ATOM     29  C   UNL     1      34.694 -19.540 -23.728  0.00  0.00    +0.000 C 
ATOM     30  C   UNL     1      35.286 -16.842 -23.338  0.00  0.00    +0.000 C 
ATOM     31  C   UNL     1      34.746 -18.672 -24.819  0.00  0.00    +0.000 C 
ATOM     32  C   UNL     1      35.042 -17.323 -24.623  0.00  0.00    +0.000 C 
ENDBRANCH  24  27
ENDBRANCH  19  21
ENDBRANCH   1  18
BRANCH   1  33
ATOM     33  C   UNL     1      34.878 -24.451 -15.921  0.00  0.00    +0.041 C 
BRANCH  33  34
ATOM     34  C   UNL     1      34.007 -24.825 -14.719  0.00  0.00    +0.112 C 
BRANCH  34  36
ATOM     35  O   UNL     1      32.226 -23.193 -15.035  0.00  0.00    -0.250 OA
ATOM     36  C   UNL     1      33.052 -23.725 -14.308  0.00  0.00    +0.314 C 
BRANCH  36  37
ATOM     37  O   UNL     1      33.198 -23.406 -12.995  0.00  0.00    -0.480 OA
ATOM     38  H   UNL     1      33.540 -24.038 -12.394  0.00  0.00    +0.295 HD
ENDBRANCH  36  37
ENDBRANCH  34  36
ENDBRANCH  33  34
ENDBRANCH   1  33
TORSDOF 11
ENDMDL
