MODEL 1
REMARK VINA RESULT:     -12.9      0.000      0.000
REMARK  Name = 4413
REMARK  6 active torsions:
REMARK  status: ('A' for Active; 'I' for Inactive)
REMARK    1  A    between atoms: O_1  and  C_9
REMARK    2  A    between atoms: O_1  and  C_19
REMARK    3  A    between atoms: C_6  and  C_14
REMARK    4  A    between atoms: C_19  and  C_20
REMARK    5  A    between atoms: C_23  and  N_26
REMARK    6  A    between atoms: N_26  and  C_29
REMARK                            x       y       z     vdW  Elec       q    Type
REMARK                         _______ _______ _______ _____ _____    ______ ____
ROOT
ATOM      1  O   UNL     1      35.901 -17.937 -22.412  0.00  0.00    -0.421 OA
ENDROOT
BRANCH   1   9
ATOM      2  C   UNL     1      33.832 -14.345 -22.862  0.00  0.00    +0.000 C 
ATOM      3  C   UNL     1      33.761 -15.054 -21.638  0.00  0.00    +0.003 C 
ATOM      4  C   UNL     1      33.129 -13.137 -22.997  0.00  0.00    +0.003 C 
ATOM      5  C   UNL     1      34.464 -16.262 -21.504  0.00  0.00    +0.038 C 
ATOM      6  C   UNL     1      32.369 -12.634 -21.941  0.00  0.00    +0.031 C 
ATOM      7  C   UNL     1      32.992 -14.533 -20.586  0.00  0.00    +0.000 C 
ATOM      8  C   UNL     1      34.602 -14.867 -23.915  0.00  0.00    +0.003 C 
ATOM      9  C   UNL     1      35.225 -16.766 -22.560  0.00  0.00    +0.149 C 
ATOM     10  C   UNL     1      32.300 -13.331 -20.738  0.00  0.00    +0.003 C 
ATOM     11  C   UNL     1      35.294 -16.069 -23.762  0.00  0.00    +0.038 C 
BRANCH   6  14
ATOM     12  N   UNL     1      32.252 -10.261 -22.663  0.00  0.00    -0.343 N 
ATOM     13  N   UNL     1      30.391 -11.292 -21.694  0.00  0.00    -0.285 NA
ATOM     14  C   UNL     1      31.647 -11.382 -22.097  0.00  0.00    +0.117 C 
ATOM     15  H   UNL     1      31.744  -9.424 -22.759  0.00  0.00    +0.144 HD
ATOM     16  H   UNL     1      33.187 -10.307 -22.966  0.00  0.00    +0.144 HD
ATOM     17  H   UNL     1      29.900 -10.444 -21.799  0.00  0.00    +0.188 HD
ENDBRANCH   6  14
ENDBRANCH   1   9
BRANCH   1  19
ATOM     18  O   UNL     1      34.294 -19.347 -23.339  0.00  0.00    -0.244 OA
ATOM     19  C   UNL     1      35.095 -19.077 -22.456  0.00  0.00    +0.346 C 
BRANCH  19  20
ATOM     20  C   UNL     1      35.337 -19.954 -21.282  0.00  0.00    +0.076 C 
ATOM     21  C   UNL     1      36.631 -20.139 -20.843  0.00  0.00    +0.008 C 
ATOM     22  C   UNL     1      34.258 -20.554 -20.666  0.00  0.00    +0.008 C 
ATOM     23  C   UNL     1      35.784 -21.579 -19.098  0.00  0.00    +0.084 C 
ATOM     24  C   UNL     1      36.857 -20.961 -19.739  0.00  0.00    +0.019 C 
ATOM     25  C   UNL     1      34.484 -21.376 -19.562  0.00  0.00    +0.019 C 
BRANCH  23  26
ATOM     26  N   UNL     1      36.011 -22.404 -17.992  0.00  0.00    -0.214 NA
BRANCH  26  29
ATOM     27  N   UNL     1      37.622 -23.053 -16.431  0.00  0.00    -0.370 N 
ATOM     28  N   UNL     1      37.421 -20.819 -16.848  0.00  0.00    -0.370 N 
ATOM     29  C   UNL     1      36.960 -22.082 -17.146  0.00  0.00    +0.193 C 
ATOM     30  H   UNL     1      37.386 -24.001 -16.552  0.00  0.00    +0.159 HD
ATOM     31  H   UNL     1      38.333 -22.800 -15.798  0.00  0.00    +0.159 HD
ATOM     32  H   UNL     1      37.028 -20.034 -17.294  0.00  0.00    +0.159 HD
ATOM     33  H   UNL     1      38.145 -20.700 -16.190  0.00  0.00    +0.159 HD
ENDBRANCH  26  29
ENDBRANCH  23  26
ENDBRANCH  19  20
ENDBRANCH   1  19
TORSDOF 6
ENDMDL
MODEL 2
REMARK VINA RESULT:     -12.7      1.544      2.056
REMARK  Name = 4413
REMARK  6 active torsions:
REMARK  status: ('A' for Active; 'I' for Inactive)
REMARK    1  A    between atoms: O_1  and  C_9
REMARK    2  A    between atoms: O_1  and  C_19
REMARK    3  A    between atoms: C_6  and  C_14
REMARK    4  A    between atoms: C_19  and  C_20
REMARK    5  A    between atoms: C_23  and  N_26
REMARK    6  A    between atoms: N_26  and  C_29
REMARK                            x       y       z     vdW  Elec       q    Type
REMARK                         _______ _______ _______ _____ _____    ______ ____
ROOT
ATOM      1  O   UNL     1      35.740 -18.633 -22.556  0.00  0.00    -0.421 OA
ENDROOT
BRANCH   1   9
ATOM      2  C   UNL     1      33.881 -14.926 -22.991  0.00  0.00    +0.000 C 
ATOM      3  C   UNL     1      33.875 -15.577 -21.734  0.00  0.00    +0.003 C 
ATOM      4  C   UNL     1      33.251 -13.678 -23.120  0.00  0.00    +0.003 C 
ATOM      5  C   UNL     1      34.506 -16.825 -21.605  0.00  0.00    +0.038 C 
ATOM      6  C   UNL     1      32.625 -13.080 -22.027  0.00  0.00    +0.031 C 
ATOM      7  C   UNL     1      33.241 -14.961 -20.644  0.00  0.00    +0.000 C 
ATOM      8  C   UNL     1      34.516 -15.543 -24.081  0.00  0.00    +0.003 C 
ATOM      9  C   UNL     1      35.133 -17.424 -22.699  0.00  0.00    +0.149 C 
ATOM     10  C   UNL     1      32.619 -13.720 -20.791  0.00  0.00    +0.003 C 
ATOM     11  C   UNL     1      35.138 -16.783 -23.934  0.00  0.00    +0.038 C 
BRANCH   6  14
ATOM     12  N   UNL     1      32.614 -10.726 -22.818  0.00  0.00    -0.343 N 
ATOM     13  N   UNL     1      30.758 -11.602 -21.698  0.00  0.00    -0.285 NA
ATOM     14  C   UNL     1      31.976 -11.787 -22.177  0.00  0.00    +0.117 C 
ATOM     15  H   UNL     1      32.155  -9.860 -22.909  0.00  0.00    +0.144 HD
ATOM     16  H   UNL     1      33.522 -10.843 -23.179  0.00  0.00    +0.144 HD
ATOM     17  H   UNL     1      30.318 -10.727 -21.799  0.00  0.00    +0.188 HD
ENDBRANCH   6  14
ENDBRANCH   1   9
BRANCH   1  19
ATOM     18  O   UNL     1      37.108 -18.247 -20.709  0.00  0.00    -0.244 OA
ATOM     19  C   UNL     1      36.229 -18.883 -21.272  0.00  0.00    +0.346 C 
BRANCH  19  20
ATOM     20  C   UNL     1      35.534 -20.037 -20.646  0.00  0.00    +0.076 C 
ATOM     21  C   UNL     1      36.277 -20.966 -19.949  0.00  0.00    +0.008 C 
ATOM     22  C   UNL     1      34.164 -20.141 -20.780  0.00  0.00    +0.008 C 
ATOM     23  C   UNL     1      34.240 -22.176 -19.479  0.00  0.00    +0.084 C 
ATOM     24  C   UNL     1      35.623 -22.048 -19.360  0.00  0.00    +0.019 C 
ATOM     25  C   UNL     1      33.510 -21.223 -20.190  0.00  0.00    +0.019 C 
BRANCH  23  26
ATOM     26  N   UNL     1      33.584 -23.261 -18.890  0.00  0.00    -0.214 NA
BRANCH  26  29
ATOM     27  N   UNL     1      31.866 -22.746 -17.393  0.00  0.00    -0.370 N 
ATOM     28  N   UNL     1      33.865 -23.387 -16.499  0.00  0.00    -0.370 N 
ATOM     29  C   UNL     1      33.155 -23.147 -17.655  0.00  0.00    +0.193 C 
ATOM     30  H   UNL     1      31.253 -22.543 -18.136  0.00  0.00    +0.159 HD
ATOM     31  H   UNL     1      31.555 -22.664 -16.462  0.00  0.00    +0.159 HD
ATOM     32  H   UNL     1      34.803 -23.680 -16.550  0.00  0.00    +0.159 HD
ATOM     33  H   UNL     1      33.434 -23.266 -15.621  0.00  0.00    +0.159 HD
ENDBRANCH  26  29
ENDBRANCH  23  26
ENDBRANCH  19  20
ENDBRANCH   1  19
TORSDOF 6
ENDMDL
MODEL 3
REMARK VINA RESULT:     -12.6      2.993      9.490
REMARK  Name = 4413
REMARK  6 active torsions:
REMARK  status: ('A' for Active; 'I' for Inactive)
REMARK    1  A    between atoms: O_1  and  C_9
REMARK    2  A    between atoms: O_1  and  C_19
REMARK    3  A    between atoms: C_6  and  C_14
REMARK    4  A    between atoms: C_19  and  C_20
REMARK    5  A    between atoms: C_23  and  N_26
REMARK    6  A    between atoms: N_26  and  C_29
REMARK                            x       y       z     vdW  Elec       q    Type
REMARK                         _______ _______ _______ _____ _____    ______ ____
ROOT
ATOM      1  O   UNL     1      35.601 -19.881 -21.886  0.00  0.00    -0.421 OA
ENDROOT
BRANCH   1   9
ATOM      2  C   UNL     1      34.528 -22.069 -18.503  0.00  0.00    +0.000 C 
ATOM      3  C   UNL     1      35.881 -21.704 -18.710  0.00  0.00    +0.003 C 
ATOM      4  C   UNL     1      34.184 -22.806 -17.358  0.00  0.00    +0.003 C 
ATOM      5  C   UNL     1      36.224 -20.968 -19.855  0.00  0.00    +0.038 C 
ATOM      6  C   UNL     1      35.158 -23.177 -16.431  0.00  0.00    +0.031 C 
ATOM      7  C   UNL     1      36.847 -22.086 -17.767  0.00  0.00    +0.000 C 
ATOM      8  C   UNL     1      33.561 -21.687 -19.447  0.00  0.00    +0.003 C 
ATOM      9  C   UNL     1      35.250 -20.596 -20.783  0.00  0.00    +0.149 C 
ATOM     10  C   UNL     1      36.487 -22.818 -16.635  0.00  0.00    +0.003 C 
ATOM     11  C   UNL     1      33.922 -20.955 -20.578  0.00  0.00    +0.038 C 
BRANCH   6  14
ATOM     12  N   UNL     1      35.286 -25.222 -15.027  0.00  0.00    -0.343 N 
ATOM     13  N   UNL     1      33.953 -23.419 -14.366  0.00  0.00    -0.285 NA
ATOM     14  C   UNL     1      34.785 -23.940 -15.250  0.00  0.00    +0.117 C 
ATOM     15  H   UNL     1      35.020 -25.720 -14.221  0.00  0.00    +0.144 HD
ATOM     16  H   UNL     1      35.905 -25.628 -15.676  0.00  0.00    +0.144 HD
ATOM     17  H   UNL     1      33.700 -23.934 -13.566  0.00  0.00    +0.188 HD
ENDBRANCH   6  14
ENDBRANCH   1   9
BRANCH   1  19
ATOM     18  O   UNL     1      35.933 -17.929 -20.658  0.00  0.00    -0.244 OA
ATOM     19  C   UNL     1      35.621 -18.499 -21.694  0.00  0.00    +0.346 C 
BRANCH  19  20
ATOM     20  C   UNL     1      35.221 -17.777 -22.928  0.00  0.00    +0.076 C 
ATOM     21  C   UNL     1      34.761 -18.503 -24.007  0.00  0.00    +0.008 C 
ATOM     22  C   UNL     1      35.320 -16.401 -22.957  0.00  0.00    +0.008 C 
ATOM     23  C   UNL     1      34.472 -16.434 -25.220  0.00  0.00    +0.084 C 
ATOM     24  C   UNL     1      34.383 -17.824 -25.165  0.00  0.00    +0.019 C 
ATOM     25  C   UNL     1      34.941 -15.721 -24.116  0.00  0.00    +0.019 C 
BRANCH  23  26
ATOM     26  N   UNL     1      34.095 -15.753 -26.381  0.00  0.00    -0.214 NA
BRANCH  26  29
ATOM     27  N   UNL     1      33.703 -13.592 -27.175  0.00  0.00    -0.370 N 
ATOM     28  N   UNL     1      32.575 -14.229 -25.296  0.00  0.00    -0.370 N 
ATOM     29  C   UNL     1      33.479 -14.600 -26.267  0.00  0.00    +0.193 C 
ATOM     30  H   UNL     1      34.330 -13.731 -27.921  0.00  0.00    +0.159 HD
ATOM     31  H   UNL     1      33.235 -12.730 -27.079  0.00  0.00    +0.159 HD
ATOM     32  H   UNL     1      32.328 -14.863 -24.586  0.00  0.00    +0.159 HD
ATOM     33  H   UNL     1      32.174 -13.329 -25.314  0.00  0.00    +0.159 HD
ENDBRANCH  26  29
ENDBRANCH  23  26
ENDBRANCH  19  20
ENDBRANCH   1  19
TORSDOF 6
ENDMDL
MODEL 4
REMARK VINA RESULT:     -12.6      2.990      9.453
REMARK  Name = 4413
REMARK  6 active torsions:
REMARK  status: ('A' for Active; 'I' for Inactive)
REMARK    1  A    between atoms: O_1  and  C_9
REMARK    2  A    between atoms: O_1  and  C_19
REMARK    3  A    between atoms: C_6  and  C_14
REMARK    4  A    between atoms: C_19  and  C_20
REMARK    5  A    between atoms: C_23  and  N_26
REMARK    6  A    between atoms: N_26  and  C_29
REMARK                            x       y       z     vdW  Elec       q    Type
REMARK                         _______ _______ _______ _____ _____    ______ ____
ROOT
ATOM      1  O   UNL     1      35.288 -19.935 -21.862  0.00  0.00    -0.421 OA
ENDROOT
BRANCH   1   9
ATOM      2  C   UNL     1      35.411 -22.101 -18.301  0.00  0.00    +0.000 C 
ATOM      3  C   UNL     1      34.177 -21.900 -18.965  0.00  0.00    +0.003 C 
ATOM      4  C   UNL     1      35.435 -22.833 -17.102  0.00  0.00    +0.003 C 
ATOM      5  C   UNL     1      34.154 -21.168 -20.163  0.00  0.00    +0.038 C 
ATOM      6  C   UNL     1      34.260 -23.360 -16.567  0.00  0.00    +0.031 C 
ATOM      7  C   UNL     1      33.004 -22.438 -18.412  0.00  0.00    +0.000 C 
ATOM      8  C   UNL     1      36.585 -21.563 -18.855  0.00  0.00    +0.003 C 
ATOM      9  C   UNL     1      35.329 -20.641 -20.699  0.00  0.00    +0.149 C 
ATOM     10  C   UNL     1      33.046 -23.163 -17.220  0.00  0.00    +0.003 C 
ATOM     11  C   UNL     1      36.542 -20.839 -20.046  0.00  0.00    +0.038 C 
BRANCH   6  14
ATOM     12  N   UNL     1      35.408 -24.891 -14.985  0.00  0.00    -0.343 N 
ATOM     13  N   UNL     1      33.273 -24.076 -14.496  0.00  0.00    -0.285 NA
ATOM     14  C   UNL     1      34.301 -24.116 -15.325  0.00  0.00    +0.117 C 
ATOM     15  H   UNL     1      35.415 -25.394 -14.138  0.00  0.00    +0.144 HD
ATOM     16  H   UNL     1      36.183 -24.936 -15.590  0.00  0.00    +0.144 HD
ATOM     17  H   UNL     1      33.299 -24.586 -13.654  0.00  0.00    +0.188 HD
ENDBRANCH   6  14
ENDBRANCH   1   9
BRANCH   1  19
ATOM     18  O   UNL     1      35.967 -18.025 -20.713  0.00  0.00    -0.244 OA
ATOM     19  C   UNL     1      35.517 -18.566 -21.713  0.00  0.00    +0.346 C 
BRANCH  19  20
ATOM     20  C   UNL     1      35.151 -17.822 -22.944  0.00  0.00    +0.076 C 
ATOM     21  C   UNL     1      35.307 -16.451 -22.967  0.00  0.00    +0.008 C 
ATOM     22  C   UNL     1      34.669 -18.525 -24.029  0.00  0.00    +0.008 C 
ATOM     23  C   UNL     1      34.476 -16.440 -25.235  0.00  0.00    +0.084 C 
ATOM     24  C   UNL     1      34.966 -15.753 -24.125  0.00  0.00    +0.019 C 
ATOM     25  C   UNL     1      34.327 -17.826 -25.188  0.00  0.00    +0.019 C 
BRANCH  23  26
ATOM     26  N   UNL     1      34.132 -15.740 -26.396  0.00  0.00    -0.214 NA
BRANCH  26  29
ATOM     27  N   UNL     1      33.747 -13.562 -27.148  0.00  0.00    -0.370 N 
ATOM     28  N   UNL     1      32.535 -14.269 -25.348  0.00  0.00    -0.370 N 
ATOM     29  C   UNL     1      33.493 -14.600 -26.282  0.00  0.00    +0.193 C 
ATOM     30  H   UNL     1      34.413 -13.671 -27.865  0.00  0.00    +0.159 HD
ATOM     31  H   UNL     1      33.260 -12.711 -27.053  0.00  0.00    +0.159 HD
ATOM     32  H   UNL     1      32.263 -14.927 -24.669  0.00  0.00    +0.159 HD
ATOM     33  H   UNL     1      32.121 -13.375 -25.362  0.00  0.00    +0.159 HD
ENDBRANCH  26  29
ENDBRANCH  23  26
ENDBRANCH  19  20
ENDBRANCH   1  19
TORSDOF 6
ENDMDL
MODEL 5
REMARK VINA RESULT:     -12.5      3.011      9.524
REMARK  Name = 4413
REMARK  6 active torsions:
REMARK  status: ('A' for Active; 'I' for Inactive)
REMARK    1  A    between atoms: O_1  and  C_9
REMARK    2  A    between atoms: O_1  and  C_19
REMARK    3  A    between atoms: C_6  and  C_14
REMARK    4  A    between atoms: C_19  and  C_20
REMARK    5  A    between atoms: C_23  and  N_26
REMARK    6  A    between atoms: N_26  and  C_29
REMARK                            x       y       z     vdW  Elec       q    Type
REMARK                         _______ _______ _______ _____ _____    ______ ____
ROOT
ATOM      1  O   UNL     1      35.439 -20.098 -21.806  0.00  0.00    -0.421 OA
ENDROOT
BRANCH   1   9
ATOM      2  C   UNL     1      34.744 -22.193 -18.269  0.00  0.00    +0.000 C 
ATOM      3  C   UNL     1      36.049 -21.737 -18.577  0.00  0.00    +0.003 C 
ATOM      4  C   UNL     1      34.527 -22.897 -17.074  0.00  0.00    +0.003 C 
ATOM      5  C   UNL     1      36.265 -21.033 -19.772  0.00  0.00    +0.038 C 
ATOM      6  C   UNL     1      35.580 -23.147 -16.194  0.00  0.00    +0.031 C 
ATOM      7  C   UNL     1      37.096 -21.997 -17.680  0.00  0.00    +0.000 C 
ATOM      8  C   UNL     1      33.696 -21.933 -19.167  0.00  0.00    +0.003 C 
ATOM      9  C   UNL     1      35.211 -20.782 -20.653  0.00  0.00    +0.149 C 
ATOM     10  C   UNL     1      36.863 -22.698 -16.496  0.00  0.00    +0.003 C 
ATOM     11  C   UNL     1      33.930 -21.232 -20.350  0.00  0.00    +0.038 C 
BRANCH   6  14
ATOM     12  N   UNL     1      35.538 -23.284 -13.714  0.00  0.00    -0.343 N 
ATOM     13  N   UNL     1      34.927 -25.132 -15.008  0.00  0.00    -0.285 NA
ATOM     14  C   UNL     1      35.340 -23.878 -14.960  0.00  0.00    +0.117 C 
ATOM     15  H   UNL     1      35.368 -23.798 -12.892  0.00  0.00    +0.144 HD
ATOM     16  H   UNL     1      35.848 -22.351 -13.658  0.00  0.00    +0.144 HD
ATOM     17  H   UNL     1      34.763 -25.629 -14.173  0.00  0.00    +0.188 HD
ENDBRANCH   6  14
ENDBRANCH   1   9
BRANCH   1  19
ATOM     18  O   UNL     1      35.968 -18.158 -20.629  0.00  0.00    -0.244 OA
ATOM     19  C   UNL     1      35.571 -18.718 -21.640  0.00  0.00    +0.346 C 
BRANCH  19  20
ATOM     20  C   UNL     1      35.174 -17.986 -22.870  0.00  0.00    +0.076 C 
ATOM     21  C   UNL     1      35.337 -16.617 -22.915  0.00  0.00    +0.008 C 
ATOM     22  C   UNL     1      34.655 -18.700 -23.931  0.00  0.00    +0.008 C 
ATOM     23  C   UNL     1      34.440 -16.629 -25.158  0.00  0.00    +0.084 C 
ATOM     24  C   UNL     1      34.966 -15.932 -24.071  0.00  0.00    +0.019 C 
ATOM     25  C   UNL     1      34.284 -18.014 -25.088  0.00  0.00    +0.019 C 
BRANCH  23  26
ATOM     26  N   UNL     1      34.066 -15.942 -26.316  0.00  0.00    -0.214 NA
BRANCH  26  29
ATOM     27  N   UNL     1      33.791 -13.763 -27.113  0.00  0.00    -0.370 N 
ATOM     28  N   UNL     1      32.648 -14.329 -25.221  0.00  0.00    -0.370 N 
ATOM     29  C   UNL     1      33.519 -14.755 -26.200  0.00  0.00    +0.193 C 
ATOM     30  H   UNL     1      34.400 -13.940 -27.865  0.00  0.00    +0.159 HD
ATOM     31  H   UNL     1      33.373 -12.876 -27.016  0.00  0.00    +0.159 HD
ATOM     32  H   UNL     1      32.373 -14.947 -24.505  0.00  0.00    +0.159 HD
ATOM     33  H   UNL     1      32.300 -13.408 -25.238  0.00  0.00    +0.159 HD
ENDBRANCH  26  29
ENDBRANCH  23  26
ENDBRANCH  19  20
ENDBRANCH   1  19
TORSDOF 6
ENDMDL
MODEL 6
REMARK VINA RESULT:     -12.4      1.077      1.904
REMARK  Name = 4413
REMARK  6 active torsions:
REMARK  status: ('A' for Active; 'I' for Inactive)
REMARK    1  A    between atoms: O_1  and  C_9
REMARK    2  A    between atoms: O_1  and  C_19
REMARK    3  A    between atoms: C_6  and  C_14
REMARK    4  A    between atoms: C_19  and  C_20
REMARK    5  A    between atoms: C_23  and  N_26
REMARK    6  A    between atoms: N_26  and  C_29
REMARK                            x       y       z     vdW  Elec       q    Type
REMARK                         _______ _______ _______ _____ _____    ______ ____
ROOT
ATOM      1  O   UNL     1      35.930 -17.969 -22.239  0.00  0.00    -0.421 OA
ENDROOT
BRANCH   1   9
ATOM      2  C   UNL     1      33.918 -14.356 -22.775  0.00  0.00    +0.000 C 
ATOM      3  C   UNL     1      33.765 -15.079 -21.567  0.00  0.00    +0.003 C 
ATOM      4  C   UNL     1      33.234 -13.141 -22.939  0.00  0.00    +0.003 C 
ATOM      5  C   UNL     1      34.449 -16.294 -21.404  0.00  0.00    +0.038 C 
ATOM      6  C   UNL     1      32.411 -12.645 -21.928  0.00  0.00    +0.031 C 
ATOM      7  C   UNL     1      32.933 -14.565 -20.560  0.00  0.00    +0.000 C 
ATOM      8  C   UNL     1      34.751 -14.870 -23.783  0.00  0.00    +0.003 C 
ATOM      9  C   UNL     1      35.273 -16.791 -22.415  0.00  0.00    +0.149 C 
ATOM     10  C   UNL     1      32.260 -13.356 -20.741  0.00  0.00    +0.003 C 
ATOM     11  C   UNL     1      35.423 -16.079 -23.602  0.00  0.00    +0.038 C 
BRANCH   6  14
ATOM     12  N   UNL     1      30.378 -11.233 -21.728  0.00  0.00    -0.343 N 
ATOM     13  N   UNL     1      32.334 -10.358 -22.661  0.00  0.00    -0.285 NA
ATOM     14  C   UNL     1      31.709 -11.385 -22.114  0.00  0.00    +0.117 C 
ATOM     15  H   UNL     1      29.923 -10.371 -21.863  0.00  0.00    +0.144 HD
ATOM     16  H   UNL     1      29.894 -11.987 -21.321  0.00  0.00    +0.144 HD
ATOM     17  H   UNL     1      31.860  -9.504 -22.788  0.00  0.00    +0.188 HD
ENDBRANCH   6  14
ENDBRANCH   1   9
BRANCH   1  19
ATOM     18  O   UNL     1      34.570 -19.347 -23.535  0.00  0.00    -0.244 OA
ATOM     19  C   UNL     1      35.156 -19.103 -22.490  0.00  0.00    +0.346 C 
BRANCH  19  20
ATOM     20  C   UNL     1      35.132 -20.011 -21.315  0.00  0.00    +0.076 C 
ATOM     21  C   UNL     1      33.914 -20.385 -20.786  0.00  0.00    +0.008 C 
ATOM     22  C   UNL     1      36.329 -20.453 -20.791  0.00  0.00    +0.008 C 
ATOM     23  C   UNL     1      35.088 -21.701 -19.135  0.00  0.00    +0.084 C 
ATOM     24  C   UNL     1      33.893 -21.239 -19.683  0.00  0.00    +0.019 C 
ATOM     25  C   UNL     1      36.308 -21.308 -19.688  0.00  0.00    +0.019 C 
BRANCH  23  26
ATOM     26  N   UNL     1      35.067 -22.556 -18.029  0.00  0.00    -0.214 NA
BRANCH  26  29
ATOM     27  N   UNL     1      33.392 -24.053 -18.669  0.00  0.00    -0.370 N 
ATOM     28  N   UNL     1      33.232 -23.146 -16.582  0.00  0.00    -0.370 N 
ATOM     29  C   UNL     1      33.961 -23.203 -17.750  0.00  0.00    +0.193 C 
ATOM     30  H   UNL     1      33.817 -24.183 -19.548  0.00  0.00    +0.159 HD
ATOM     31  H   UNL     1      32.561 -24.534 -18.448  0.00  0.00    +0.159 HD
ATOM     32  H   UNL     1      33.533 -22.572 -15.842  0.00  0.00    +0.159 HD
ATOM     33  H   UNL     1      32.411 -23.681 -16.487  0.00  0.00    +0.159 HD
ENDBRANCH  26  29
ENDBRANCH  23  26
ENDBRANCH  19  20
ENDBRANCH   1  19
TORSDOF 6
ENDMDL
MODEL 7
REMARK VINA RESULT:     -12.4      2.665      3.572
REMARK  Name = 4413
REMARK  6 active torsions:
REMARK  status: ('A' for Active; 'I' for Inactive)
REMARK    1  A    between atoms: O_1  and  C_9
REMARK    2  A    between atoms: O_1  and  C_19
REMARK    3  A    between atoms: C_6  and  C_14
REMARK    4  A    between atoms: C_19  and  C_20
REMARK    5  A    between atoms: C_23  and  N_26
REMARK    6  A    between atoms: N_26  and  C_29
REMARK                            x       y       z     vdW  Elec       q    Type
REMARK                         _______ _______ _______ _____ _____    ______ ____
ROOT
ATOM      1  O   UNL     1      35.686 -17.813 -20.903  0.00  0.00    -0.421 OA
ENDROOT
BRANCH   1   9
ATOM      2  C   UNL     1      34.564 -16.117 -24.542  0.00  0.00    +0.000 C 
ATOM      3  C   UNL     1      34.613 -15.318 -23.375  0.00  0.00    +0.003 C 
ATOM      4  C   UNL     1      34.184 -15.530 -25.760  0.00  0.00    +0.003 C 
ATOM      5  C   UNL     1      34.993 -15.906 -22.157  0.00  0.00    +0.038 C 
ATOM      6  C   UNL     1      33.858 -14.175 -25.826  0.00  0.00    +0.031 C 
ATOM      7  C   UNL     1      34.282 -13.957 -23.459  0.00  0.00    +0.000 C 
ATOM      8  C   UNL     1      34.895 -17.479 -24.457  0.00  0.00    +0.003 C 
ATOM      9  C   UNL     1      35.319 -17.261 -22.090  0.00  0.00    +0.149 C 
ATOM     10  C   UNL     1      33.907 -13.390 -24.678  0.00  0.00    +0.003 C 
ATOM     11  C   UNL     1      35.271 -18.045 -23.239  0.00  0.00    +0.038 C 
BRANCH   6  14
ATOM     12  N   UNL     1      32.201 -13.027 -27.276  0.00  0.00    -0.343 N 
ATOM     13  N   UNL     1      34.319 -13.567 -28.105  0.00  0.00    -0.285 NA
ATOM     14  C   UNL     1      33.467 -13.582 -27.095  0.00  0.00    +0.117 C 
ATOM     15  H   UNL     1      31.958 -12.631 -28.144  0.00  0.00    +0.144 HD
ATOM     16  H   UNL     1      31.551 -13.031 -26.537  0.00  0.00    +0.144 HD
ATOM     17  H   UNL     1      34.055 -13.166 -28.965  0.00  0.00    +0.188 HD
ENDBRANCH   6  14
ENDBRANCH   1   9
BRANCH   1  19
ATOM     18  O   UNL     1      37.533 -19.089 -21.529  0.00  0.00    -0.244 OA
ATOM     19  C   UNL     1      36.426 -18.992 -21.020  0.00  0.00    +0.346 C 
BRANCH  19  20
ATOM     20  C   UNL     1      35.700 -20.145 -20.429  0.00  0.00    +0.076 C 
ATOM     21  C   UNL     1      34.337 -20.243 -20.619  0.00  0.00    +0.008 C 
ATOM     22  C   UNL     1      36.412 -21.083 -19.711  0.00  0.00    +0.008 C 
ATOM     23  C   UNL     1      34.352 -22.290 -19.336  0.00  0.00    +0.084 C 
ATOM     24  C   UNL     1      33.656 -21.327 -20.065  0.00  0.00    +0.019 C 
ATOM     25  C   UNL     1      35.730 -22.168 -19.157  0.00  0.00    +0.019 C 
BRANCH  23  26
ATOM     26  N   UNL     1      33.670 -23.376 -18.780  0.00  0.00    -0.214 NA
BRANCH  26  29
ATOM     27  N   UNL     1      33.734 -23.506 -16.448  0.00  0.00    -0.370 N 
ATOM     28  N   UNL     1      31.785 -22.791 -17.395  0.00  0.00    -0.370 N 
ATOM     29  C   UNL     1      33.073 -23.223 -17.621  0.00  0.00    +0.193 C 
ATOM     30  H   UNL     1      34.665 -23.825 -16.472  0.00  0.00    +0.159 HD
ATOM     31  H   UNL     1      33.276 -23.388 -15.584  0.00  0.00    +0.159 HD
ATOM     32  H   UNL     1      31.205 -22.555 -18.154  0.00  0.00    +0.159 HD
ATOM     33  H   UNL     1      31.445 -22.715 -16.474  0.00  0.00    +0.159 HD
ENDBRANCH  26  29
ENDBRANCH  23  26
ENDBRANCH  19  20
ENDBRANCH   1  19
TORSDOF 6
ENDMDL
MODEL 8
REMARK VINA RESULT:     -12.3      3.397      5.542
REMARK  Name = 4413
REMARK  6 active torsions:
REMARK  status: ('A' for Active; 'I' for Inactive)
REMARK    1  A    between atoms: O_1  and  C_9
REMARK    2  A    between atoms: O_1  and  C_19
REMARK    3  A    between atoms: C_6  and  C_14
REMARK    4  A    between atoms: C_19  and  C_20
REMARK    5  A    between atoms: C_23  and  N_26
REMARK    6  A    between atoms: N_26  and  C_29
REMARK                            x       y       z     vdW  Elec       q    Type
REMARK                         _______ _______ _______ _____ _____    ______ ____
ROOT
ATOM      1  O   UNL     1      32.400 -13.625 -23.040  0.00  0.00    -0.421 OA
ENDROOT
BRANCH   1   9
ATOM      2  C   UNL     1      32.102  -9.991 -21.019  0.00  0.00    +0.000 C 
ATOM      3  C   UNL     1      32.380 -10.007 -22.407  0.00  0.00    +0.003 C 
ATOM      4  C   UNL     1      32.005  -8.758 -20.353  0.00  0.00    +0.003 C 
ATOM      5  C   UNL     1      32.477 -11.241 -23.072  0.00  0.00    +0.038 C 
ATOM      6  C   UNL     1      32.178  -7.559 -21.046  0.00  0.00    +0.031 C 
ATOM      7  C   UNL     1      32.550  -8.792 -23.088  0.00  0.00    +0.000 C 
ATOM      8  C   UNL     1      31.931 -11.207 -20.338  0.00  0.00    +0.003 C 
ATOM      9  C   UNL     1      32.304 -12.440 -22.380  0.00  0.00    +0.149 C 
ATOM     10  C   UNL     1      32.451  -7.576 -22.411  0.00  0.00    +0.003 C 
ATOM     11  C   UNL     1      32.032 -12.422 -21.016  0.00  0.00    +0.038 C 
BRANCH   6  14
ATOM     12  N   UNL     1      31.338  -5.229 -20.865  0.00  0.00    -0.343 N 
ATOM     13  N   UNL     1      32.689  -6.130 -19.184  0.00  0.00    -0.285 NA
ATOM     14  C   UNL     1      32.075  -6.291 -20.342  0.00  0.00    +0.117 C 
ATOM     15  H   UNL     1      31.281  -4.380 -20.371  0.00  0.00    +0.144 HD
ATOM     16  H   UNL     1      30.875  -5.329 -21.728  0.00  0.00    +0.144 HD
ATOM     17  H   UNL     1      32.620  -5.271 -18.705  0.00  0.00    +0.188 HD
ENDBRANCH   6  14
ENDBRANCH   1   9
BRANCH   1  19
ATOM     18  O   UNL     1      34.227 -13.148 -24.405  0.00  0.00    -0.244 OA
ATOM     19  C   UNL     1      33.654 -13.871 -23.604  0.00  0.00    +0.346 C 
BRANCH  19  20
ATOM     20  C   UNL     1      34.233 -15.140 -23.097  0.00  0.00    +0.076 C 
ATOM     21  C   UNL     1      34.402 -15.301 -21.737  0.00  0.00    +0.008 C 
ATOM     22  C   UNL     1      34.583 -16.121 -24.002  0.00  0.00    +0.008 C 
ATOM     23  C   UNL     1      35.305 -17.502 -22.155  0.00  0.00    +0.084 C 
ATOM     24  C   UNL     1      34.944 -16.495 -21.262  0.00  0.00    +0.019 C 
ATOM     25  C   UNL     1      35.125 -17.316 -23.526  0.00  0.00    +0.019 C 
BRANCH  23  26
ATOM     26  N   UNL     1      35.850 -18.698 -21.679  0.00  0.00    -0.214 NA
BRANCH  26  29
ATOM     27  N   UNL     1      37.544 -18.915 -20.085  0.00  0.00    -0.370 N 
ATOM     28  N   UNL     1      38.190 -18.619 -22.253  0.00  0.00    -0.370 N 
ATOM     29  C   UNL     1      37.128 -18.739 -21.384  0.00  0.00    +0.193 C 
ATOM     30  H   UNL     1      36.881 -19.015 -19.364  0.00  0.00    +0.159 HD
ATOM     31  H   UNL     1      38.506 -18.944 -19.875  0.00  0.00    +0.159 HD
ATOM     32  H   UNL     1      38.026 -18.488 -23.215  0.00  0.00    +0.159 HD
ATOM     33  H   UNL     1      39.113 -18.666 -21.913  0.00  0.00    +0.159 HD
ENDBRANCH  26  29
ENDBRANCH  23  26
ENDBRANCH  19  20
ENDBRANCH   1  19
TORSDOF 6
ENDMDL
MODEL 9
REMARK VINA RESULT:     -12.1      2.792      4.075
REMARK  Name = 4413
REMARK  6 active torsions:
REMARK  status: ('A' for Active; 'I' for Inactive)
REMARK    1  A    between atoms: O_1  and  C_9
REMARK    2  A    between atoms: O_1  and  C_19
REMARK    3  A    between atoms: C_6  and  C_14
REMARK    4  A    between atoms: C_19  and  C_20
REMARK    5  A    between atoms: C_23  and  N_26
REMARK    6  A    between atoms: N_26  and  C_29
REMARK                            x       y       z     vdW  Elec       q    Type
REMARK                         _______ _______ _______ _____ _____    ______ ____
ROOT
ATOM      1  O   UNL     1      36.001 -20.575 -20.730  0.00  0.00    -0.421 OA
ENDROOT
BRANCH   1   9
ATOM      2  C   UNL     1      34.975 -17.143 -22.865  0.00  0.00    +0.000 C 
ATOM      3  C   UNL     1      34.857 -18.417 -23.473  0.00  0.00    +0.003 C 
ATOM      4  C   UNL     1      34.625 -15.997 -23.597  0.00  0.00    +0.003 C 
ATOM      5  C   UNL     1      35.207 -19.562 -22.739  0.00  0.00    +0.038 C 
ATOM      6  C   UNL     1      34.165 -16.105 -24.910  0.00  0.00    +0.031 C 
ATOM      7  C   UNL     1      34.392 -18.506 -24.794  0.00  0.00    +0.000 C 
ATOM      8  C   UNL     1      35.441 -17.054 -21.542  0.00  0.00    +0.003 C 
ATOM      9  C   UNL     1      35.668 -19.455 -21.426  0.00  0.00    +0.149 C 
ATOM     10  C   UNL     1      34.049 -17.357 -25.508  0.00  0.00    +0.003 C 
ATOM     11  C   UNL     1      35.783 -18.203 -20.830  0.00  0.00    +0.038 C 
BRANCH   6  14
ATOM     12  N   UNL     1      33.527 -13.707 -25.007  0.00  0.00    -0.343 N 
ATOM     13  N   UNL     1      33.739 -14.951 -26.974  0.00  0.00    -0.285 NA
ATOM     14  C   UNL     1      33.807 -14.909 -25.655  0.00  0.00    +0.117 C 
ATOM     15  H   UNL     1      33.288 -12.909 -25.532  0.00  0.00    +0.144 HD
ATOM     16  H   UNL     1      33.570 -13.656 -24.025  0.00  0.00    +0.144 HD
ATOM     17  H   UNL     1      33.497 -14.142 -27.480  0.00  0.00    +0.188 HD
ENDBRANCH   6  14
ENDBRANCH   1   9
BRANCH   1  19
ATOM     18  O   UNL     1      33.778 -21.209 -20.445  0.00  0.00    -0.244 OA
ATOM     19  C   UNL     1      34.935 -21.172 -20.055  0.00  0.00    +0.346 C 
BRANCH  19  20
ATOM     20  C   UNL     1      35.381 -21.783 -18.777  0.00  0.00    +0.076 C 
ATOM     21  C   UNL     1      36.693 -21.621 -18.382  0.00  0.00    +0.008 C 
ATOM     22  C   UNL     1      34.469 -22.493 -18.023  0.00  0.00    +0.008 C 
ATOM     23  C   UNL     1      36.209 -22.915 -16.400  0.00  0.00    +0.084 C 
ATOM     24  C   UNL     1      37.111 -22.193 -17.181  0.00  0.00    +0.019 C 
ATOM     25  C   UNL     1      34.887 -23.065 -16.821  0.00  0.00    +0.019 C 
BRANCH  23  26
ATOM     26  N   UNL     1      36.627 -23.490 -15.197  0.00  0.00    -0.214 NA
BRANCH  26  29
ATOM     27  N   UNL     1      37.954 -25.393 -15.472  0.00  0.00    -0.370 N 
ATOM     28  N   UNL     1      35.815 -25.714 -14.744  0.00  0.00    -0.370 N 
ATOM     29  C   UNL     1      36.764 -24.793 -15.131  0.00  0.00    +0.193 C 
ATOM     30  H   UNL     1      38.716 -24.843 -15.767  0.00  0.00    +0.159 HD
ATOM     31  H   UNL     1      38.045 -26.372 -15.419  0.00  0.00    +0.159 HD
ATOM     32  H   UNL     1      34.918 -25.412 -14.475  0.00  0.00    +0.159 HD
ATOM     33  H   UNL     1      36.035 -26.674 -14.734  0.00  0.00    +0.159 HD
ENDBRANCH  26  29
ENDBRANCH  23  26
ENDBRANCH  19  20
ENDBRANCH   1  19
TORSDOF 6
ENDMDL
