MODEL 1
REMARK VINA RESULT:     -13.0      0.000      0.000
REMARK  Name = 5288607
REMARK  4 active torsions:
REMARK  status: ('A' for Active; 'I' for Inactive)
REMARK    1  A    between atoms: N_2  and  C_19
REMARK    2  A    between atoms: C_3  and  C_6
REMARK    3  A    between atoms: C_5  and  C_16
REMARK    4  A    between atoms: C_19  and  C_21
REMARK                            x       y       z     vdW  Elec       q    Type
REMARK                         _______ _______ _______ _____ _____    ______ ____
ROOT
ATOM      1  O   UNL     1      33.135 -16.242 -26.562  0.00  0.00    -0.270 OA
ATOM      2  N   UNL     1      33.894 -14.155 -25.877  0.00  0.00    -0.270 N 
ATOM      3  C   UNL     1      33.790 -15.545 -25.786  0.00  0.00    +0.249 C 
ATOM      4  C   UNL     1      33.194 -13.454 -26.946  0.00  0.00    +0.116 C 
ENDROOT
BRANCH   3   6
ATOM      5  C   UNL     1      34.345 -17.502 -24.385  0.00  0.00    +0.006 C 
ATOM      6  C   UNL     1      34.511 -16.183 -24.644  0.00  0.00    +0.058 C 
BRANCH   5  16
ATOM      7  O   UNL     1      36.835 -21.726 -18.444  0.00  0.00    -0.275 OA
ATOM      8  N   UNL     1      36.854 -20.222 -20.179  0.00  0.00    -0.270 N 
ATOM      9  N   UNL     1      36.952 -18.725 -22.008  0.00  0.00    -0.229 NA
ATOM     10  C   UNL     1      34.060 -20.601 -20.472  0.00  0.00    +0.039 C 
ATOM     11  C   UNL     1      34.843 -19.757 -21.433  0.00  0.00    +0.010 C 
ATOM     12  C   UNL     1      34.928 -21.710 -19.896  0.00  0.00    +0.090 C 
ATOM     13  C   UNL     1      36.209 -19.557 -21.240  0.00  0.00    +0.130 C 
ATOM     14  C   UNL     1      34.220 -19.069 -22.475  0.00  0.00    +0.000 C 
ATOM     15  C   UNL     1      36.272 -21.209 -19.409  0.00  0.00    +0.227 C 
ATOM     16  C   UNL     1      34.966 -18.227 -23.291  0.00  0.00    +0.019 C 
ATOM     17  C   UNL     1      36.315 -18.088 -23.016  0.00  0.00    +0.100 C 
ATOM     18  H   UNL     1      37.782 -19.966 -19.973  0.00  0.00    +0.156 HD
ENDBRANCH   5  16
ENDBRANCH   3   6
BRANCH   2  19
ATOM     19  C   UNL     1      34.637 -13.305 -24.949  0.00  0.00    +0.122 C 
BRANCH  19  21
ATOM     20  N   UNL     1      32.332 -11.647 -22.654  0.00  0.00    -0.284 N 
ATOM     21  C   UNL     1      33.737 -12.858 -23.848  0.00  0.00    +0.014 C 
ATOM     22  C   UNL     1      33.471 -13.564 -22.651  0.00  0.00    +0.013 C 
ATOM     23  C   UNL     1      32.581 -12.780 -21.914  0.00  0.00    +0.051 C 
ATOM     24  C   UNL     1      33.031 -11.687 -23.830  0.00  0.00    +0.063 C 
ATOM     25  C   UNL     1      33.895 -14.796 -22.114  0.00  0.00    +0.001 C 
ATOM     26  C   UNL     1      32.092 -13.168 -20.662  0.00  0.00    +0.015 C 
ATOM     27  C   UNL     1      31.458 -10.561 -22.259  0.00  0.00    +0.117 C 
ATOM     28  C   UNL     1      33.415 -15.197 -20.862  0.00  0.00    +0.000 C 
ATOM     29  C   UNL     1      32.527 -14.394 -20.149  0.00  0.00    +0.001 C 
ENDBRANCH  19  21
ENDBRANCH   2  19
TORSDOF 4
ENDMDL
MODEL 2
REMARK VINA RESULT:     -12.8      0.794      2.014
REMARK  Name = 5288607
REMARK  4 active torsions:
REMARK  status: ('A' for Active; 'I' for Inactive)
REMARK    1  A    between atoms: N_2  and  C_19
REMARK    2  A    between atoms: C_3  and  C_6
REMARK    3  A    between atoms: C_5  and  C_16
REMARK    4  A    between atoms: C_19  and  C_21
REMARK                            x       y       z     vdW  Elec       q    Type
REMARK                         _______ _______ _______ _____ _____    ______ ____
ROOT
ATOM      1  O   UNL     1      33.286 -16.567 -26.293  0.00  0.00    -0.270 OA
ATOM      2  N   UNL     1      33.862 -14.454 -25.515  0.00  0.00    -0.270 N 
ATOM      3  C   UNL     1      33.866 -15.851 -25.476  0.00  0.00    +0.249 C 
ATOM      4  C   UNL     1      33.134 -13.771 -26.576  0.00  0.00    +0.116 C 
ENDROOT
BRANCH   3   6
ATOM      5  C   UNL     1      34.414 -17.778 -24.031  0.00  0.00    +0.006 C 
ATOM      6  C   UNL     1      34.609 -16.473 -24.339  0.00  0.00    +0.058 C 
BRANCH   5  16
ATOM      7  O   UNL     1      37.018 -21.956 -18.107  0.00  0.00    -0.275 OA
ATOM      8  N   UNL     1      36.987 -20.424 -19.816  0.00  0.00    -0.270 N 
ATOM      9  N   UNL     1      37.036 -18.892 -21.618  0.00  0.00    -0.229 NA
ATOM     10  C   UNL     1      34.226 -20.956 -20.177  0.00  0.00    +0.039 C 
ATOM     11  C   UNL     1      34.979 -20.053 -21.106  0.00  0.00    +0.010 C 
ATOM     12  C   UNL     1      35.143 -22.024 -19.600  0.00  0.00    +0.090 C 
ATOM     13  C   UNL     1      36.327 -19.778 -20.880  0.00  0.00    +0.130 C 
ATOM     14  C   UNL     1      34.340 -19.383 -22.150  0.00  0.00    +0.000 C 
ATOM     15  C   UNL     1      36.446 -21.456 -19.076  0.00  0.00    +0.227 C 
ATOM     16  C   UNL     1      35.052 -18.485 -22.935  0.00  0.00    +0.019 C 
ATOM     17  C   UNL     1      36.385 -18.274 -22.629  0.00  0.00    +0.100 C 
ATOM     18  H   UNL     1      37.894 -20.119 -19.586  0.00  0.00    +0.156 HD
ENDBRANCH   5  16
ENDBRANCH   3   6
BRANCH   2  19
ATOM     19  C   UNL     1      34.514 -13.584 -24.538  0.00  0.00    +0.122 C 
BRANCH  19  21
ATOM     20  N   UNL     1      32.673 -14.060 -21.422  0.00  0.00    -0.284 N 
ATOM     21  C   UNL     1      33.684 -13.506 -23.303  0.00  0.00    +0.014 C 
ATOM     22  C   UNL     1      32.962 -12.375 -22.855  0.00  0.00    +0.013 C 
ATOM     23  C   UNL     1      32.332 -12.749 -21.666  0.00  0.00    +0.051 C 
ATOM     24  C   UNL     1      33.493 -14.527 -22.413  0.00  0.00    +0.063 C 
ATOM     25  C   UNL     1      32.777 -11.064 -23.336  0.00  0.00    +0.001 C 
ATOM     26  C   UNL     1      31.524 -11.874 -20.931  0.00  0.00    +0.015 C 
ATOM     27  C   UNL     1      32.234 -14.845 -20.287  0.00  0.00    +0.117 C 
ATOM     28  C   UNL     1      31.971 -10.178 -22.614  0.00  0.00    +0.000 C 
ATOM     29  C   UNL     1      31.355 -10.578 -21.430  0.00  0.00    +0.001 C 
ENDBRANCH  19  21
ENDBRANCH   2  19
TORSDOF 4
ENDMDL
MODEL 3
REMARK VINA RESULT:     -12.7      1.385      2.210
REMARK  Name = 5288607
REMARK  4 active torsions:
REMARK  status: ('A' for Active; 'I' for Inactive)
REMARK    1  A    between atoms: N_2  and  C_19
REMARK    2  A    between atoms: C_3  and  C_6
REMARK    3  A    between atoms: C_5  and  C_16
REMARK    4  A    between atoms: C_19  and  C_21
REMARK                            x       y       z     vdW  Elec       q    Type
REMARK                         _______ _______ _______ _____ _____    ______ ____
ROOT
ATOM      1  O   UNL     1      34.709 -16.167 -26.144  0.00  0.00    -0.270 OA
ATOM      2  N   UNL     1      33.468 -14.672 -24.869  0.00  0.00    -0.270 N 
ATOM      3  C   UNL     1      34.326 -15.760 -25.046  0.00  0.00    +0.249 C 
ATOM      4  C   UNL     1      32.977 -13.951 -26.037  0.00  0.00    +0.116 C 
ENDROOT
BRANCH   3   6
ATOM      5  C   UNL     1      35.032 -17.790 -23.829  0.00  0.00    +0.006 C 
ATOM      6  C   UNL     1      34.759 -16.464 -23.802  0.00  0.00    +0.058 C 
BRANCH   5  16
ATOM      7  O   UNL     1      36.311 -22.349 -17.753  0.00  0.00    -0.275 OA
ATOM      8  N   UNL     1      36.691 -20.801 -19.405  0.00  0.00    -0.270 N 
ATOM      9  N   UNL     1      37.162 -19.262 -21.139  0.00  0.00    -0.229 NA
ATOM     10  C   UNL     1      33.955 -20.974 -20.128  0.00  0.00    +0.039 C 
ATOM     11  C   UNL     1      34.928 -20.160 -20.926  0.00  0.00    +0.010 C 
ATOM     12  C   UNL     1      34.651 -22.157 -19.472  0.00  0.00    +0.090 C 
ATOM     13  C   UNL     1      36.260 -20.062 -20.524  0.00  0.00    +0.130 C 
ATOM     14  C   UNL     1      34.517 -19.399 -22.022  0.00  0.00    +0.000 C 
ATOM     15  C   UNL     1      35.936 -21.767 -18.771  0.00  0.00    +0.227 C 
ATOM     16  C   UNL     1      35.431 -18.588 -22.683  0.00  0.00    +0.019 C 
ATOM     17  C   UNL     1      36.729 -18.552 -22.204  0.00  0.00    +0.100 C 
ATOM     18  H   UNL     1      37.592 -20.617 -19.053  0.00  0.00    +0.156 HD
ENDBRANCH   5  16
ENDBRANCH   3   6
BRANCH   2  19
ATOM     19  C   UNL     1      32.974 -14.193 -23.580  0.00  0.00    +0.122 C 
BRANCH  19  21
ATOM     20  N   UNL     1      34.110 -10.727 -23.747  0.00  0.00    -0.284 N 
ATOM     21  C   UNL     1      33.231 -12.730 -23.456  0.00  0.00    +0.014 C 
ATOM     22  C   UNL     1      32.529 -11.828 -22.622  0.00  0.00    +0.013 C 
ATOM     23  C   UNL     1      33.102 -10.570 -22.823  0.00  0.00    +0.051 C 
ATOM     24  C   UNL     1      34.195 -12.037 -24.135  0.00  0.00    +0.063 C 
ATOM     25  C   UNL     1      31.460 -11.949 -21.713  0.00  0.00    +0.001 C 
ATOM     26  C   UNL     1      32.656  -9.423 -22.157  0.00  0.00    +0.015 C 
ATOM     27  C   UNL     1      34.965  -9.670 -24.244  0.00  0.00    +0.117 C 
ATOM     28  C   UNL     1      31.004 -10.810 -21.039  0.00  0.00    +0.000 C 
ATOM     29  C   UNL     1      31.594  -9.568 -21.259  0.00  0.00    +0.001 C 
ENDBRANCH  19  21
ENDBRANCH   2  19
TORSDOF 4
ENDMDL
MODEL 4
REMARK VINA RESULT:     -12.1      2.238      3.702
REMARK  Name = 5288607
REMARK  4 active torsions:
REMARK  status: ('A' for Active; 'I' for Inactive)
REMARK    1  A    between atoms: N_2  and  C_19
REMARK    2  A    between atoms: C_3  and  C_6
REMARK    3  A    between atoms: C_5  and  C_16
REMARK    4  A    between atoms: C_19  and  C_21
REMARK                            x       y       z     vdW  Elec       q    Type
REMARK                         _______ _______ _______ _____ _____    ______ ____
ROOT
ATOM      1  O   UNL     1      34.935 -19.834 -24.482  0.00  0.00    -0.270 OA
ATOM      2  N   UNL     1      35.056 -17.626 -23.766  0.00  0.00    -0.270 N 
ATOM      3  C   UNL     1      35.158 -19.009 -23.595  0.00  0.00    +0.249 C 
ATOM      4  C   UNL     1      34.663 -17.093 -25.065  0.00  0.00    +0.116 C 
ENDROOT
BRANCH   3   6
ATOM      5  C   UNL     1      34.934 -20.561 -21.687  0.00  0.00    +0.006 C 
ATOM      6  C   UNL     1      35.535 -19.474 -22.227  0.00  0.00    +0.058 C 
BRANCH   5  16
ATOM      7  O   UNL     1      35.472 -23.694 -14.671  0.00  0.00    -0.275 OA
ATOM      8  N   UNL     1      36.054 -22.536 -16.566  0.00  0.00    -0.270 N 
ATOM      9  N   UNL     1      36.736 -21.403 -18.528  0.00  0.00    -0.229 NA
ATOM     10  C   UNL     1      33.410 -22.880 -17.528  0.00  0.00    +0.039 C 
ATOM     11  C   UNL     1      34.477 -22.250 -18.372  0.00  0.00    +0.010 C 
ATOM     12  C   UNL     1      34.011 -23.889 -16.562  0.00  0.00    +0.090 C 
ATOM     13  C   UNL     1      35.758 -22.058 -17.857  0.00  0.00    +0.130 C 
ATOM     14  C   UNL     1      34.200 -21.747 -19.644  0.00  0.00    +0.000 C 
ATOM     15  C   UNL     1      35.219 -23.347 -15.825  0.00  0.00    +0.227 C 
ATOM     16  C   UNL     1      35.193 -21.091 -20.360  0.00  0.00    +0.019 C 
ATOM     17  C   UNL     1      36.432 -20.943 -19.762  0.00  0.00    +0.100 C 
ATOM     18  H   UNL     1      36.914 -22.273 -16.165  0.00  0.00    +0.156 HD
ENDBRANCH   5  16
ENDBRANCH   3   6
BRANCH   2  19
ATOM     19  C   UNL     1      35.282 -16.630 -22.721  0.00  0.00    +0.122 C 
BRANCH  19  21
ATOM     20  N   UNL     1      33.937 -13.590 -24.230  0.00  0.00    -0.284 N 
ATOM     21  C   UNL     1      34.601 -15.356 -23.085  0.00  0.00    +0.014 C 
ATOM     22  C   UNL     1      33.742 -14.602 -22.251  0.00  0.00    +0.013 C 
ATOM     23  C   UNL     1      33.336 -13.492 -22.995  0.00  0.00    +0.051 C 
ATOM     24  C   UNL     1      34.708 -14.720 -24.292  0.00  0.00    +0.063 C 
ATOM     25  C   UNL     1      33.264 -14.747 -20.934  0.00  0.00    +0.001 C 
ATOM     26  C   UNL     1      32.471 -12.517 -22.486  0.00  0.00    +0.015 C 
ATOM     27  C   UNL     1      33.786 -12.644 -25.315  0.00  0.00    +0.117 C 
ATOM     28  C   UNL     1      32.399 -13.779 -20.411  0.00  0.00    +0.000 C 
ATOM     29  C   UNL     1      32.010 -12.682 -21.176  0.00  0.00    +0.001 C 
ENDBRANCH  19  21
ENDBRANCH   2  19
TORSDOF 4
ENDMDL
MODEL 5
REMARK VINA RESULT:     -11.9      5.500     11.693
REMARK  Name = 5288607
REMARK  4 active torsions:
REMARK  status: ('A' for Active; 'I' for Inactive)
REMARK    1  A    between atoms: N_2  and  C_19
REMARK    2  A    between atoms: C_3  and  C_6
REMARK    3  A    between atoms: C_5  and  C_16
REMARK    4  A    between atoms: C_19  and  C_21
REMARK                            x       y       z     vdW  Elec       q    Type
REMARK                         _______ _______ _______ _____ _____    ______ ____
ROOT
ATOM      1  O   UNL     1      30.886 -24.539 -16.367  0.00  0.00    -0.270 OA
ATOM      2  N   UNL     1      32.321 -24.132 -14.585  0.00  0.00    -0.270 N 
ATOM      3  C   UNL     1      31.834 -23.924 -15.878  0.00  0.00    +0.249 C 
ATOM      4  C   UNL     1      31.689 -25.133 -13.736  0.00  0.00    +0.116 C 
ENDROOT
BRANCH   3   6
ATOM      5  C   UNL     1      33.532 -23.284 -17.554  0.00  0.00    +0.006 C 
ATOM      6  C   UNL     1      32.557 -22.903 -16.695  0.00  0.00    +0.058 C 
BRANCH   5  16
ATOM      7  O   UNL     1      36.960 -18.302 -22.325  0.00  0.00    -0.275 OA
ATOM      8  N   UNL     1      36.699 -19.869 -20.667  0.00  0.00    -0.270 N 
ATOM      9  N   UNL     1      36.476 -21.418 -18.893  0.00  0.00    -0.229 NA
ATOM     10  C   UNL     1      33.962 -20.085 -21.372  0.00  0.00    +0.039 C 
ATOM     11  C   UNL     1      34.527 -20.806 -20.185  0.00  0.00    +0.010 C 
ATOM     12  C   UNL     1      34.719 -18.791 -21.628  0.00  0.00    +0.090 C 
ATOM     13  C   UNL     1      35.885 -20.712 -19.886  0.00  0.00    +0.130 C 
ATOM     14  C   UNL     1      33.744 -21.667 -19.414  0.00  0.00    +0.000 C 
ATOM     15  C   UNL     1      36.222 -18.978 -21.608  0.00  0.00    +0.227 C 
ATOM     16  C   UNL     1      34.323 -22.385 -18.376  0.00  0.00    +0.019 C 
ATOM     17  C   UNL     1      35.682 -22.230 -18.161  0.00  0.00    +0.100 C 
ATOM     18  H   UNL     1      37.673 -19.918 -20.532  0.00  0.00    +0.156 HD
ENDBRANCH   5  16
ENDBRANCH   3   6
BRANCH   2  19
ATOM     19  C   UNL     1      33.465 -23.439 -13.996  0.00  0.00    +0.122 C 
BRANCH  19  21
ATOM     20  N   UNL     1      36.113 -25.805 -14.842  0.00  0.00    -0.284 N 
ATOM     21  C   UNL     1      34.683 -24.287 -14.120  0.00  0.00    +0.014 C 
ATOM     22  C   UNL     1      35.826 -24.232 -13.287  0.00  0.00    +0.013 C 
ATOM     23  C   UNL     1      36.714 -25.199 -13.762  0.00  0.00    +0.051 C 
ATOM     24  C   UNL     1      34.879 -25.257 -15.065  0.00  0.00    +0.063 C 
ATOM     25  C   UNL     1      36.201 -23.457 -12.172  0.00  0.00    +0.001 C 
ATOM     26  C   UNL     1      37.964 -25.429 -13.177  0.00  0.00    +0.015 C 
ATOM     27  C   UNL     1      36.691 -26.868 -15.637  0.00  0.00    +0.117 C 
ATOM     28  C   UNL     1      37.447 -23.676 -11.575  0.00  0.00    +0.000 C 
ATOM     29  C   UNL     1      38.314 -24.647 -12.071  0.00  0.00    +0.001 C 
ENDBRANCH  19  21
ENDBRANCH   2  19
TORSDOF 4
ENDMDL
MODEL 6
REMARK VINA RESULT:     -11.9      4.178      7.575
REMARK  Name = 5288607
REMARK  4 active torsions:
REMARK  status: ('A' for Active; 'I' for Inactive)
REMARK    1  A    between atoms: N_2  and  C_19
REMARK    2  A    between atoms: C_3  and  C_6
REMARK    3  A    between atoms: C_5  and  C_16
REMARK    4  A    between atoms: C_19  and  C_21
REMARK                            x       y       z     vdW  Elec       q    Type
REMARK                         _______ _______ _______ _____ _____    ______ ____
ROOT
ATOM      1  O   UNL     1      30.690  -9.927 -19.607  0.00  0.00    -0.270 OA
ATOM      2  N   UNL     1      32.246  -8.338 -20.282  0.00  0.00    -0.270 N 
ATOM      3  C   UNL     1      31.659  -9.606 -20.296  0.00  0.00    +0.249 C 
ATOM      4  C   UNL     1      31.702  -7.308 -19.406  0.00  0.00    +0.116 C 
ENDROOT
BRANCH   3   6
ATOM      5  C   UNL     1      32.062 -11.935 -21.013  0.00  0.00    +0.006 C 
ATOM      6  C   UNL     1      32.295 -10.614 -21.197  0.00  0.00    +0.058 C 
BRANCH   5  16
ATOM      7  O   UNL     1      34.859 -17.177 -25.915  0.00  0.00    -0.275 OA
ATOM      8  N   UNL     1      34.336 -16.139 -23.935  0.00  0.00    -0.270 N 
ATOM      9  N   UNL     1      33.897 -15.071 -21.870  0.00  0.00    -0.229 NA
ATOM     10  C   UNL     1      32.880 -14.195 -25.397  0.00  0.00    +0.039 C 
ATOM     11  C   UNL     1      33.083 -14.075 -23.916  0.00  0.00    +0.010 C 
ATOM     12  C   UNL     1      34.047 -14.926 -26.044  0.00  0.00    +0.090 C 
ATOM     13  C   UNL     1      33.770 -15.067 -23.218  0.00  0.00    +0.130 C 
ATOM     14  C   UNL     1      32.509 -13.036 -23.183  0.00  0.00    +0.000 C 
ATOM     15  C   UNL     1      34.421 -16.198 -25.312  0.00  0.00    +0.227 C 
ATOM     16  C   UNL     1      32.645 -13.007 -21.801  0.00  0.00    +0.019 C 
ATOM     17  C   UNL     1      33.339 -14.041 -21.197  0.00  0.00    +0.100 C 
ATOM     18  H   UNL     1      34.696 -16.897 -23.419  0.00  0.00    +0.156 HD
ENDBRANCH   5  16
ENDBRANCH   3   6
BRANCH   2  19
ATOM     19  C   UNL     1      33.416  -7.945 -21.064  0.00  0.00    +0.122 C 
BRANCH  19  21
ATOM     20  N   UNL     1      31.873  -5.440 -23.227  0.00  0.00    -0.284 N 
ATOM     21  C   UNL     1      33.011  -6.971 -22.117  0.00  0.00    +0.014 C 
ATOM     22  C   UNL     1      33.714  -6.696 -23.313  0.00  0.00    +0.013 C 
ATOM     23  C   UNL     1      32.977  -5.727 -23.997  0.00  0.00    +0.051 C 
ATOM     24  C   UNL     1      31.886  -6.193 -22.083  0.00  0.00    +0.063 C 
ATOM     25  C   UNL     1      34.909  -7.171 -23.890  0.00  0.00    +0.001 C 
ATOM     26  C   UNL     1      33.376  -5.207 -25.233  0.00  0.00    +0.015 C 
ATOM     27  C   UNL     1      30.839  -4.484 -23.563  0.00  0.00    +0.117 C 
ATOM     28  C   UNL     1      35.320  -6.662 -25.126  0.00  0.00    +0.000 C 
ATOM     29  C   UNL     1      34.565  -5.695 -25.786  0.00  0.00    +0.001 C 
ENDBRANCH  19  21
ENDBRANCH   2  19
TORSDOF 4
ENDMDL
MODEL 7
REMARK VINA RESULT:     -11.8      4.169     10.000
REMARK  Name = 5288607
REMARK  4 active torsions:
REMARK  status: ('A' for Active; 'I' for Inactive)
REMARK    1  A    between atoms: N_2  and  C_19
REMARK    2  A    between atoms: C_3  and  C_6
REMARK    3  A    between atoms: C_5  and  C_16
REMARK    4  A    between atoms: C_19  and  C_21
REMARK                            x       y       z     vdW  Elec       q    Type
REMARK                         _______ _______ _______ _____ _____    ______ ____
ROOT
ATOM      1  O   UNL     1      31.218 -12.338 -20.852  0.00  0.00    -0.270 OA
ATOM      2  N   UNL     1      33.137 -13.430 -21.579  0.00  0.00    -0.270 N 
ATOM      3  C   UNL     1      32.237 -12.362 -21.544  0.00  0.00    +0.249 C 
ATOM      4  C   UNL     1      32.883 -14.605 -20.757  0.00  0.00    +0.116 C 
ENDROOT
BRANCH   3   6
ATOM      5  C   UNL     1      32.045  -9.981 -22.174  0.00  0.00    +0.006 C 
ATOM      6  C   UNL     1      32.552 -11.208 -22.440  0.00  0.00    +0.058 C 
BRANCH   5  16
ATOM      7  O   UNL     1      34.029  -3.876 -26.432  0.00  0.00    -0.275 OA
ATOM      8  N   UNL     1      32.717  -5.370 -25.284  0.00  0.00    -0.270 N 
ATOM      9  N   UNL     1      31.310  -6.923 -24.185  0.00  0.00    -0.229 NA
ATOM     10  C   UNL     1      35.070  -6.678 -24.396  0.00  0.00    +0.039 C 
ATOM     11  C   UNL     1      33.707  -7.225 -24.097  0.00  0.00    +0.010 C 
ATOM     12  C   UNL     1      35.068  -5.913 -25.711  0.00  0.00    +0.090 C 
ATOM     13  C   UNL     1      32.567  -6.539 -24.512  0.00  0.00    +0.130 C 
ATOM     14  C   UNL     1      33.535  -8.367 -23.313  0.00  0.00    +0.000 C 
ATOM     15  C   UNL     1      33.914  -4.938 -25.820  0.00  0.00    +0.227 C 
ATOM     16  C   UNL     1      32.255  -8.794 -22.983  0.00  0.00    +0.019 C 
ATOM     17  C   UNL     1      31.185  -8.041 -23.437  0.00  0.00    +0.100 C 
ATOM     18  H   UNL     1      31.915  -4.824 -25.451  0.00  0.00    +0.156 HD
ENDBRANCH   5  16
ENDBRANCH   3   6
BRANCH   2  19
ATOM     19  C   UNL     1      34.332 -13.494 -22.417  0.00  0.00    +0.122 C 
BRANCH  19  21
ATOM     20  N   UNL     1      33.448 -15.339 -25.440  0.00  0.00    -0.284 N 
ATOM     21  C   UNL     1      34.114 -14.462 -23.528  0.00  0.00    +0.014 C 
ATOM     22  C   UNL     1      34.578 -15.798 -23.573  0.00  0.00    +0.013 C 
ATOM     23  C   UNL     1      34.145 -16.331 -24.789  0.00  0.00    +0.051 C 
ATOM     24  C   UNL     1      33.424 -14.201 -24.680  0.00  0.00    +0.063 C 
ATOM     25  C   UNL     1      35.326 -16.616 -22.703  0.00  0.00    +0.001 C 
ATOM     26  C   UNL     1      34.425 -17.646 -25.180  0.00  0.00    +0.015 C 
ATOM     27  C   UNL     1      32.824 -15.466 -26.741  0.00  0.00    +0.117 C 
ATOM     28  C   UNL     1      35.613 -17.932 -23.079  0.00  0.00    +0.000 C 
ATOM     29  C   UNL     1      35.168 -18.437 -24.299  0.00  0.00    +0.001 C 
ENDBRANCH  19  21
ENDBRANCH   2  19
TORSDOF 4
ENDMDL
MODEL 8
REMARK VINA RESULT:     -11.7      2.336      8.166
REMARK  Name = 5288607
REMARK  4 active torsions:
REMARK  status: ('A' for Active; 'I' for Inactive)
REMARK    1  A    between atoms: N_2  and  C_19
REMARK    2  A    between atoms: C_3  and  C_6
REMARK    3  A    between atoms: C_5  and  C_16
REMARK    4  A    between atoms: C_19  and  C_21
REMARK                            x       y       z     vdW  Elec       q    Type
REMARK                         _______ _______ _______ _____ _____    ______ ____
ROOT
ATOM      1  O   UNL     1      34.668 -17.426 -25.789  0.00  0.00    -0.270 OA
ATOM      2  N   UNL     1      35.333 -17.991 -23.635  0.00  0.00    -0.270 N 
ATOM      3  C   UNL     1      34.916 -17.100 -24.628  0.00  0.00    +0.249 C 
ATOM      4  C   UNL     1      35.495 -19.402 -23.963  0.00  0.00    +0.116 C 
ENDROOT
BRANCH   3   6
ATOM      5  C   UNL     1      33.588 -15.107 -24.027  0.00  0.00    +0.006 C 
ATOM      6  C   UNL     1      34.805 -15.668 -24.220  0.00  0.00    +0.058 C 
BRANCH   5  16
ATOM      7  O   UNL     1      31.823  -8.078 -21.416  0.00  0.00    -0.275 OA
ATOM      8  N   UNL     1      32.742  -9.723 -22.728  0.00  0.00    -0.270 N 
ATOM      9  N   UNL     1      33.781 -11.379 -24.061  0.00  0.00    -0.229 NA
ATOM     10  C   UNL     1      31.292 -11.650 -21.238  0.00  0.00    +0.039 C 
ATOM     11  C   UNL     1      32.284 -12.053 -22.287  0.00  0.00    +0.010 C 
ATOM     12  C   UNL     1      31.688 -10.328 -20.600  0.00  0.00    +0.090 C 
ATOM     13  C   UNL     1      32.953 -11.082 -23.031  0.00  0.00    +0.130 C 
ATOM     14  C   UNL     1      32.489 -13.392 -22.622  0.00  0.00    +0.000 C 
ATOM     15  C   UNL     1      32.052  -9.270 -21.621  0.00  0.00    +0.227 C 
ATOM     16  C   UNL     1      33.351 -13.722 -23.660  0.00  0.00    +0.019 C 
ATOM     17  C   UNL     1      33.964 -12.687 -24.345  0.00  0.00    +0.100 C 
ATOM     18  H   UNL     1      33.111  -9.052 -23.346  0.00  0.00    +0.156 HD
ENDBRANCH   5  16
ENDBRANCH   3   6
BRANCH   2  19
ATOM     19  C   UNL     1      35.666 -17.622 -22.261  0.00  0.00    +0.122 C 
BRANCH  19  21
ATOM     20  N   UNL     1      36.564 -20.513 -20.221  0.00  0.00    -0.284 N 
ATOM     21  C   UNL     1      35.750 -18.848 -21.419  0.00  0.00    +0.014 C 
ATOM     22  C   UNL     1      34.659 -19.633 -20.977  0.00  0.00    +0.013 C 
ATOM     23  C   UNL     1      35.198 -20.677 -20.223  0.00  0.00    +0.051 C 
ATOM     24  C   UNL     1      36.908 -19.404 -20.946  0.00  0.00    +0.063 C 
ATOM     25  C   UNL     1      33.261 -19.564 -21.139  0.00  0.00    +0.001 C 
ATOM     26  C   UNL     1      34.405 -21.660 -19.619  0.00  0.00    +0.015 C 
ATOM     27  C   UNL     1      37.514 -21.379 -19.553  0.00  0.00    +0.117 C 
ATOM     28  C   UNL     1      32.456 -20.540 -20.542  0.00  0.00    +0.000 C 
ATOM     29  C   UNL     1      33.020 -21.571 -19.795  0.00  0.00    +0.001 C 
ENDBRANCH  19  21
ENDBRANCH   2  19
TORSDOF 4
ENDMDL
MODEL 9
REMARK VINA RESULT:     -11.5      3.554      9.338
REMARK  Name = 5288607
REMARK  4 active torsions:
REMARK  status: ('A' for Active; 'I' for Inactive)
REMARK    1  A    between atoms: N_2  and  C_19
REMARK    2  A    between atoms: C_3  and  C_6
REMARK    3  A    between atoms: C_5  and  C_16
REMARK    4  A    between atoms: C_19  and  C_21
REMARK                            x       y       z     vdW  Elec       q    Type
REMARK                         _______ _______ _______ _____ _____    ______ ____
ROOT
ATOM      1  O   UNL     1      31.974 -15.086 -19.682  0.00  0.00    -0.270 OA
ATOM      2  N   UNL     1      33.982 -15.034 -20.851  0.00  0.00    -0.270 N 
ATOM      3  C   UNL     1      32.732 -14.532 -20.478  0.00  0.00    +0.249 C 
ATOM      4  C   UNL     1      34.445 -16.293 -20.281  0.00  0.00    +0.116 C 
ENDROOT
BRANCH   3   6
ATOM      5  C   UNL     1      32.568 -12.068 -20.526  0.00  0.00    +0.006 C 
ATOM      6  C   UNL     1      32.318 -13.254 -21.130  0.00  0.00    +0.058 C 
BRANCH   5  16
ATOM      7  O   UNL     1      30.820  -4.827 -22.490  0.00  0.00    -0.275 OA
ATOM      8  N   UNL     1      31.048  -7.107 -22.640  0.00  0.00    -0.270 N 
ATOM      9  N   UNL     1      31.339  -9.443 -22.879  0.00  0.00    -0.229 NA
ATOM     10  C   UNL     1      31.886  -7.151 -19.932  0.00  0.00    +0.039 C 
ATOM     11  C   UNL     1      31.903  -8.387 -20.779  0.00  0.00    +0.010 C 
ATOM     12  C   UNL     1      32.109  -5.910 -20.783  0.00  0.00    +0.090 C 
ATOM     13  C   UNL     1      31.447  -8.343 -22.096  0.00  0.00    +0.130 C 
ATOM     14  C   UNL     1      32.270  -9.627 -20.253  0.00  0.00    +0.000 C 
ATOM     15  C   UNL     1      31.240  -5.886 -22.024  0.00  0.00    +0.227 C 
ATOM     16  C   UNL     1      32.188 -10.766 -21.045  0.00  0.00    +0.019 C 
ATOM     17  C   UNL     1      31.717 -10.622 -22.339  0.00  0.00    +0.100 C 
ATOM     18  H   UNL     1      30.603  -7.114 -23.518  0.00  0.00    +0.156 HD
ENDBRANCH   5  16
ENDBRANCH   3   6
BRANCH   2  19
ATOM     19  C   UNL     1      34.883 -14.412 -21.818  0.00  0.00    +0.122 C 
BRANCH  19  21
ATOM     20  N   UNL     1      34.512 -16.419 -24.845  0.00  0.00    -0.284 N 
ATOM     21  C   UNL     1      34.642 -14.987 -23.171  0.00  0.00    +0.014 C 
ATOM     22  C   UNL     1      34.169 -14.282 -24.303  0.00  0.00    +0.013 C 
ATOM     23  C   UNL     1      34.095 -15.207 -25.347  0.00  0.00    +0.051 C 
ATOM     24  C   UNL     1      34.847 -16.293 -23.523  0.00  0.00    +0.063 C 
ATOM     25  C   UNL     1      33.792 -12.948 -24.552  0.00  0.00    +0.001 C 
ATOM     26  C   UNL     1      33.660 -14.863 -26.632  0.00  0.00    +0.015 C 
ATOM     27  C   UNL     1      34.590 -17.656 -25.593  0.00  0.00    +0.117 C 
ATOM     28  C   UNL     1      33.357 -12.588 -25.832  0.00  0.00    +0.000 C 
ATOM     29  C   UNL     1      33.293 -13.532 -26.855  0.00  0.00    +0.001 C 
ENDBRANCH  19  21
ENDBRANCH   2  19
TORSDOF 4
ENDMDL
