MODEL 1
REMARK VINA RESULT:     -14.4      0.000      0.000
REMARK  Name = 10407120
REMARK  4 active torsions:
REMARK  status: ('A' for Active; 'I' for Inactive)
REMARK    1  A    between atoms: N_2  and  C_19
REMARK    2  A    between atoms: C_3  and  C_6
REMARK    3  A    between atoms: C_5  and  C_16
REMARK    4  A    between atoms: C_19  and  C_21
REMARK                            x       y       z     vdW  Elec       q    Type
REMARK                         _______ _______ _______ _____ _____    ______ ____
ROOT
ATOM      1  O   UNL     1      33.875 -16.448 -26.183  0.00  0.00    -0.270 OA
ATOM      2  N   UNL     1      34.788 -17.221 -24.190  0.00  0.00    -0.267 N 
ATOM      3  C   UNL     1      34.280 -16.234 -25.039  0.00  0.00    +0.250 C 
ATOM      4  C   UNL     1      34.856 -18.599 -24.657  0.00  0.00    +0.116 C 
ENDROOT
BRANCH   3   6
ATOM      5  C   UNL     1      33.134 -14.316 -23.985  0.00  0.00    +0.006 C 
ATOM      6  C   UNL     1      34.271 -14.842 -24.499  0.00  0.00    +0.058 C 
BRANCH   5  16
ATOM      7  O   UNL     1      31.852  -7.529 -20.575  0.00  0.00    -0.275 OA
ATOM      8  N   UNL     1      32.665  -9.074 -22.068  0.00  0.00    -0.270 N 
ATOM      9  N   UNL     1      33.597 -10.634 -23.582  0.00  0.00    -0.229 NA
ATOM     10  C   UNL     1      31.062 -11.049 -20.818  0.00  0.00    +0.039 C 
ATOM     11  C   UNL     1      32.034 -11.399 -21.904  0.00  0.00    +0.010 C 
ATOM     12  C   UNL     1      31.545  -9.843 -20.029  0.00  0.00    +0.090 C 
ATOM     13  C   UNL     1      32.781 -10.400 -22.528  0.00  0.00    +0.130 C 
ATOM     14  C   UNL     1      32.145 -12.701 -22.392  0.00  0.00    +0.000 C 
ATOM     15  C   UNL     1      31.997  -8.702 -20.918  0.00  0.00    +0.227 C 
ATOM     16  C   UNL     1      32.993 -12.970 -23.460  0.00  0.00    +0.019 C 
ATOM     17  C   UNL     1      33.688 -11.911 -24.016  0.00  0.00    +0.100 C 
ATOM     18  H   UNL     1      33.089  -8.364 -22.602  0.00  0.00    +0.156 HD
ENDBRANCH   5  16
ENDBRANCH   3   6
BRANCH   2  19
ATOM     19  C   UNL     1      35.305 -16.985 -22.843  0.00  0.00    +0.158 C 
BRANCH  19  21
ATOM     20  O   UNL     1      34.075 -18.694 -21.691  0.00  0.00    -0.456 OA
ATOM     21  C   UNL     1      35.299 -18.235 -22.013  0.00  0.00    +0.139 A 
ATOM     22  C   UNL     1      36.295 -19.006 -21.515  0.00  0.00    +0.013 A 
ATOM     23  C   UNL     1      35.648 -20.055 -20.811  0.00  0.00    +0.033 A 
ATOM     24  C   UNL     1      34.284 -19.817 -20.949  0.00  0.00    +0.145 A 
ATOM     25  C   UNL     1      37.750 -18.807 -21.668  0.00  0.00    +0.034 C 
ATOM     26  C   UNL     1      36.062 -21.177 -20.073  0.00  0.00    +0.003 C 
ATOM     27  C   UNL     1      33.290 -20.624 -20.400  0.00  0.00    +0.037 C 
ATOM     28  C   UNL     1      35.086 -22.008 -19.507  0.00  0.00    +0.000 C 
ATOM     29  C   UNL     1      33.725 -21.734 -19.669  0.00  0.00    +0.003 C 
ENDBRANCH  19  21
ENDBRANCH   2  19
TORSDOF 4
ENDMDL
MODEL 2
REMARK VINA RESULT:     -13.9      2.377      9.096
REMARK  Name = 10407120
REMARK  4 active torsions:
REMARK  status: ('A' for Active; 'I' for Inactive)
REMARK    1  A    between atoms: N_2  and  C_19
REMARK    2  A    between atoms: C_3  and  C_6
REMARK    3  A    between atoms: C_5  and  C_16
REMARK    4  A    between atoms: C_19  and  C_21
REMARK                            x       y       z     vdW  Elec       q    Type
REMARK                         _______ _______ _______ _____ _____    ______ ____
ROOT
ATOM      1  O   UNL     1      33.333 -16.875 -25.878  0.00  0.00    -0.270 OA
ATOM      2  N   UNL     1      34.059 -14.776 -25.191  0.00  0.00    -0.267 N 
ATOM      3  C   UNL     1      33.940 -16.164 -25.075  0.00  0.00    +0.250 C 
ATOM      4  C   UNL     1      33.437 -14.098 -26.321  0.00  0.00    +0.116 C 
ENDROOT
BRANCH   3   6
ATOM      5  C   UNL     1      34.573 -18.125 -23.714  0.00  0.00    +0.006 C 
ATOM      6  C   UNL     1      34.579 -16.780 -23.875  0.00  0.00    +0.058 C 
BRANCH   5  16
ATOM      7  O   UNL     1      36.743 -22.312 -17.623  0.00  0.00    -0.275 OA
ATOM      8  N   UNL     1      36.845 -20.795 -19.345  0.00  0.00    -0.270 N 
ATOM      9  N   UNL     1      37.031 -19.283 -21.154  0.00  0.00    -0.229 NA
ATOM     10  C   UNL     1      34.095 -21.260 -19.849  0.00  0.00    +0.039 C 
ATOM     11  C   UNL     1      34.919 -20.385 -20.743  0.00  0.00    +0.010 C 
ATOM     12  C   UNL     1      34.951 -22.345 -19.215  0.00  0.00    +0.090 C 
ATOM     13  C   UNL     1      36.260 -20.143 -20.448  0.00  0.00    +0.130 C 
ATOM     14  C   UNL     1      34.355 -19.709 -21.826  0.00  0.00    +0.000 C 
ATOM     15  C   UNL     1      36.238 -21.806 -18.625  0.00  0.00    +0.227 C 
ATOM     16  C   UNL     1      35.132 -18.837 -22.579  0.00  0.00    +0.019 C 
ATOM     17  C   UNL     1      36.451 -18.659 -22.203  0.00  0.00    +0.100 C 
ATOM     18  H   UNL     1      37.746 -20.512 -19.069  0.00  0.00    +0.156 HD
ENDBRANCH   5  16
ENDBRANCH   3   6
BRANCH   2  19
ATOM     19  C   UNL     1      34.745 -13.909 -24.235  0.00  0.00    +0.158 C 
BRANCH  19  21
ATOM     20  O   UNL     1      33.767 -11.733 -23.970  0.00  0.00    -0.456 OA
ATOM     21  C   UNL     1      33.790 -13.000 -23.517  0.00  0.00    +0.139 A 
ATOM     22  C   UNL     1      32.934 -13.206 -22.487  0.00  0.00    +0.013 A 
ATOM     23  C   UNL     1      32.305 -11.953 -22.262  0.00  0.00    +0.033 A 
ATOM     24  C   UNL     1      32.852 -11.082 -23.198  0.00  0.00    +0.145 A 
ATOM     25  C   UNL     1      32.698 -14.463 -21.750  0.00  0.00    +0.034 C 
ATOM     26  C   UNL     1      31.336 -11.461 -21.371  0.00  0.00    +0.003 C 
ATOM     27  C   UNL     1      32.500  -9.739 -23.315  0.00  0.00    +0.037 C 
ATOM     28  C   UNL     1      30.961 -10.113 -21.464  0.00  0.00    +0.000 C 
ATOM     29  C   UNL     1      31.535  -9.270 -22.419  0.00  0.00    +0.003 C 
ENDBRANCH  19  21
ENDBRANCH   2  19
TORSDOF 4
ENDMDL
MODEL 3
REMARK VINA RESULT:     -13.6      2.742      9.297
REMARK  Name = 10407120
REMARK  4 active torsions:
REMARK  status: ('A' for Active; 'I' for Inactive)
REMARK    1  A    between atoms: N_2  and  C_19
REMARK    2  A    between atoms: C_3  and  C_6
REMARK    3  A    between atoms: C_5  and  C_16
REMARK    4  A    between atoms: C_19  and  C_21
REMARK                            x       y       z     vdW  Elec       q    Type
REMARK                         _______ _______ _______ _____ _____    ______ ____
ROOT
ATOM      1  O   UNL     1      34.223 -17.902 -25.419  0.00  0.00    -0.270 OA
ATOM      2  N   UNL     1      34.520 -15.962 -24.173  0.00  0.00    -0.267 N 
ATOM      3  C   UNL     1      34.578 -17.344 -24.380  0.00  0.00    +0.250 C 
ATOM      4  C   UNL     1      34.012 -15.102 -25.233  0.00  0.00    +0.116 C 
ENDROOT
BRANCH   3   6
ATOM      5  C   UNL     1      34.251 -19.009 -22.586  0.00  0.00    +0.006 C 
ATOM      6  C   UNL     1      35.081 -18.160 -23.236  0.00  0.00    +0.058 C 
BRANCH   5  16
ATOM      7  O   UNL     1      35.313 -23.605 -16.496  0.00  0.00    -0.275 OA
ATOM      8  N   UNL     1      35.779 -22.120 -18.186  0.00  0.00    -0.270 N 
ATOM      9  N   UNL     1      36.330 -20.656 -19.959  0.00  0.00    -0.229 NA
ATOM     10  C   UNL     1      33.014 -22.028 -18.798  0.00  0.00    +0.039 C 
ATOM     11  C   UNL     1      34.029 -21.324 -19.646  0.00  0.00    +0.010 C 
ATOM     12  C   UNL     1      33.614 -23.267 -18.153  0.00  0.00    +0.090 C 
ATOM     13  C   UNL     1      35.378 -21.354 -19.297  0.00  0.00    +0.130 C 
ATOM     14  C   UNL     1      33.651 -20.539 -20.736  0.00  0.00    +0.000 C 
ATOM     15  C   UNL     1      34.958 -22.999 -17.507  0.00  0.00    +0.227 C 
ATOM     16  C   UNL     1      34.614 -19.829 -21.444  0.00  0.00    +0.019 C 
ATOM     17  C   UNL     1      35.926 -19.919 -21.018  0.00  0.00    +0.100 C 
ATOM     18  H   UNL     1      36.706 -22.023 -17.871  0.00  0.00    +0.156 HD
ENDBRANCH   5  16
ENDBRANCH   3   6
BRANCH   2  19
ATOM     19  C   UNL     1      34.904 -15.281 -22.937  0.00  0.00    +0.158 C 
BRANCH  19  21
ATOM     20  O   UNL     1      34.138 -13.050 -23.377  0.00  0.00    -0.456 OA
ATOM     21  C   UNL     1      33.978 -14.146 -22.612  0.00  0.00    +0.139 A 
ATOM     22  C   UNL     1      32.998 -14.003 -21.688  0.00  0.00    +0.013 A 
ATOM     23  C   UNL     1      32.484 -12.693 -21.880  0.00  0.00    +0.033 A 
ATOM     24  C   UNL     1      33.219 -12.149 -22.929  0.00  0.00    +0.145 A 
ATOM     25  C   UNL     1      32.551 -14.993 -20.688  0.00  0.00    +0.034 C 
ATOM     26  C   UNL     1      31.481 -11.909 -21.285  0.00  0.00    +0.003 C 
ATOM     27  C   UNL     1      33.025 -10.866 -23.435  0.00  0.00    +0.037 C 
ATOM     28  C   UNL     1      31.263 -10.613 -21.772  0.00  0.00    +0.000 C 
ATOM     29  C   UNL     1      32.023 -10.103 -22.828  0.00  0.00    +0.003 C 
ENDBRANCH  19  21
ENDBRANCH   2  19
TORSDOF 4
ENDMDL
MODEL 4
REMARK VINA RESULT:     -12.7      3.469      5.674
REMARK  Name = 10407120
REMARK  4 active torsions:
REMARK  status: ('A' for Active; 'I' for Inactive)
REMARK    1  A    between atoms: N_2  and  C_19
REMARK    2  A    between atoms: C_3  and  C_6
REMARK    3  A    between atoms: C_5  and  C_16
REMARK    4  A    between atoms: C_19  and  C_21
REMARK                            x       y       z     vdW  Elec       q    Type
REMARK                         _______ _______ _______ _____ _____    ______ ____
ROOT
ATOM      1  O   UNL     1      31.228 -11.866 -21.075  0.00  0.00    -0.270 OA
ATOM      2  N   UNL     1      32.910 -13.060 -22.148  0.00  0.00    -0.267 N 
ATOM      3  C   UNL     1      32.115 -11.931 -21.928  0.00  0.00    +0.250 C 
ATOM      4  C   UNL     1      32.701 -14.250 -21.335  0.00  0.00    +0.116 C 
ENDROOT
BRANCH   3   6
ATOM      5  C   UNL     1      32.139  -9.504 -22.382  0.00  0.00    +0.006 C 
ATOM      6  C   UNL     1      32.370 -10.763 -22.822  0.00  0.00    +0.058 C 
BRANCH   5  16
ATOM      7  O   UNL     1      33.947  -3.337 -26.630  0.00  0.00    -0.275 OA
ATOM      8  N   UNL     1      32.700  -4.802 -25.375  0.00  0.00    -0.270 N 
ATOM      9  N   UNL     1      31.350  -6.317 -24.160  0.00  0.00    -0.229 NA
ATOM     10  C   UNL     1      35.057  -6.288 -24.859  0.00  0.00    +0.039 C 
ATOM     11  C   UNL     1      33.713  -6.766 -24.402  0.00  0.00    +0.010 C 
ATOM     12  C   UNL     1      34.935  -5.464 -26.131  0.00  0.00    +0.090 C 
ATOM     13  C   UNL     1      32.576  -5.994 -24.636  0.00  0.00    +0.130 C 
ATOM     14  C   UNL     1      33.571  -7.931 -23.647  0.00  0.00    +0.000 C 
ATOM     15  C   UNL     1      33.843  -4.417 -26.048  0.00  0.00    +0.227 C 
ATOM     16  C   UNL     1      32.318  -8.294 -23.166  0.00  0.00    +0.019 C 
ATOM     17  C   UNL     1      31.251  -7.460 -23.445  0.00  0.00    +0.100 C 
ATOM     18  H   UNL     1      31.921  -4.202 -25.414  0.00  0.00    +0.156 HD
ENDBRANCH   5  16
ENDBRANCH   3   6
BRANCH   2  19
ATOM     19  C   UNL     1      33.944 -13.172 -23.175  0.00  0.00    +0.158 C 
BRANCH  19  21
ATOM     20  O   UNL     1      34.900 -15.313 -22.665  0.00  0.00    -0.456 OA
ATOM     21  C   UNL     1      34.197 -14.599 -23.564  0.00  0.00    +0.139 A 
ATOM     22  C   UNL     1      33.852 -15.323 -24.656  0.00  0.00    +0.013 A 
ATOM     23  C   UNL     1      34.384 -16.620 -24.434  0.00  0.00    +0.033 A 
ATOM     24  C   UNL     1      35.019 -16.562 -23.197  0.00  0.00    +0.145 A 
ATOM     25  C   UNL     1      33.085 -14.868 -25.833  0.00  0.00    +0.034 C 
ATOM     26  C   UNL     1      34.400 -17.835 -25.141  0.00  0.00    +0.003 C 
ATOM     27  C   UNL     1      35.676 -17.638 -22.605  0.00  0.00    +0.037 C 
ATOM     28  C   UNL     1      35.053 -18.936 -24.571  0.00  0.00    +0.000 C 
ATOM     29  C   UNL     1      35.680 -18.837 -23.325  0.00  0.00    +0.003 C 
ENDBRANCH  19  21
ENDBRANCH   2  19
TORSDOF 4
ENDMDL
MODEL 5
REMARK VINA RESULT:     -12.6      3.655      9.970
REMARK  Name = 10407120
REMARK  4 active torsions:
REMARK  status: ('A' for Active; 'I' for Inactive)
REMARK    1  A    between atoms: N_2  and  C_19
REMARK    2  A    between atoms: C_3  and  C_6
REMARK    3  A    between atoms: C_5  and  C_16
REMARK    4  A    between atoms: C_19  and  C_21
REMARK                            x       y       z     vdW  Elec       q    Type
REMARK                         _______ _______ _______ _____ _____    ______ ____
ROOT
ATOM      1  O   UNL     1      34.941 -19.488 -23.705  0.00  0.00    -0.270 OA
ATOM      2  N   UNL     1      34.974 -17.364 -22.760  0.00  0.00    -0.267 N 
ATOM      3  C   UNL     1      35.039 -18.760 -22.716  0.00  0.00    +0.250 C 
ATOM      4  C   UNL     1      34.779 -16.698 -24.041  0.00  0.00    +0.116 C 
ENDROOT
BRANCH   3   6
ATOM      5  C   UNL     1      34.826 -20.647 -21.137  0.00  0.00    +0.006 C 
ATOM      6  C   UNL     1      35.209 -19.368 -21.363  0.00  0.00    +0.058 C 
BRANCH   5  16
ATOM      7  O   UNL     1      36.127 -24.003 -14.326  0.00  0.00    -0.275 OA
ATOM      8  N   UNL     1      35.030 -23.357 -16.238  0.00  0.00    -0.270 N 
ATOM      9  N   UNL     1      33.829 -22.651 -18.149  0.00  0.00    -0.229 NA
ATOM     10  C   UNL     1      37.441 -22.189 -17.165  0.00  0.00    +0.039 C 
ATOM     11  C   UNL     1      36.156 -22.041 -17.921  0.00  0.00    +0.010 C 
ATOM     12  C   UNL     1      37.179 -22.322 -15.673  0.00  0.00    +0.090 C 
ATOM     13  C   UNL     1      34.995 -22.659 -17.461  0.00  0.00    +0.130 C 
ATOM     14  C   UNL     1      36.104 -21.376 -19.147  0.00  0.00    +0.000 C 
ATOM     15  C   UNL     1      36.093 -23.330 -15.356  0.00  0.00    +0.227 C 
ATOM     16  C   UNL     1      34.912 -21.336 -19.862  0.00  0.00    +0.019 C 
ATOM     17  C   UNL     1      33.815 -21.985 -19.325  0.00  0.00    +0.100 C 
ATOM     18  H   UNL     1      34.247 -23.900 -15.996  0.00  0.00    +0.156 HD
ENDBRANCH   5  16
ENDBRANCH   3   6
BRANCH   2  19
ATOM     19  C   UNL     1      35.053 -16.482 -21.597  0.00  0.00    +0.158 C 
BRANCH  19  21
ATOM     20  O   UNL     1      34.725 -14.433 -22.801  0.00  0.00    -0.456 OA
ATOM     21  C   UNL     1      34.277 -15.214 -21.800  0.00  0.00    +0.139 A 
ATOM     22  C   UNL     1      33.199 -14.692 -21.168  0.00  0.00    +0.013 A 
ATOM     23  C   UNL     1      32.933 -13.462 -21.825  0.00  0.00    +0.033 A 
ATOM     24  C   UNL     1      33.899 -13.349 -22.821  0.00  0.00    +0.145 A 
ATOM     25  C   UNL     1      32.452 -15.271 -20.034  0.00  0.00    +0.034 C 
ATOM     26  C   UNL     1      31.985 -12.434 -21.690  0.00  0.00    +0.003 C 
ATOM     27  C   UNL     1      33.990 -12.274 -23.703  0.00  0.00    +0.037 C 
ATOM     28  C   UNL     1      32.051 -11.339 -22.562  0.00  0.00    +0.000 C 
ATOM     29  C   UNL     1      33.037 -11.262 -23.549  0.00  0.00    +0.003 C 
ENDBRANCH  19  21
ENDBRANCH   2  19
TORSDOF 4
ENDMDL
MODEL 6
REMARK VINA RESULT:     -12.5      2.616      9.095
REMARK  Name = 10407120
REMARK  4 active torsions:
REMARK  status: ('A' for Active; 'I' for Inactive)
REMARK    1  A    between atoms: N_2  and  C_19
REMARK    2  A    between atoms: C_3  and  C_6
REMARK    3  A    between atoms: C_5  and  C_16
REMARK    4  A    between atoms: C_19  and  C_21
REMARK                            x       y       z     vdW  Elec       q    Type
REMARK                         _______ _______ _______ _____ _____    ______ ____
ROOT
ATOM      1  O   UNL     1      33.753 -18.045 -25.612  0.00  0.00    -0.270 OA
ATOM      2  N   UNL     1      34.422 -15.985 -24.768  0.00  0.00    -0.267 N 
ATOM      3  C   UNL     1      34.320 -17.379 -24.744  0.00  0.00    +0.250 C 
ATOM      4  C   UNL     1      33.831 -15.244 -25.875  0.00  0.00    +0.116 C 
ENDROOT
BRANCH   3   6
ATOM      5  C   UNL     1      34.242 -19.036 -22.914  0.00  0.00    +0.006 C 
ATOM      6  C   UNL     1      34.924 -18.062 -23.562  0.00  0.00    +0.058 C 
BRANCH   5  16
ATOM      7  O   UNL     1      35.887 -23.145 -16.610  0.00  0.00    -0.275 OA
ATOM      8  N   UNL     1      36.167 -21.723 -18.392  0.00  0.00    -0.270 N 
ATOM      9  N   UNL     1      36.532 -20.318 -20.260  0.00  0.00    -0.229 NA
ATOM     10  C   UNL     1      33.392 -21.934 -18.930  0.00  0.00    +0.039 C 
ATOM     11  C   UNL     1      34.314 -21.186 -19.844  0.00  0.00    +0.010 C 
ATOM     12  C   UNL     1      34.125 -23.069 -18.234  0.00  0.00    +0.090 C 
ATOM     13  C   UNL     1      35.668 -21.066 -19.533  0.00  0.00    +0.130 C 
ATOM     14  C   UNL     1      33.837 -20.505 -20.965  0.00  0.00    +0.000 C 
ATOM     15  C   UNL     1      35.451 -22.636 -17.642  0.00  0.00    +0.227 C 
ATOM     16  C   UNL     1      34.709 -19.749 -21.739  0.00  0.00    +0.019 C 
ATOM     17  C   UNL     1      36.034 -19.686 -21.346  0.00  0.00    +0.100 C 
ATOM     18  H   UNL     1      37.087 -21.519 -18.110  0.00  0.00    +0.156 HD
ENDBRANCH   5  16
ENDBRANCH   3   6
BRANCH   2  19
ATOM     19  C   UNL     1      35.060 -15.171 -23.734  0.00  0.00    +0.158 C 
BRANCH  19  21
ATOM     20  O   UNL     1      33.531 -14.215 -22.150  0.00  0.00    -0.456 OA
ATOM     21  C   UNL     1      34.191 -14.024 -23.308  0.00  0.00    +0.139 A 
ATOM     22  C   UNL     1      33.936 -12.816 -23.864  0.00  0.00    +0.013 A 
ATOM     23  C   UNL     1      33.028 -12.175 -22.980  0.00  0.00    +0.033 A 
ATOM     24  C   UNL     1      32.811 -13.077 -21.943  0.00  0.00    +0.145 A 
ATOM     25  C   UNL     1      34.481 -12.271 -25.123  0.00  0.00    +0.034 C 
ATOM     26  C   UNL     1      32.367 -10.936 -22.941  0.00  0.00    +0.003 C 
ATOM     27  C   UNL     1      31.975 -12.832 -20.856  0.00  0.00    +0.037 C 
ATOM     28  C   UNL     1      31.518 -10.660 -21.861  0.00  0.00    +0.000 C 
ATOM     29  C   UNL     1      31.327 -11.593 -20.839  0.00  0.00    +0.003 C 
ENDBRANCH  19  21
ENDBRANCH   2  19
TORSDOF 4
ENDMDL
MODEL 7
REMARK VINA RESULT:     -12.2      3.866     10.791
REMARK  Name = 10407120
REMARK  4 active torsions:
REMARK  status: ('A' for Active; 'I' for Inactive)
REMARK    1  A    between atoms: N_2  and  C_19
REMARK    2  A    between atoms: C_3  and  C_6
REMARK    3  A    between atoms: C_5  and  C_16
REMARK    4  A    between atoms: C_19  and  C_21
REMARK                            x       y       z     vdW  Elec       q    Type
REMARK                         _______ _______ _______ _____ _____    ______ ____
ROOT
ATOM      1  O   UNL     1      30.622  -9.886 -19.746  0.00  0.00    -0.270 OA
ATOM      2  N   UNL     1      32.285  -8.343 -20.254  0.00  0.00    -0.267 N 
ATOM      3  C   UNL     1      31.656  -9.588 -20.346  0.00  0.00    +0.250 C 
ATOM      4  C   UNL     1      31.706  -7.311 -19.403  0.00  0.00    +0.116 C 
ENDROOT
BRANCH   3   6
ATOM      5  C   UNL     1      32.014 -11.913 -21.097  0.00  0.00    +0.006 C 
ATOM      6  C   UNL     1      32.327 -10.601 -21.213  0.00  0.00    +0.058 C 
BRANCH   5  16
ATOM      7  O   UNL     1      34.910 -17.215 -25.875  0.00  0.00    -0.275 OA
ATOM      8  N   UNL     1      34.376 -16.136 -23.920  0.00  0.00    -0.270 N 
ATOM      9  N   UNL     1      33.926 -15.022 -21.882  0.00  0.00    -0.229 NA
ATOM     10  C   UNL     1      32.856 -14.275 -25.422  0.00  0.00    +0.039 C 
ATOM     11  C   UNL     1      33.067 -14.107 -23.949  0.00  0.00    +0.010 C 
ATOM     12  C   UNL     1      34.036 -14.991 -26.060  0.00  0.00    +0.090 C 
ATOM     13  C   UNL     1      33.787 -15.059 -23.228  0.00  0.00    +0.130 C 
ATOM     14  C   UNL     1      32.471 -13.063 -23.240  0.00  0.00    +0.000 C 
ATOM     15  C   UNL     1      34.451 -16.232 -25.295  0.00  0.00    +0.227 C 
ATOM     16  C   UNL     1      32.617 -12.991 -21.859  0.00  0.00    +0.019 C 
ATOM     17  C   UNL     1      33.345 -13.987 -21.234  0.00  0.00    +0.100 C 
ATOM     18  H   UNL     1      34.761 -16.868 -23.387  0.00  0.00    +0.156 HD
ENDBRANCH   5  16
ENDBRANCH   3   6
BRANCH   2  19
ATOM     19  C   UNL     1      33.529  -7.978 -20.929  0.00  0.00    +0.158 C 
BRANCH  19  21
ATOM     20  O   UNL     1      32.210  -6.314 -22.048  0.00  0.00    -0.456 OA
ATOM     21  C   UNL     1      33.282  -7.124 -22.138  0.00  0.00    +0.139 A 
ATOM     22  C   UNL     1      33.933  -7.003 -23.319  0.00  0.00    +0.013 A 
ATOM     23  C   UNL     1      33.211  -6.025 -24.053  0.00  0.00    +0.033 A 
ATOM     24  C   UNL     1      32.161  -5.634 -23.227  0.00  0.00    +0.145 A 
ATOM     25  C   UNL     1      35.140  -7.730 -23.761  0.00  0.00    +0.034 C 
ATOM     26  C   UNL     1      33.327  -5.429 -25.320  0.00  0.00    +0.003 C 
ATOM     27  C   UNL     1      31.208  -4.679 -23.575  0.00  0.00    +0.037 C 
ATOM     28  C   UNL     1      32.382  -4.466 -25.699  0.00  0.00    +0.000 C 
ATOM     29  C   UNL     1      31.342  -4.100 -24.841  0.00  0.00    +0.003 C 
ENDBRANCH  19  21
ENDBRANCH   2  19
TORSDOF 4
ENDMDL
MODEL 8
REMARK VINA RESULT:     -12.0      3.051     10.766
REMARK  Name = 10407120
REMARK  4 active torsions:
REMARK  status: ('A' for Active; 'I' for Inactive)
REMARK    1  A    between atoms: N_2  and  C_19
REMARK    2  A    between atoms: C_3  and  C_6
REMARK    3  A    between atoms: C_5  and  C_16
REMARK    4  A    between atoms: C_19  and  C_21
REMARK                            x       y       z     vdW  Elec       q    Type
REMARK                         _______ _______ _______ _____ _____    ______ ____
ROOT
ATOM      1  O   UNL     1      30.530 -10.043 -19.827  0.00  0.00    -0.270 OA
ATOM      2  N   UNL     1      32.189  -8.493 -20.325  0.00  0.00    -0.267 N 
ATOM      3  C   UNL     1      31.582  -9.750 -20.398  0.00  0.00    +0.250 C 
ATOM      4  C   UNL     1      31.564  -7.442 -19.533  0.00  0.00    +0.116 C 
ENDROOT
BRANCH   3   6
ATOM      5  C   UNL     1      32.052 -12.097 -21.004  0.00  0.00    +0.006 C 
ATOM      6  C   UNL     1      32.299 -10.781 -21.204  0.00  0.00    +0.058 C 
BRANCH   5  16
ATOM      7  O   UNL     1      35.747 -18.209 -23.890  0.00  0.00    -0.275 OA
ATOM      8  N   UNL     1      34.548 -16.252 -23.813  0.00  0.00    -0.270 N 
ATOM      9  N   UNL     1      33.239 -14.282 -23.789  0.00  0.00    -0.229 NA
ATOM     10  C   UNL     1      34.899 -16.207 -21.001  0.00  0.00    +0.039 C 
ATOM     11  C   UNL     1      34.038 -15.200 -21.700  0.00  0.00    +0.010 C 
ATOM     12  C   UNL     1      34.903 -17.529 -21.752  0.00  0.00    +0.090 C 
ATOM     13  C   UNL     1      33.916 -15.222 -23.089  0.00  0.00    +0.130 C 
ATOM     14  C   UNL     1      33.424 -14.157 -21.005  0.00  0.00    +0.000 C 
ATOM     15  C   UNL     1      35.142 -17.358 -23.238  0.00  0.00    +0.227 C 
ATOM     16  C   UNL     1      32.706 -13.190 -21.700  0.00  0.00    +0.019 C 
ATOM     17  C   UNL     1      32.647 -13.296 -23.078  0.00  0.00    +0.100 C 
ATOM     18  H   UNL     1      34.567 -16.178 -24.794  0.00  0.00    +0.156 HD
ENDBRANCH   5  16
ENDBRANCH   3   6
BRANCH   2  19
ATOM     19  C   UNL     1      33.453  -8.132 -20.965  0.00  0.00    +0.158 C 
BRANCH  19  21
ATOM     20  O   UNL     1      32.144  -6.476 -22.106  0.00  0.00    -0.456 OA
ATOM     21  C   UNL     1      33.245  -7.248 -22.160  0.00  0.00    +0.139 A 
ATOM     22  C   UNL     1      33.957  -7.069 -23.298  0.00  0.00    +0.013 A 
ATOM     23  C   UNL     1      33.244  -6.092 -24.042  0.00  0.00    +0.033 A 
ATOM     24  C   UNL     1      32.137  -5.761 -23.266  0.00  0.00    +0.145 A 
ATOM     25  C   UNL     1      35.210  -7.743 -23.692  0.00  0.00    +0.034 C 
ATOM     26  C   UNL     1      33.411  -5.453 -25.282  0.00  0.00    +0.003 C 
ATOM     27  C   UNL     1      31.173  -4.826 -23.638  0.00  0.00    +0.037 C 
ATOM     28  C   UNL     1      32.457  -4.508 -25.685  0.00  0.00    +0.000 C 
ATOM     29  C   UNL     1      31.358  -4.203 -24.876  0.00  0.00    +0.003 C 
ENDBRANCH  19  21
ENDBRANCH   2  19
TORSDOF 4
ENDMDL
MODEL 9
REMARK VINA RESULT:     -11.8      3.862     11.172
REMARK  Name = 10407120
REMARK  4 active torsions:
REMARK  status: ('A' for Active; 'I' for Inactive)
REMARK    1  A    between atoms: N_2  and  C_19
REMARK    2  A    between atoms: C_3  and  C_6
REMARK    3  A    between atoms: C_5  and  C_16
REMARK    4  A    between atoms: C_19  and  C_21
REMARK                            x       y       z     vdW  Elec       q    Type
REMARK                         _______ _______ _______ _____ _____    ______ ____
ROOT
ATOM      1  O   UNL     1      32.172  -6.766 -19.505  0.00  0.00    -0.270 OA
ATOM      2  N   UNL     1      31.416  -6.573 -21.695  0.00  0.00    -0.267 N 
ATOM      3  C   UNL     1      32.041  -7.238 -20.635  0.00  0.00    +0.250 C 
ATOM      4  C   UNL     1      30.877  -5.237 -21.480  0.00  0.00    +0.116 C 
ENDROOT
BRANCH   3   6
ATOM      5  C   UNL     1      31.766  -9.604 -21.288  0.00  0.00    +0.006 C 
ATOM      6  C   UNL     1      32.594  -8.590 -20.943  0.00  0.00    +0.058 C 
BRANCH   5  16
ATOM      7  O   UNL     1      34.272 -16.508 -23.610  0.00  0.00    -0.275 OA
ATOM      8  N   UNL     1      33.304 -14.897 -22.290  0.00  0.00    -0.270 N 
ATOM      9  N   UNL     1      32.370 -13.263 -20.857  0.00  0.00    -0.229 NA
ATOM     10  C   UNL     1      33.661 -13.032 -24.395  0.00  0.00    +0.039 C 
ATOM     11  C   UNL     1      33.139 -12.612 -23.055  0.00  0.00    +0.010 C 
ATOM     12  C   UNL     1      34.596 -14.224 -24.261  0.00  0.00    +0.090 C 
ATOM     13  C   UNL     1      32.936 -13.558 -22.051  0.00  0.00    +0.130 C 
ATOM     14  C   UNL     1      32.744 -11.297 -22.805  0.00  0.00    +0.000 C 
ATOM     15  C   UNL     1      34.023 -15.323 -23.390  0.00  0.00    +0.227 C 
ATOM     16  C   UNL     1      32.180 -10.965 -21.578  0.00  0.00    +0.019 C 
ATOM     17  C   UNL     1      32.015 -11.975 -20.649  0.00  0.00    +0.100 C 
ATOM     18  H   UNL     1      33.030 -15.573 -21.630  0.00  0.00    +0.156 HD
ENDBRANCH   5  16
ENDBRANCH   3   6
BRANCH   2  19
ATOM     19  C   UNL     1      31.279  -7.098 -23.052  0.00  0.00    +0.158 C 
BRANCH  19  21
ATOM     20  O   UNL     1      31.863  -5.544 -24.784  0.00  0.00    -0.456 OA
ATOM     21  C   UNL     1      32.310  -6.528 -23.981  0.00  0.00    +0.139 A 
ATOM     22  C   UNL     1      33.620  -6.810 -24.175  0.00  0.00    +0.013 A 
ATOM     23  C   UNL     1      34.052  -5.924 -25.197  0.00  0.00    +0.033 A 
ATOM     24  C   UNL     1      32.934  -5.168 -25.538  0.00  0.00    +0.145 A 
ATOM     25  C   UNL     1      34.436  -7.823 -23.477  0.00  0.00    +0.034 C 
ATOM     26  C   UNL     1      35.260  -5.678 -25.871  0.00  0.00    +0.003 C 
ATOM     27  C   UNL     1      32.933  -4.171 -26.512  0.00  0.00    +0.037 C 
ATOM     28  C   UNL     1      35.289  -4.683 -26.857  0.00  0.00    +0.000 C 
ATOM     29  C   UNL     1      34.145  -3.945 -27.170  0.00  0.00    +0.003 C 
ENDBRANCH  19  21
ENDBRANCH   2  19
TORSDOF 4
ENDMDL
