MODEL 1
REMARK VINA RESULT:     -12.3      0.000      0.000
REMARK  Name = 24812758
REMARK  9 active torsions:
REMARK  status: ('A' for Active; 'I' for Inactive)
REMARK    1  A    between atoms: C_1  and  C_11
REMARK    2  A    between atoms: C_4  and  C_23
REMARK    3  A    between atoms: C_9  and  O_14
REMARK    4  A    between atoms: C_10  and  O_16
REMARK    5  A    between atoms: C_12  and  O_18
REMARK    6  A    between atoms: C_13  and  C_20
REMARK    7  A    between atoms: C_20  and  O_21
REMARK    8  A    between atoms: C_23  and  C_25
REMARK    9  A    between atoms: C_27  and  C_30
REMARK                            x       y       z     vdW  Elec       q    Type
REMARK                         _______ _______ _______ _____ _____    ______ ____
ROOT
ATOM      1  C   UNL     1      34.554 -23.513 -15.005  0.00  0.00    +0.007 C 
ATOM      2  C   UNL     1      34.533 -23.560 -16.399  0.00  0.00    -0.006 C 
ATOM      3  C   UNL     1      33.395 -23.187 -14.301  0.00  0.00    -0.002 C 
ATOM      4  C   UNL     1      33.354 -23.282 -17.089  0.00  0.00    -0.021 C 
ATOM      5  C   UNL     1      32.194 -22.955 -16.385  0.00  0.00    -0.025 C 
ATOM      6  C   UNL     1      32.215 -22.908 -14.991  0.00  0.00    -0.005 C 
ATOM      7  C   UNL     1      30.919 -22.654 -17.101  0.00  0.00    +0.031 C 
ENDROOT
BRANCH   1  11
ATOM      8  O   UNL     1      36.866 -24.031 -15.226  0.00  0.00    -0.347 OA
ATOM      9  C   UNL     1      35.689 -25.036 -13.334  0.00  0.00    +0.171 C 
ATOM     10  C   UNL     1      37.035 -25.419 -12.712  0.00  0.00    +0.169 C 
ATOM     11  C   UNL     1      35.836 -23.815 -14.256  0.00  0.00    +0.167 C 
ATOM     12  C   UNL     1      38.134 -25.499 -13.771  0.00  0.00    +0.169 C 
ATOM     13  C   UNL     1      38.150 -24.236 -14.634  0.00  0.00    +0.174 C 
BRANCH   9  14
ATOM     14  O   UNL     1      34.771 -24.712 -12.291  0.00  0.00    -0.379 OA
ATOM     15  H   UNL     1      33.968 -24.327 -12.674  0.00  0.00    +0.211 HD
ENDBRANCH   9  14
BRANCH  10  16
ATOM     16  O   UNL     1      36.924 -26.702 -12.094  0.00  0.00    -0.379 OA
ATOM     17  H   UNL     1      37.016 -26.608 -11.133  0.00  0.00    +0.211 HD
ENDBRANCH  10  16
BRANCH  12  18
ATOM     18  O   UNL     1      39.398 -25.645 -13.128  0.00  0.00    -0.379 OA
ATOM     19  H   UNL     1      40.097 -25.700 -13.799  0.00  0.00    +0.211 HD
ENDBRANCH  12  18
BRANCH  13  20
ATOM     20  C   UNL     1      39.165 -24.338 -15.767  0.00  0.00    +0.169 C 
BRANCH  20  21
ATOM     21  O   UNL     1      39.638 -25.672 -15.831  0.00  0.00    -0.379 OA
ATOM     22  H   UNL     1      40.502 -25.730 -15.393  0.00  0.00    +0.211 HD
ENDBRANCH  20  21
ENDBRANCH  13  20
ENDBRANCH   1  11
BRANCH   4  23
ATOM     23  C   UNL     1      33.355 -23.339 -18.581  0.00  0.00    +0.059 C 
BRANCH  23  25
ATOM     24  S   UNL     1      33.507 -21.185 -20.347  0.00  0.00    -0.091 S 
ATOM     25  C   UNL     1      34.216 -22.278 -19.234  0.00  0.00    +0.012 C 
ATOM     26  C   UNL     1      35.560 -22.038 -19.059  0.00  0.00    +0.003 C 
ATOM     27  C   UNL     1      35.001 -20.388 -20.598  0.00  0.00    +0.029 C 
ATOM     28  C   UNL     1      36.016 -20.943 -19.850  0.00  0.00    +0.007 C 
BRANCH  27  30
ATOM     29  F   UNL     1      35.202 -16.099 -24.151  0.00  0.00    -0.204 F 
ATOM     30  C   UNL     1      35.054 -19.277 -21.519  0.00  0.00    +0.006 C 
ATOM     31  C   UNL     1      34.921 -19.499 -22.890  0.00  0.00    +0.003 C 
ATOM     32  C   UNL     1      35.236 -17.980 -21.038  0.00  0.00    +0.003 C 
ATOM     33  C   UNL     1      34.972 -18.426 -23.779  0.00  0.00    +0.030 C 
ATOM     34  C   UNL     1      35.286 -16.907 -21.927  0.00  0.00    +0.030 C 
ATOM     35  C   UNL     1      35.154 -17.130 -23.298  0.00  0.00    +0.140 C 
ENDBRANCH  27  30
ENDBRANCH  23  25
ENDBRANCH   4  23
TORSDOF 9
ENDMDL
MODEL 2
REMARK VINA RESULT:     -12.2      1.440      2.079
REMARK  Name = 24812758
REMARK  9 active torsions:
REMARK  status: ('A' for Active; 'I' for Inactive)
REMARK    1  A    between atoms: C_1  and  C_11
REMARK    2  A    between atoms: C_4  and  C_23
REMARK    3  A    between atoms: C_9  and  O_14
REMARK    4  A    between atoms: C_10  and  O_16
REMARK    5  A    between atoms: C_12  and  O_18
REMARK    6  A    between atoms: C_13  and  C_20
REMARK    7  A    between atoms: C_20  and  O_21
REMARK    8  A    between atoms: C_23  and  C_25
REMARK    9  A    between atoms: C_27  and  C_30
REMARK                            x       y       z     vdW  Elec       q    Type
REMARK                         _______ _______ _______ _____ _____    ______ ____
ROOT
ATOM      1  C   UNL     1      34.270 -24.210 -14.438  0.00  0.00    +0.007 C 
ATOM      2  C   UNL     1      34.049 -24.019 -15.801  0.00  0.00    -0.006 C 
ATOM      3  C   UNL     1      33.251 -23.943 -13.522  0.00  0.00    -0.002 C 
ATOM      4  C   UNL     1      32.811 -23.559 -16.251  0.00  0.00    -0.021 C 
ATOM      5  C   UNL     1      31.793 -23.292 -15.335  0.00  0.00    -0.025 C 
ATOM      6  C   UNL     1      32.014 -23.484 -13.971  0.00  0.00    -0.005 C 
ATOM      7  C   UNL     1      30.459 -22.800 -15.791  0.00  0.00    +0.031 C 
ENDROOT
BRANCH   1  11
ATOM      8  O   UNL     1      36.345 -23.581 -13.457  0.00  0.00    -0.347 OA
ATOM      9  C   UNL     1      36.401 -25.424 -15.061  0.00  0.00    +0.171 C 
ATOM     10  C   UNL     1      37.816 -25.775 -14.593  0.00  0.00    +0.169 C 
ATOM     11  C   UNL     1      35.615 -24.709 -13.950  0.00  0.00    +0.167 C 
ATOM     12  C   UNL     1      38.502 -24.574 -13.945  0.00  0.00    +0.169 C 
ATOM     13  C   UNL     1      37.601 -23.942 -12.882  0.00  0.00    +0.174 C 
BRANCH   9  14
ATOM     14  O   UNL     1      35.713 -26.626 -15.405  0.00  0.00    -0.379 OA
ATOM     15  H   UNL     1      34.764 -26.444 -15.486  0.00  0.00    +0.211 HD
ENDBRANCH   9  14
BRANCH  10  16
ATOM     16  O   UNL     1      38.600 -26.178 -15.717  0.00  0.00    -0.379 OA
ATOM     17  H   UNL     1      39.081 -25.413 -16.068  0.00  0.00    +0.211 HD
ENDBRANCH  10  16
BRANCH  12  18
ATOM     18  O   UNL     1      39.719 -24.998 -13.338  0.00  0.00    -0.379 OA
ATOM     19  H   UNL     1      39.749 -25.968 -13.315  0.00  0.00    +0.211 HD
ENDBRANCH  12  18
BRANCH  13  20
ATOM     20  C   UNL     1      38.218 -22.676 -12.298  0.00  0.00    +0.169 C 
BRANCH  20  21
ATOM     21  O   UNL     1      39.387 -23.033 -11.582  0.00  0.00    -0.379 OA
ATOM     22  H   UNL     1      39.817 -23.785 -12.018  0.00  0.00    +0.211 HD
ENDBRANCH  20  21
ENDBRANCH  13  20
ENDBRANCH   1  11
BRANCH   4  23
ATOM     23  C   UNL     1      32.598 -23.362 -17.715  0.00  0.00    +0.059 C 
BRANCH  23  25
ATOM     24  S   UNL     1      33.316 -21.517 -19.680  0.00  0.00    -0.091 S 
ATOM     25  C   UNL     1      33.703 -22.581 -18.395  0.00  0.00    +0.012 C 
ATOM     26  C   UNL     1      35.053 -22.592 -18.122  0.00  0.00    +0.003 C 
ATOM     27  C   UNL     1      34.957 -21.069 -19.875  0.00  0.00    +0.029 C 
ATOM     28  C   UNL     1      35.780 -21.716 -18.980  0.00  0.00    +0.007 C 
BRANCH  27  30
ATOM     29  F   UNL     1      36.292 -17.380 -23.833  0.00  0.00    -0.204 F 
ATOM     30  C   UNL     1      35.302 -20.113 -20.901  0.00  0.00    +0.006 C 
ATOM     31  C   UNL     1      36.574 -19.538 -20.919  0.00  0.00    +0.003 C 
ATOM     32  C   UNL     1      34.366 -19.764 -21.874  0.00  0.00    +0.003 C 
ATOM     33  C   UNL     1      36.908 -18.615 -21.909  0.00  0.00    +0.030 C 
ATOM     34  C   UNL     1      34.700 -18.841 -22.864  0.00  0.00    +0.030 C 
ATOM     35  C   UNL     1      35.971 -18.266 -22.882  0.00  0.00    +0.140 C 
ENDBRANCH  27  30
ENDBRANCH  23  25
ENDBRANCH   4  23
TORSDOF 9
ENDMDL
MODEL 3
REMARK VINA RESULT:     -11.8     10.472     14.062
REMARK  Name = 24812758
REMARK  9 active torsions:
REMARK  status: ('A' for Active; 'I' for Inactive)
REMARK    1  A    between atoms: C_1  and  C_11
REMARK    2  A    between atoms: C_4  and  C_23
REMARK    3  A    between atoms: C_9  and  O_14
REMARK    4  A    between atoms: C_10  and  O_16
REMARK    5  A    between atoms: C_12  and  O_18
REMARK    6  A    between atoms: C_13  and  C_20
REMARK    7  A    between atoms: C_20  and  O_21
REMARK    8  A    between atoms: C_23  and  C_25
REMARK    9  A    between atoms: C_27  and  C_30
REMARK                            x       y       z     vdW  Elec       q    Type
REMARK                         _______ _______ _______ _____ _____    ______ ____
ROOT
ATOM      1  C   UNL     1      33.112 -12.886 -22.435  0.00  0.00    +0.007 C 
ATOM      2  C   UNL     1      32.561 -11.695 -22.906  0.00  0.00    -0.006 C 
ATOM      3  C   UNL     1      32.929 -13.259 -21.103  0.00  0.00    -0.002 C 
ATOM      4  C   UNL     1      31.828 -10.876 -22.048  0.00  0.00    -0.021 C 
ATOM      5  C   UNL     1      31.646 -11.249 -20.716  0.00  0.00    -0.025 C 
ATOM      6  C   UNL     1      32.197 -12.440 -20.244  0.00  0.00    -0.005 C 
ATOM      7  C   UNL     1      30.865 -10.390 -19.776  0.00  0.00    +0.031 C 
ENDROOT
BRANCH   1  11
ATOM      8  O   UNL     1      33.077 -14.079 -24.494  0.00  0.00    -0.347 OA
ATOM      9  C   UNL     1      34.379 -15.062 -22.675  0.00  0.00    +0.171 C 
ATOM     10  C   UNL     1      35.040 -16.015 -23.675  0.00  0.00    +0.169 C 
ATOM     11  C   UNL     1      33.908 -13.775 -23.368  0.00  0.00    +0.167 C 
ATOM     12  C   UNL     1      34.177 -16.196 -24.923  0.00  0.00    +0.169 C 
ATOM     13  C   UNL     1      33.755 -14.841 -25.493  0.00  0.00    +0.174 C 
BRANCH   9  14
ATOM     14  O   UNL     1      35.329 -14.716 -21.666  0.00  0.00    -0.379 OA
ATOM     15  H   UNL     1      36.219 -14.963 -21.962  0.00  0.00    +0.211 HD
ENDBRANCH   9  14
BRANCH  10  16
ATOM     16  O   UNL     1      35.212 -17.296 -23.067  0.00  0.00    -0.379 OA
ATOM     17  H   UNL     1      34.348 -17.724 -22.964  0.00  0.00    +0.211 HD
ENDBRANCH  10  16
BRANCH  12  18
ATOM     18  O   UNL     1      34.919 -16.910 -25.908  0.00  0.00    -0.379 OA
ATOM     19  H   UNL     1      35.863 -16.704 -25.814  0.00  0.00    +0.211 HD
ENDBRANCH  12  18
BRANCH  13  20
ATOM     20  C   UNL     1      32.804 -14.996 -26.675  0.00  0.00    +0.169 C 
BRANCH  20  21
ATOM     21  O   UNL     1      32.301 -16.320 -26.678  0.00  0.00    -0.379 OA
ATOM     22  H   UNL     1      31.528 -16.371 -27.262  0.00  0.00    +0.211 HD
ENDBRANCH  20  21
ENDBRANCH  13  20
ENDBRANCH   1  11
BRANCH   4  23
ATOM     23  C   UNL     1      31.247  -9.605 -22.575  0.00  0.00    +0.059 C 
BRANCH  23  25
ATOM     24  S   UNL     1      31.941  -7.579 -24.362  0.00  0.00    -0.091 S 
ATOM     25  C   UNL     1      32.285  -8.601 -23.032  0.00  0.00    +0.012 C 
ATOM     26  C   UNL     1      33.538  -8.365 -22.510  0.00  0.00    +0.003 C 
ATOM     27  C   UNL     1      33.470  -6.819 -24.243  0.00  0.00    +0.029 C 
ATOM     28  C   UNL     1      34.225  -7.333 -23.212  0.00  0.00    +0.007 C 
BRANCH  27  30
ATOM     29  F   UNL     1      34.763  -2.784 -27.864  0.00  0.00    -0.204 F 
ATOM     30  C   UNL     1      33.805  -5.773 -25.181  0.00  0.00    +0.006 C 
ATOM     31  C   UNL     1      35.013  -5.821 -25.877  0.00  0.00    +0.003 C 
ATOM     32  C   UNL     1      32.921  -4.715 -25.392  0.00  0.00    +0.003 C 
ATOM     33  C   UNL     1      35.337  -4.812 -26.783  0.00  0.00    +0.030 C 
ATOM     34  C   UNL     1      33.244  -3.706 -26.298  0.00  0.00    +0.030 C 
ATOM     35  C   UNL     1      34.453  -3.754 -26.994  0.00  0.00    +0.140 C 
ENDBRANCH  27  30
ENDBRANCH  23  25
ENDBRANCH   4  23
TORSDOF 9
ENDMDL
MODEL 4
REMARK VINA RESULT:     -11.8      2.802      5.043
REMARK  Name = 24812758
REMARK  9 active torsions:
REMARK  status: ('A' for Active; 'I' for Inactive)
REMARK    1  A    between atoms: C_1  and  C_11
REMARK    2  A    between atoms: C_4  and  C_23
REMARK    3  A    between atoms: C_9  and  O_14
REMARK    4  A    between atoms: C_10  and  O_16
REMARK    5  A    between atoms: C_12  and  O_18
REMARK    6  A    between atoms: C_13  and  C_20
REMARK    7  A    between atoms: C_20  and  O_21
REMARK    8  A    between atoms: C_23  and  C_25
REMARK    9  A    between atoms: C_27  and  C_30
REMARK                            x       y       z     vdW  Elec       q    Type
REMARK                         _______ _______ _______ _____ _____    ______ ____
ROOT
ATOM      1  C   UNL     1      33.879 -23.297 -16.194  0.00  0.00    +0.007 C 
ATOM      2  C   UNL     1      34.414 -23.113 -17.469  0.00  0.00    -0.006 C 
ATOM      3  C   UNL     1      34.575 -22.841 -15.074  0.00  0.00    -0.002 C 
ATOM      4  C   UNL     1      35.644 -22.475 -17.625  0.00  0.00    -0.021 C 
ATOM      5  C   UNL     1      36.339 -22.019 -16.504  0.00  0.00    -0.025 C 
ATOM      6  C   UNL     1      35.804 -22.202 -15.229  0.00  0.00    -0.005 C 
ATOM      7  C   UNL     1      37.658 -21.331 -16.645  0.00  0.00    +0.031 C 
ENDROOT
BRANCH   1  11
ATOM      8  O   UNL     1      31.525 -23.091 -16.476  0.00  0.00    -0.347 OA
ATOM      9  C   UNL     1      32.292 -24.412 -14.569  0.00  0.00    +0.171 C 
ATOM     10  C   UNL     1      30.875 -24.964 -14.393  0.00  0.00    +0.169 C 
ATOM     11  C   UNL     1      32.542 -23.991 -16.025  0.00  0.00    +0.167 C 
ATOM     12  C   UNL     1      29.835 -24.035 -15.016  0.00  0.00    +0.169 C 
ATOM     13  C   UNL     1      30.221 -23.673 -16.451  0.00  0.00    +0.174 C 
BRANCH   9  14
ATOM     14  O   UNL     1      33.233 -25.428 -14.220  0.00  0.00    -0.379 OA
ATOM     15  H   UNL     1      34.116 -25.036 -14.136  0.00  0.00    +0.211 HD
ENDBRANCH   9  14
BRANCH  10  16
ATOM     16  O   UNL     1      30.582 -25.083 -13.000  0.00  0.00    -0.379 OA
ATOM     17  H   UNL     1      29.845 -25.701 -12.875  0.00  0.00    +0.211 HD
ENDBRANCH  10  16
BRANCH  12  18
ATOM     18  O   UNL     1      28.566 -24.683 -15.020  0.00  0.00    -0.379 OA
ATOM     19  H   UNL     1      27.894 -24.074 -15.366  0.00  0.00    +0.211 HD
ENDBRANCH  12  18
BRANCH  13  20
ATOM     20  C   UNL     1      29.256 -22.659 -17.058  0.00  0.00    +0.169 C 
BRANCH  20  21
ATOM     21  O   UNL     1      28.245 -23.361 -17.758  0.00  0.00    -0.379 OA
ATOM     22  H   UNL     1      27.869 -22.788 -18.445  0.00  0.00    +0.211 HD
ENDBRANCH  20  21
ENDBRANCH  13  20
ENDBRANCH   1  11
BRANCH   4  23
ATOM     23  C   UNL     1      36.197 -22.289 -18.999  0.00  0.00    +0.059 C 
BRANCH  23  25
ATOM     24  S   UNL     1      36.190 -20.378 -21.032  0.00  0.00    -0.091 S 
ATOM     25  C   UNL     1      35.391 -21.338 -19.860  0.00  0.00    +0.012 C 
ATOM     26  C   UNL     1      34.032 -21.114 -19.848  0.00  0.00    +0.003 C 
ATOM     27  C   UNL     1      34.717 -19.659 -21.525  0.00  0.00    +0.029 C 
ATOM     28  C   UNL     1      33.641 -20.141 -20.813  0.00  0.00    +0.007 C 
BRANCH  27  30
ATOM     29  F   UNL     1      34.810 -15.849 -25.592  0.00  0.00    -0.204 F 
ATOM     30  C   UNL     1      34.742 -18.671 -22.579  0.00  0.00    +0.006 C 
ATOM     31  C   UNL     1      34.502 -19.054 -23.899  0.00  0.00    +0.003 C 
ATOM     32  C   UNL     1      35.004 -17.335 -22.278  0.00  0.00    +0.003 C 
ATOM     33  C   UNL     1      34.525 -18.101 -24.917  0.00  0.00    +0.030 C 
ATOM     34  C   UNL     1      35.027 -16.382 -23.295  0.00  0.00    +0.030 C 
ATOM     35  C   UNL     1      34.787 -16.765 -24.615  0.00  0.00    +0.140 C 
ENDBRANCH  27  30
ENDBRANCH  23  25
ENDBRANCH   4  23
TORSDOF 9
ENDMDL
MODEL 5
REMARK VINA RESULT:     -11.7     11.145     16.101
REMARK  Name = 24812758
REMARK  9 active torsions:
REMARK  status: ('A' for Active; 'I' for Inactive)
REMARK    1  A    between atoms: C_1  and  C_11
REMARK    2  A    between atoms: C_4  and  C_23
REMARK    3  A    between atoms: C_9  and  O_14
REMARK    4  A    between atoms: C_10  and  O_16
REMARK    5  A    between atoms: C_12  and  O_18
REMARK    6  A    between atoms: C_13  and  C_20
REMARK    7  A    between atoms: C_20  and  O_21
REMARK    8  A    between atoms: C_23  and  C_25
REMARK    9  A    between atoms: C_27  and  C_30
REMARK                            x       y       z     vdW  Elec       q    Type
REMARK                         _______ _______ _______ _____ _____    ______ ____
ROOT
ATOM      1  C   UNL     1      32.905  -7.567 -21.932  0.00  0.00    +0.007 C 
ATOM      2  C   UNL     1      32.361  -8.751 -22.428  0.00  0.00    -0.006 C 
ATOM      3  C   UNL     1      33.028  -7.378 -20.555  0.00  0.00    -0.002 C 
ATOM      4  C   UNL     1      31.938  -9.747 -21.548  0.00  0.00    -0.021 C 
ATOM      5  C   UNL     1      32.061  -9.559 -20.171  0.00  0.00    -0.025 C 
ATOM      6  C   UNL     1      32.606  -8.375 -19.675  0.00  0.00    -0.005 C 
ATOM      7  C   UNL     1      31.617 -10.611 -19.209  0.00  0.00    +0.031 C 
ENDROOT
BRANCH   1  11
ATOM      8  O   UNL     1      32.200  -5.943 -23.523  0.00  0.00    -0.347 OA
ATOM      9  C   UNL     1      34.355  -7.021 -23.932  0.00  0.00    +0.171 C 
ATOM     10  C   UNL     1      34.680  -5.954 -24.982  0.00  0.00    +0.169 C 
ATOM     11  C   UNL     1      33.364  -6.484 -22.889  0.00  0.00    +0.167 C 
ATOM     12  C   UNL     1      33.408  -5.306 -25.527  0.00  0.00    +0.169 C 
ATOM     13  C   UNL     1      32.500  -4.844 -24.385  0.00  0.00    +0.174 C 
BRANCH   9  14
ATOM     14  O   UNL     1      35.560  -7.398 -23.266  0.00  0.00    -0.379 OA
ATOM     15  H   UNL     1      35.453  -7.275 -22.310  0.00  0.00    +0.211 HD
ENDBRANCH   9  14
BRANCH  10  16
ATOM     16  O   UNL     1      35.371  -6.558 -26.076  0.00  0.00    -0.379 OA
ATOM     17  H   UNL     1      35.590  -7.476 -25.852  0.00  0.00    +0.211 HD
ENDBRANCH  10  16
BRANCH  12  18
ATOM     18  O   UNL     1      33.759  -4.183 -26.331  0.00  0.00    -0.379 OA
ATOM     19  H   UNL     1      33.099  -3.481 -26.211  0.00  0.00    +0.211 HD
ENDBRANCH  12  18
BRANCH  13  20
ATOM     20  C   UNL     1      31.175  -4.294 -24.903  0.00  0.00    +0.169 C 
BRANCH  20  21
ATOM     21  O   UNL     1      30.556  -3.558 -23.863  0.00  0.00    -0.379 OA
ATOM     22  H   UNL     1      30.844  -3.905 -23.004  0.00  0.00    +0.211 HD
ENDBRANCH  20  21
ENDBRANCH  13  20
ENDBRANCH   1  11
BRANCH   4  23
ATOM     23  C   UNL     1      31.359 -11.007 -22.102  0.00  0.00    +0.059 C 
BRANCH  23  25
ATOM     24  S   UNL     1      32.532 -13.518 -21.790  0.00  0.00    -0.091 S 
ATOM     25  C   UNL     1      32.398 -12.002 -22.576  0.00  0.00    +0.012 C 
ATOM     26  C   UNL     1      33.304 -11.871 -23.605  0.00  0.00    +0.003 C 
ATOM     27  C   UNL     1      33.806 -14.002 -22.826  0.00  0.00    +0.029 C 
ATOM     28  C   UNL     1      34.120 -13.030 -23.750  0.00  0.00    +0.007 C 
BRANCH  27  30
ATOM     29  F   UNL     1      36.086 -19.038 -22.117  0.00  0.00    -0.204 F 
ATOM     30  C   UNL     1      34.397 -15.307 -22.643  0.00  0.00    +0.006 C 
ATOM     31  C   UNL     1      34.614 -15.800 -21.355  0.00  0.00    +0.003 C 
ATOM     32  C   UNL     1      34.752 -16.075 -23.752  0.00  0.00    +0.003 C 
ATOM     33  C   UNL     1      35.184 -17.060 -21.178  0.00  0.00    +0.030 C 
ATOM     34  C   UNL     1      35.322 -17.335 -23.574  0.00  0.00    +0.030 C 
ATOM     35  C   UNL     1      35.538 -17.828 -22.287  0.00  0.00    +0.140 C 
ENDBRANCH  27  30
ENDBRANCH  23  25
ENDBRANCH   4  23
TORSDOF 9
ENDMDL
MODEL 6
REMARK VINA RESULT:     -11.7      9.755     13.937
REMARK  Name = 24812758
REMARK  9 active torsions:
REMARK  status: ('A' for Active; 'I' for Inactive)
REMARK    1  A    between atoms: C_1  and  C_11
REMARK    2  A    between atoms: C_4  and  C_23
REMARK    3  A    between atoms: C_9  and  O_14
REMARK    4  A    between atoms: C_10  and  O_16
REMARK    5  A    between atoms: C_12  and  O_18
REMARK    6  A    between atoms: C_13  and  C_20
REMARK    7  A    between atoms: C_20  and  O_21
REMARK    8  A    between atoms: C_23  and  C_25
REMARK    9  A    between atoms: C_27  and  C_30
REMARK                            x       y       z     vdW  Elec       q    Type
REMARK                         _______ _______ _______ _____ _____    ______ ____
ROOT
ATOM      1  C   UNL     1      32.595 -13.470 -22.394  0.00  0.00    +0.007 C 
ATOM      2  C   UNL     1      32.034 -12.281 -22.861  0.00  0.00    -0.006 C 
ATOM      3  C   UNL     1      32.832 -13.641 -21.030  0.00  0.00    -0.002 C 
ATOM      4  C   UNL     1      31.711 -11.263 -21.965  0.00  0.00    -0.021 C 
ATOM      5  C   UNL     1      31.948 -11.434 -20.601  0.00  0.00    -0.025 C 
ATOM      6  C   UNL     1      32.509 -12.622 -20.134  0.00  0.00    -0.005 C 
ATOM      7  C   UNL     1      31.610 -10.358 -19.621  0.00  0.00    +0.031 C 
ENDROOT
BRANCH   1  11
ATOM      8  O   UNL     1      34.132 -15.219 -22.887  0.00  0.00    -0.347 OA
ATOM      9  C   UNL     1      33.156 -14.043 -24.794  0.00  0.00    +0.171 C 
ATOM     10  C   UNL     1      33.666 -15.147 -25.725  0.00  0.00    +0.169 C 
ATOM     11  C   UNL     1      32.947 -14.576 -23.369  0.00  0.00    +0.167 C 
ATOM     12  C   UNL     1      34.843 -15.897 -25.104  0.00  0.00    +0.169 C 
ATOM     13  C   UNL     1      34.511 -16.346 -23.679  0.00  0.00    +0.174 C 
BRANCH   9  14
ATOM     14  O   UNL     1      31.907 -13.559 -25.289  0.00  0.00    -0.379 OA
ATOM     15  H   UNL     1      31.790 -12.634 -25.021  0.00  0.00    +0.211 HD
ENDBRANCH   9  14
BRANCH  10  16
ATOM     16  O   UNL     1      34.110 -14.566 -26.952  0.00  0.00    -0.379 OA
ATOM     17  H   UNL     1      35.068 -14.692 -27.042  0.00  0.00    +0.211 HD
ENDBRANCH  10  16
BRANCH  12  18
ATOM     18  O   UNL     1      35.143 -17.042 -25.899  0.00  0.00    -0.379 OA
ATOM     19  H   UNL     1      34.389 -17.241 -26.477  0.00  0.00    +0.211 HD
ENDBRANCH  12  18
BRANCH  13  20
ATOM     20  C   UNL     1      35.708 -17.001 -22.999  0.00  0.00    +0.169 C 
BRANCH  20  21
ATOM     21  O   UNL     1      35.954 -18.249 -23.623  0.00  0.00    -0.379 OA
ATOM     22  H   UNL     1      35.946 -18.952 -22.955  0.00  0.00    +0.211 HD
ENDBRANCH  20  21
ENDBRANCH  13  20
ENDBRANCH   1  11
BRANCH   4  23
ATOM     23  C   UNL     1      31.111  -9.999 -22.488  0.00  0.00    +0.059 C 
BRANCH  23  25
ATOM     24  S   UNL     1      31.658  -7.787 -24.096  0.00  0.00    -0.091 S 
ATOM     25  C   UNL     1      32.132  -8.993 -22.977  0.00  0.00    +0.012 C 
ATOM     26  C   UNL     1      33.463  -8.890 -22.639  0.00  0.00    +0.003 C 
ATOM     27  C   UNL     1      33.235  -7.123 -24.132  0.00  0.00    +0.029 C 
ATOM     28  C   UNL     1      34.103  -7.806 -23.309  0.00  0.00    +0.007 C 
BRANCH  27  30
ATOM     29  F   UNL     1      34.228  -2.706 -27.382  0.00  0.00    -0.204 F 
ATOM     30  C   UNL     1      33.493  -5.978 -24.974  0.00  0.00    +0.006 C 
ATOM     31  C   UNL     1      34.664  -5.917 -25.729  0.00  0.00    +0.003 C 
ATOM     32  C   UNL     1      32.570  -4.934 -25.033  0.00  0.00    +0.003 C 
ATOM     33  C   UNL     1      34.913  -4.812 -26.542  0.00  0.00    +0.030 C 
ATOM     34  C   UNL     1      32.818  -3.829 -25.846  0.00  0.00    +0.030 C 
ATOM     35  C   UNL     1      33.990  -3.768 -26.601  0.00  0.00    +0.140 C 
ENDBRANCH  27  30
ENDBRANCH  23  25
ENDBRANCH   4  23
TORSDOF 9
ENDMDL
MODEL 7
REMARK VINA RESULT:     -11.5      5.660      9.737
REMARK  Name = 24812758
REMARK  9 active torsions:
REMARK  status: ('A' for Active; 'I' for Inactive)
REMARK    1  A    between atoms: C_1  and  C_11
REMARK    2  A    between atoms: C_4  and  C_23
REMARK    3  A    between atoms: C_9  and  O_14
REMARK    4  A    between atoms: C_10  and  O_16
REMARK    5  A    between atoms: C_12  and  O_18
REMARK    6  A    between atoms: C_13  and  C_20
REMARK    7  A    between atoms: C_20  and  O_21
REMARK    8  A    between atoms: C_23  and  C_25
REMARK    9  A    between atoms: C_27  and  C_30
REMARK                            x       y       z     vdW  Elec       q    Type
REMARK                         _______ _______ _______ _____ _____    ______ ____
ROOT
ATOM      1  C   UNL     1      34.846 -18.366 -23.546  0.00  0.00    +0.007 C 
ATOM      2  C   UNL     1      35.066 -16.993 -23.441  0.00  0.00    -0.006 C 
ATOM      3  C   UNL     1      34.037 -18.866 -24.567  0.00  0.00    -0.002 C 
ATOM      4  C   UNL     1      34.477 -16.119 -24.354  0.00  0.00    -0.021 C 
ATOM      5  C   UNL     1      33.668 -16.619 -25.375  0.00  0.00    -0.025 C 
ATOM      6  C   UNL     1      33.448 -17.992 -25.481  0.00  0.00    -0.005 C 
ATOM      7  C   UNL     1      33.027 -15.704 -26.367  0.00  0.00    +0.031 C 
ENDROOT
BRANCH   1  11
ATOM      8  O   UNL     1      34.456 -19.785 -21.676  0.00  0.00    -0.347 OA
ATOM      9  C   UNL     1      36.614 -18.640 -21.757  0.00  0.00    +0.171 C 
ATOM     10  C   UNL     1      37.135 -19.564 -20.653  0.00  0.00    +0.169 C 
ATOM     11  C   UNL     1      35.486 -19.315 -22.552  0.00  0.00    +0.167 C 
ATOM     12  C   UNL     1      35.988 -20.152 -19.833  0.00  0.00    +0.169 C 
ATOM     13  C   UNL     1      34.925 -20.764 -20.747  0.00  0.00    +0.174 C 
BRANCH   9  14
ATOM     14  O   UNL     1      37.684 -18.336 -22.651  0.00  0.00    -0.379 OA
ATOM     15  H   UNL     1      37.430 -17.590 -23.218  0.00  0.00    +0.211 HD
ENDBRANCH   9  14
BRANCH  10  16
ATOM     16  O   UNL     1      37.974 -18.819 -19.768  0.00  0.00    -0.379 OA
ATOM     17  H   UNL     1      37.608 -17.929 -19.648  0.00  0.00    +0.211 HD
ENDBRANCH  10  16
BRANCH  12  18
ATOM     18  O   UNL     1      36.499 -21.162 -18.966  0.00  0.00    -0.379 OA
ATOM     19  H   UNL     1      37.447 -21.283 -19.135  0.00  0.00    +0.211 HD
ENDBRANCH  12  18
BRANCH  13  20
ATOM     20  C   UNL     1      33.718 -21.260 -19.958  0.00  0.00    +0.169 C 
BRANCH  20  21
ATOM     21  O   UNL     1      32.596 -20.467 -20.303  0.00  0.00    -0.379 OA
ATOM     22  H   UNL     1      32.327 -19.937 -19.536  0.00  0.00    +0.211 HD
ENDBRANCH  20  21
ENDBRANCH  13  20
ENDBRANCH   1  11
BRANCH   4  23
ATOM     23  C   UNL     1      34.727 -14.653 -24.222  0.00  0.00    +0.059 C 
BRANCH  23  25
ATOM     24  S   UNL     1      33.902 -12.270 -23.030  0.00  0.00    -0.091 S 
ATOM     25  C   UNL     1      33.861 -13.976 -23.180  0.00  0.00    +0.012 C 
ATOM     26  C   UNL     1      32.989 -14.553 -22.284  0.00  0.00    +0.003 C 
ATOM     27  C   UNL     1      32.753 -12.301 -21.761  0.00  0.00    +0.029 C 
ATOM     28  C   UNL     1      32.347 -13.582 -21.461  0.00  0.00    +0.007 C 
BRANCH  27  30
ATOM     29  F   UNL     1      31.172  -7.487 -19.440  0.00  0.00    -0.204 F 
ATOM     30  C   UNL     1      32.343 -11.053 -21.160  0.00  0.00    +0.006 C 
ATOM     31  C   UNL     1      32.009 -11.008 -19.806  0.00  0.00    +0.003 C 
ATOM     32  C   UNL     1      32.281  -9.893 -21.932  0.00  0.00    +0.003 C 
ATOM     33  C   UNL     1      31.614  -9.804 -19.225  0.00  0.00    +0.030 C 
ATOM     34  C   UNL     1      31.885  -8.689 -21.351  0.00  0.00    +0.030 C 
ATOM     35  C   UNL     1      31.551  -8.644 -19.997  0.00  0.00    +0.140 C 
ENDBRANCH  27  30
ENDBRANCH  23  25
ENDBRANCH   4  23
TORSDOF 9
ENDMDL
MODEL 8
REMARK VINA RESULT:     -11.5     11.905     16.733
REMARK  Name = 24812758
REMARK  9 active torsions:
REMARK  status: ('A' for Active; 'I' for Inactive)
REMARK    1  A    between atoms: C_1  and  C_11
REMARK    2  A    between atoms: C_4  and  C_23
REMARK    3  A    between atoms: C_9  and  O_14
REMARK    4  A    between atoms: C_10  and  O_16
REMARK    5  A    between atoms: C_12  and  O_18
REMARK    6  A    between atoms: C_13  and  C_20
REMARK    7  A    between atoms: C_20  and  O_21
REMARK    8  A    between atoms: C_23  and  C_25
REMARK    9  A    between atoms: C_27  and  C_30
REMARK                            x       y       z     vdW  Elec       q    Type
REMARK                         _______ _______ _______ _____ _____    ______ ____
ROOT
ATOM      1  C   UNL     1      31.839  -7.172 -22.274  0.00  0.00    +0.007 C 
ATOM      2  C   UNL     1      31.420  -8.473 -22.549  0.00  0.00    -0.006 C 
ATOM      3  C   UNL     1      32.484  -6.887 -21.069  0.00  0.00    -0.002 C 
ATOM      4  C   UNL     1      31.643  -9.490 -21.621  0.00  0.00    -0.021 C 
ATOM      5  C   UNL     1      32.288  -9.205 -20.417  0.00  0.00    -0.025 C 
ATOM      6  C   UNL     1      32.707  -7.904 -20.142  0.00  0.00    -0.005 C 
ATOM      7  C   UNL     1      32.539 -10.277 -19.408  0.00  0.00    +0.031 C 
ENDROOT
BRANCH   1  11
ATOM      8  O   UNL     1      32.721  -6.031 -24.168  0.00  0.00    -0.347 OA
ATOM      9  C   UNL     1      31.391  -4.704 -22.605  0.00  0.00    +0.171 C 
ATOM     10  C   UNL     1      31.308  -3.582 -23.643  0.00  0.00    +0.169 C 
ATOM     11  C   UNL     1      31.596  -6.067 -23.283  0.00  0.00    +0.167 C 
ATOM     12  C   UNL     1      32.453  -3.670 -24.650  0.00  0.00    +0.169 C 
ATOM     13  C   UNL     1      32.563  -5.084 -25.225  0.00  0.00    +0.174 C 
BRANCH   9  14
ATOM     14  O   UNL     1      30.171  -4.742 -21.863  0.00  0.00    -0.379 OA
ATOM     15  H   UNL     1      29.476  -4.285 -22.361  0.00  0.00    +0.211 HD
ENDBRANCH   9  14
BRANCH  10  16
ATOM     16  O   UNL     1      31.397  -2.318 -22.983  0.00  0.00    -0.379 OA
ATOM     17  H   UNL     1      31.939  -2.407 -22.184  0.00  0.00    +0.211 HD
ENDBRANCH  10  16
BRANCH  12  18
ATOM     18  O   UNL     1      32.218  -2.749 -25.712  0.00  0.00    -0.379 OA
ATOM     19  H   UNL     1      32.704  -1.926 -25.539  0.00  0.00    +0.211 HD
ENDBRANCH  12  18
BRANCH  13  20
ATOM     20  C   UNL     1      33.767  -5.226 -26.150  0.00  0.00    +0.169 C 
BRANCH  20  21
ATOM     21  O   UNL     1      33.373  -4.862 -27.461  0.00  0.00    -0.379 OA
ATOM     22  H   UNL     1      32.480  -4.484 -27.438  0.00  0.00    +0.211 HD
ENDBRANCH  20  21
ENDBRANCH  13  20
ENDBRANCH   1  11
BRANCH   4  23
ATOM     23  C   UNL     1      31.185 -10.876 -21.938  0.00  0.00    +0.059 C 
BRANCH  23  25
ATOM     24  S   UNL     1      32.356 -13.391 -22.228  0.00  0.00    -0.091 S 
ATOM     25  C   UNL     1      32.237 -11.727 -22.619  0.00  0.00    +0.012 C 
ATOM     26  C   UNL     1      33.166 -11.350 -23.562  0.00  0.00    +0.003 C 
ATOM     27  C   UNL     1      33.655 -13.609 -23.322  0.00  0.00    +0.029 C 
ATOM     28  C   UNL     1      33.989 -12.441 -23.970  0.00  0.00    +0.007 C 
BRANCH  27  30
ATOM     29  F   UNL     1      35.930 -18.672 -23.827  0.00  0.00    -0.204 F 
ATOM     30  C   UNL     1      34.245 -14.921 -23.452  0.00  0.00    +0.006 C 
ATOM     31  C   UNL     1      34.278 -15.550 -24.697  0.00  0.00    +0.003 C 
ATOM     32  C   UNL     1      34.781 -15.560 -22.334  0.00  0.00    +0.003 C 
ATOM     33  C   UNL     1      34.848 -16.817 -24.824  0.00  0.00    +0.030 C 
ATOM     34  C   UNL     1      35.350 -16.826 -22.461  0.00  0.00    +0.030 C 
ATOM     35  C   UNL     1      35.384 -17.455 -23.706  0.00  0.00    +0.140 C 
ENDBRANCH  27  30
ENDBRANCH  23  25
ENDBRANCH   4  23
TORSDOF 9
ENDMDL
MODEL 9
REMARK VINA RESULT:     -11.3      1.516      2.696
REMARK  Name = 24812758
REMARK  9 active torsions:
REMARK  status: ('A' for Active; 'I' for Inactive)
REMARK    1  A    between atoms: C_1  and  C_11
REMARK    2  A    between atoms: C_4  and  C_23
REMARK    3  A    between atoms: C_9  and  O_14
REMARK    4  A    between atoms: C_10  and  O_16
REMARK    5  A    between atoms: C_12  and  O_18
REMARK    6  A    between atoms: C_13  and  C_20
REMARK    7  A    between atoms: C_20  and  O_21
REMARK    8  A    between atoms: C_23  and  C_25
REMARK    9  A    between atoms: C_27  and  C_30
REMARK                            x       y       z     vdW  Elec       q    Type
REMARK                         _______ _______ _______ _____ _____    ______ ____
ROOT
ATOM      1  C   UNL     1      33.357 -24.019 -14.329  0.00  0.00    +0.007 C 
ATOM      2  C   UNL     1      33.234 -23.825 -15.704  0.00  0.00    -0.006 C 
ATOM      3  C   UNL     1      32.288 -23.719 -13.483  0.00  0.00    -0.002 C 
ATOM      4  C   UNL     1      32.043 -23.331 -16.236  0.00  0.00    -0.021 C 
ATOM      5  C   UNL     1      30.974 -23.030 -15.391  0.00  0.00    -0.025 C 
ATOM      6  C   UNL     1      31.097 -23.224 -14.015  0.00  0.00    -0.005 C 
ATOM      7  C   UNL     1      29.689 -22.501 -15.935  0.00  0.00    +0.031 C 
ENDROOT
BRANCH   1  11
ATOM      8  O   UNL     1      34.624 -24.331 -12.338  0.00  0.00    -0.347 OA
ATOM      9  C   UNL     1      35.883 -23.892 -14.386  0.00  0.00    +0.171 C 
ATOM     10  C   UNL     1      37.169 -24.330 -13.678  0.00  0.00    +0.169 C 
ATOM     11  C   UNL     1      34.652 -24.556 -13.751  0.00  0.00    +0.167 C 
ATOM     12  C   UNL     1      37.039 -24.204 -12.162  0.00  0.00    +0.169 C 
ATOM     13  C   UNL     1      35.759 -24.881 -11.668  0.00  0.00    +0.174 C 
BRANCH   9  14
ATOM     14  O   UNL     1      35.954 -24.278 -15.758  0.00  0.00    -0.379 OA
ATOM     15  H   UNL     1      35.451 -23.648 -16.298  0.00  0.00    +0.211 HD
ENDBRANCH   9  14
BRANCH  10  16
ATOM     16  O   UNL     1      38.250 -23.496 -14.099  0.00  0.00    -0.379 OA
ATOM     17  H   UNL     1      38.642 -23.859 -14.909  0.00  0.00    +0.211 HD
ENDBRANCH  10  16
BRANCH  12  18
ATOM     18  O   UNL     1      38.164 -24.818 -11.540  0.00  0.00    -0.379 OA
ATOM     19  H   UNL     1      38.979 -24.392 -11.853  0.00  0.00    +0.211 HD
ENDBRANCH  12  18
BRANCH  13  20
ATOM     20  C   UNL     1      35.551 -24.674 -10.171  0.00  0.00    +0.169 C 
BRANCH  20  21
ATOM     21  O   UNL     1      36.503 -23.733  -9.709  0.00  0.00    -0.379 OA
ATOM     22  H   UNL     1      36.071 -23.103  -9.111  0.00  0.00    +0.211 HD
ENDBRANCH  20  21
ENDBRANCH  13  20
ENDBRANCH   1  11
BRANCH   4  23
ATOM     23  C   UNL     1      31.934 -23.132 -17.712  0.00  0.00    +0.059 C 
BRANCH  23  25
ATOM     24  S   UNL     1      32.990 -21.357 -19.587  0.00  0.00    -0.091 S 
ATOM     25  C   UNL     1      33.168 -22.517 -18.339  0.00  0.00    +0.012 C 
ATOM     26  C   UNL     1      34.491 -22.757 -18.042  0.00  0.00    +0.003 C 
ATOM     27  C   UNL     1      34.686 -21.175 -19.733  0.00  0.00    +0.029 C 
ATOM     28  C   UNL     1      35.371 -21.980 -18.850  0.00  0.00    +0.007 C 
BRANCH  27  30
ATOM     29  F   UNL     1      36.695 -17.607 -23.513  0.00  0.00    -0.204 F 
ATOM     30  C   UNL     1      35.207 -20.251 -20.713  0.00  0.00    +0.006 C 
ATOM     31  C   UNL     1      34.381 -19.775 -21.732  0.00  0.00    +0.003 C 
ATOM     32  C   UNL     1      36.536 -19.833 -20.641  0.00  0.00    +0.003 C 
ATOM     33  C   UNL     1      34.883 -18.882 -22.677  0.00  0.00    +0.030 C 
ATOM     34  C   UNL     1      37.038 -18.940 -21.587  0.00  0.00    +0.030 C 
ATOM     35  C   UNL     1      36.212 -18.464 -22.605  0.00  0.00    +0.140 C 
ENDBRANCH  27  30
ENDBRANCH  23  25
ENDBRANCH   4  23
TORSDOF 9
ENDMDL
