MODEL 1
REMARK VINA RESULT:     -12.4      0.000      0.000
REMARK  Name = 6852141
REMARK  6 active torsions:
REMARK  status: ('A' for Active; 'I' for Inactive)
REMARK    1  A    between atoms: C_3  and  N_18
REMARK    2  A    between atoms: C_7  and  C_31
REMARK    3  A    between atoms: C_9  and  C_13
REMARK    4  A    between atoms: C_19  and  C_21
REMARK    5  A    between atoms: C_24  and  O_28
REMARK    6  A    between atoms: C_31  and  O_32
REMARK                            x       y       z     vdW  Elec       q    Type
REMARK                         _______ _______ _______ _____ _____    ______ ____
ROOT
ATOM      1  C   UNL     1      32.134 -23.483 -15.762  0.00  0.00    +0.014 C 
ATOM      2  C   UNL     1      31.085 -24.082 -15.026  0.00  0.00    +0.001 C 
ATOM      3  C   UNL     1      31.833 -22.784 -16.943  0.00  0.00    +0.051 C 
ATOM      4  C   UNL     1      33.454 -23.601 -15.298  0.00  0.00    +0.004 C 
ATOM      5  C   UNL     1      29.765 -23.964 -15.489  0.00  0.00    +0.007 C 
ATOM      6  C   UNL     1      30.515 -22.676 -17.388  0.00  0.00    +0.021 C 
ATOM      7  C   UNL     1      29.483 -23.266 -16.664  0.00  0.00    +0.077 C 
ATOM      8  C   UNL     1      31.387 -24.782 -13.845  0.00  0.00    +0.000 C 
ATOM      9  C   UNL     1      33.736 -24.300 -14.123  0.00  0.00    +0.031 C 
ATOM     10  C   UNL     1      32.704 -24.888 -13.398  0.00  0.00    +0.003 C 
ENDROOT
BRANCH   9  13
ATOM     11  N   UNL     1      35.937 -25.448 -14.082  0.00  0.00    -0.343 N 
ATOM     12  N   UNL     1      35.590 -23.521 -12.806  0.00  0.00    -0.285 NA
ATOM     13  C   UNL     1      35.108 -24.412 -13.656  0.00  0.00    +0.117 C 
ATOM     14  H   UNL     1      36.863 -25.505 -13.753  0.00  0.00    +0.144 HD
ATOM     15  H   UNL     1      35.595 -26.124 -14.713  0.00  0.00    +0.144 HD
ATOM     16  H   UNL     1      36.518 -23.595 -12.489  0.00  0.00    +0.188 HD
ENDBRANCH   9  13
BRANCH   3  18
ATOM     17  O   UNL     1      33.616 -23.927 -19.063  0.00  0.00    -0.270 OA
ATOM     18  N   UNL     1      32.829 -22.173 -17.714  0.00  0.00    -0.280 N 
ATOM     19  C   UNL     1      33.634 -22.758 -18.694  0.00  0.00    +0.249 C 
ATOM     20  H   UNL     1      32.980 -21.215 -17.544  0.00  0.00    +0.155 HD
BRANCH  19  21
ATOM     21  C   UNL     1      34.629 -21.849 -19.322  0.00  0.00    +0.053 C 
ATOM     22  C   UNL     1      34.219 -20.883 -20.217  0.00  0.00    +0.016 C 
ATOM     23  C   UNL     1      35.956 -22.012 -18.975  0.00  0.00    +0.004 C 
ATOM     24  C   UNL     1      35.174 -20.043 -20.790  0.00  0.00    +0.130 C 
ATOM     25  C   UNL     1      32.777 -20.719 -20.581  0.00  0.00    +0.034 C 
ATOM     26  C   UNL     1      36.911 -21.173 -19.549  0.00  0.00    +0.003 C 
ATOM     27  C   UNL     1      36.520 -20.189 -20.455  0.00  0.00    +0.036 C 
BRANCH  24  28
ATOM     28  O   UNL     1      34.811 -19.075 -21.678  0.00  0.00    -0.506 OA
ATOM     29  H   UNL     1      34.443 -19.312 -22.506  0.00  0.00    +0.292 HD
ENDBRANCH  24  28
ENDBRANCH  19  21
ENDBRANCH   3  18
BRANCH   7  31
ATOM     30  O   UNL     1      27.469 -24.076 -17.651  0.00  0.00    -0.245 OA
ATOM     31  C   UNL     1      28.110 -23.153 -17.131  0.00  0.00    +0.341 C 
BRANCH  31  32
ATOM     32  O   UNL     1      27.611 -21.895 -16.926  0.00  0.00    -0.441 OA
ATOM     33  C   UNL     1      26.367 -21.582 -17.562  0.00  0.00    +0.256 C 
ENDBRANCH  31  32
ENDBRANCH   7  31
TORSDOF 6
ENDMDL
MODEL 2
REMARK VINA RESULT:     -12.4      2.458      5.359
REMARK  Name = 6852141
REMARK  6 active torsions:
REMARK  status: ('A' for Active; 'I' for Inactive)
REMARK    1  A    between atoms: C_3  and  N_18
REMARK    2  A    between atoms: C_7  and  C_31
REMARK    3  A    between atoms: C_9  and  C_13
REMARK    4  A    between atoms: C_19  and  C_21
REMARK    5  A    between atoms: C_24  and  O_28
REMARK    6  A    between atoms: C_31  and  O_32
REMARK                            x       y       z     vdW  Elec       q    Type
REMARK                         _______ _______ _______ _____ _____    ______ ____
ROOT
ATOM      1  C   UNL     1      32.598 -23.597 -15.615  0.00  0.00    +0.014 C 
ATOM      2  C   UNL     1      32.511 -24.454 -14.493  0.00  0.00    +0.001 C 
ATOM      3  C   UNL     1      33.862 -23.265 -16.129  0.00  0.00    +0.051 C 
ATOM      4  C   UNL     1      31.419 -23.098 -16.191  0.00  0.00    +0.004 C 
ATOM      5  C   UNL     1      33.690 -24.954 -13.916  0.00  0.00    +0.007 C 
ATOM      6  C   UNL     1      35.023 -23.772 -15.544  0.00  0.00    +0.021 C 
ATOM      7  C   UNL     1      34.937 -24.614 -14.440  0.00  0.00    +0.077 C 
ATOM      8  C   UNL     1      31.246 -24.786 -13.978  0.00  0.00    +0.000 C 
ATOM      9  C   UNL     1      30.171 -23.438 -15.667  0.00  0.00    +0.031 C 
ATOM     10  C   UNL     1      30.085 -24.281 -14.564  0.00  0.00    +0.003 C 
ENDROOT
BRANCH   9  13
ATOM     11  N   UNL     1      28.569 -23.293 -17.559  0.00  0.00    -0.343 N 
ATOM     12  N   UNL     1      28.208 -22.052 -15.612  0.00  0.00    -0.285 NA
ATOM     13  C   UNL     1      28.960 -22.912 -16.276  0.00  0.00    +0.117 C 
ATOM     14  H   UNL     1      27.745 -22.926 -17.952  0.00  0.00    +0.144 HD
ATOM     15  H   UNL     1      29.118 -23.931 -18.071  0.00  0.00    +0.144 HD
ATOM     16  H   UNL     1      27.388 -21.695 -16.022  0.00  0.00    +0.188 HD
ENDBRANCH   9  13
BRANCH   3  18
ATOM     17  O   UNL     1      33.888 -23.898 -19.058  0.00  0.00    -0.270 OA
ATOM     18  N   UNL     1      34.011 -22.421 -17.237  0.00  0.00    -0.280 N 
ATOM     19  C   UNL     1      34.015 -22.774 -18.589  0.00  0.00    +0.249 C 
ATOM     20  H   UNL     1      34.127 -21.464 -17.038  0.00  0.00    +0.155 HD
BRANCH  19  21
ATOM     21  C   UNL     1      34.225 -21.647 -19.536  0.00  0.00    +0.053 C 
ATOM     22  C   UNL     1      35.495 -21.160 -19.765  0.00  0.00    +0.016 C 
ATOM     23  C   UNL     1      33.113 -21.121 -20.163  0.00  0.00    +0.004 C 
ATOM     24  C   UNL     1      35.661 -20.102 -20.660  0.00  0.00    +0.130 C 
ATOM     25  C   UNL     1      36.689 -21.742 -19.078  0.00  0.00    +0.034 C 
ATOM     26  C   UNL     1      33.279 -20.063 -21.057  0.00  0.00    +0.003 C 
ATOM     27  C   UNL     1      34.554 -19.555 -21.305  0.00  0.00    +0.036 C 
BRANCH  24  28
ATOM     28  O   UNL     1      36.899 -19.592 -20.916  0.00  0.00    -0.506 OA
ATOM     29  H   UNL     1      36.984 -18.751 -21.320  0.00  0.00    +0.292 HD
ENDBRANCH  24  28
ENDBRANCH  19  21
ENDBRANCH   3  18
BRANCH   7  31
ATOM     30  O   UNL     1      36.318 -25.281 -12.612  0.00  0.00    -0.245 OA
ATOM     31  C   UNL     1      36.150 -25.140 -13.831  0.00  0.00    +0.341 C 
BRANCH  31  32
ATOM     32  O   UNL     1      37.087 -25.463 -14.775  0.00  0.00    -0.441 OA
ATOM     33  C   UNL     1      37.235 -26.851 -15.091  0.00  0.00    +0.256 C 
ENDBRANCH  31  32
ENDBRANCH   7  31
TORSDOF 6
ENDMDL
MODEL 3
REMARK VINA RESULT:     -12.1      1.402      2.175
REMARK  Name = 6852141
REMARK  6 active torsions:
REMARK  status: ('A' for Active; 'I' for Inactive)
REMARK    1  A    between atoms: C_3  and  N_18
REMARK    2  A    between atoms: C_7  and  C_31
REMARK    3  A    between atoms: C_9  and  C_13
REMARK    4  A    between atoms: C_19  and  C_21
REMARK    5  A    between atoms: C_24  and  O_28
REMARK    6  A    between atoms: C_31  and  O_32
REMARK                            x       y       z     vdW  Elec       q    Type
REMARK                         _______ _______ _______ _____ _____    ______ ____
ROOT
ATOM      1  C   UNL     1      33.369 -23.491 -15.614  0.00  0.00    +0.014 C 
ATOM      2  C   UNL     1      32.807 -24.294 -14.594  0.00  0.00    +0.001 C 
ATOM      3  C   UNL     1      32.537 -22.984 -16.626  0.00  0.00    +0.051 C 
ATOM      4  C   UNL     1      34.746 -23.219 -15.593  0.00  0.00    +0.004 C 
ATOM      5  C   UNL     1      31.429 -24.567 -14.614  0.00  0.00    +0.007 C 
ATOM      6  C   UNL     1      31.171 -23.264 -16.630  0.00  0.00    +0.021 C 
ATOM      7  C   UNL     1      30.618 -24.055 -15.627  0.00  0.00    +0.077 C 
ATOM      8  C   UNL     1      33.639 -24.802 -13.583  0.00  0.00    +0.000 C 
ATOM      9  C   UNL     1      35.558 -23.732 -14.581  0.00  0.00    +0.031 C 
ATOM     10  C   UNL     1      35.005 -24.521 -13.577  0.00  0.00    +0.003 C 
ENDROOT
BRANCH   9  13
ATOM     11  N   UNL     1      37.742 -23.503 -15.740  0.00  0.00    -0.343 N 
ATOM     12  N   UNL     1      37.582 -23.110 -13.442  0.00  0.00    -0.285 NA
ATOM     13  C   UNL     1      36.982 -23.439 -14.573  0.00  0.00    +0.117 C 
ATOM     14  H   UNL     1      38.704 -23.301 -15.713  0.00  0.00    +0.144 HD
ATOM     15  H   UNL     1      37.314 -23.750 -16.593  0.00  0.00    +0.144 HD
ATOM     16  H   UNL     1      38.545 -22.912 -13.435  0.00  0.00    +0.188 HD
ENDBRANCH   9  13
BRANCH   3  18
ATOM     17  O   UNL     1      33.858 -23.757 -19.204  0.00  0.00    -0.270 OA
ATOM     18  N   UNL     1      33.037 -22.186 -17.662  0.00  0.00    -0.280 N 
ATOM     19  C   UNL     1      33.647 -22.603 -18.849  0.00  0.00    +0.249 C 
ATOM     20  H   UNL     1      32.949 -21.213 -17.539  0.00  0.00    +0.155 HD
BRANCH  19  21
ATOM     21  C   UNL     1      34.103 -21.508 -19.745  0.00  0.00    +0.053 C 
ATOM     22  C   UNL     1      35.427 -21.120 -19.749  0.00  0.00    +0.016 C 
ATOM     23  C   UNL     1      33.160 -20.910 -20.557  0.00  0.00    +0.004 C 
ATOM     24  C   UNL     1      35.826 -20.089 -20.600  0.00  0.00    +0.130 C 
ATOM     25  C   UNL     1      36.436 -21.779 -18.863  0.00  0.00    +0.034 C 
ATOM     26  C   UNL     1      33.559 -19.879 -21.409  0.00  0.00    +0.003 C 
ATOM     27  C   UNL     1      34.892 -19.470 -21.430  0.00  0.00    +0.036 C 
BRANCH  24  28
ATOM     28  O   UNL     1      37.124 -19.676 -20.637  0.00  0.00    -0.506 OA
ATOM     29  H   UNL     1      37.753 -20.151 -21.144  0.00  0.00    +0.292 HD
ENDBRANCH  24  28
ENDBRANCH  19  21
ENDBRANCH   3  18
BRANCH   7  31
ATOM     30  O   UNL     1      28.644 -25.184 -14.905  0.00  0.00    -0.245 OA
ATOM     31  C   UNL     1      29.192 -24.346 -15.635  0.00  0.00    +0.341 C 
BRANCH  31  32
ATOM     32  O   UNL     1      28.526 -23.577 -16.550  0.00  0.00    -0.441 OA
ATOM     33  C   UNL     1      27.541 -22.672 -16.039  0.00  0.00    +0.256 C 
ENDBRANCH  31  32
ENDBRANCH   7  31
TORSDOF 6
ENDMDL
MODEL 4
REMARK VINA RESULT:     -11.7      2.800      7.910
REMARK  Name = 6852141
REMARK  6 active torsions:
REMARK  status: ('A' for Active; 'I' for Inactive)
REMARK    1  A    between atoms: C_3  and  N_18
REMARK    2  A    between atoms: C_7  and  C_31
REMARK    3  A    between atoms: C_9  and  C_13
REMARK    4  A    between atoms: C_19  and  C_21
REMARK    5  A    between atoms: C_24  and  O_28
REMARK    6  A    between atoms: C_31  and  O_32
REMARK                            x       y       z     vdW  Elec       q    Type
REMARK                         _______ _______ _______ _____ _____    ______ ____
ROOT
ATOM      1  C   UNL     1      35.039 -22.490 -17.536  0.00  0.00    +0.014 C 
ATOM      2  C   UNL     1      36.436 -22.263 -17.536  0.00  0.00    +0.001 C 
ATOM      3  C   UNL     1      34.466 -23.241 -16.497  0.00  0.00    +0.051 C 
ATOM      4  C   UNL     1      34.257 -21.960 -18.575  0.00  0.00    +0.004 C 
ATOM      5  C   UNL     1      37.219 -22.792 -16.497  0.00  0.00    +0.007 C 
ATOM      6  C   UNL     1      35.259 -23.759 -15.472  0.00  0.00    +0.021 C 
ATOM      7  C   UNL     1      36.632 -23.535 -15.473  0.00  0.00    +0.077 C 
ATOM      8  C   UNL     1      37.010 -21.512 -18.576  0.00  0.00    +0.000 C 
ATOM      9  C   UNL     1      34.844 -21.217 -19.600  0.00  0.00    +0.031 C 
ATOM     10  C   UNL     1      36.217 -20.993 -19.600  0.00  0.00    +0.003 C 
ENDROOT
BRANCH   9  13
ATOM     11  N   UNL     1      34.582 -19.981 -21.737  0.00  0.00    -0.343 N 
ATOM     12  N   UNL     1      32.707 -20.833 -20.632  0.00  0.00    -0.285 NA
ATOM     13  C   UNL     1      34.019 -20.675 -20.668  0.00  0.00    +0.117 C 
ATOM     14  H   UNL     1      34.006 -19.622 -22.449  0.00  0.00    +0.144 HD
ATOM     15  H   UNL     1      35.558 -19.850 -21.780  0.00  0.00    +0.144 HD
ATOM     16  H   UNL     1      32.148 -20.466 -21.354  0.00  0.00    +0.188 HD
ENDBRANCH   9  13
BRANCH   3  18
ATOM     17  O   UNL     1      32.396 -22.327 -14.531  0.00  0.00    -0.270 OA
ATOM     18  N   UNL     1      33.090 -23.499 -16.444  0.00  0.00    -0.280 N 
ATOM     19  C   UNL     1      32.168 -23.044 -15.498  0.00  0.00    +0.249 C 
ATOM     20  H   UNL     1      32.731 -24.072 -17.160  0.00  0.00    +0.155 HD
BRANCH  19  21
ATOM     21  C   UNL     1      30.773 -23.517 -15.696  0.00  0.00    +0.053 C 
ATOM     22  C   UNL     1      30.279 -24.560 -14.940  0.00  0.00    +0.016 C 
ATOM     23  C   UNL     1      30.008 -22.879 -16.653  0.00  0.00    +0.004 C 
ATOM     24  C   UNL     1      28.966 -24.983 -15.147  0.00  0.00    +0.130 C 
ATOM     25  C   UNL     1      31.121 -25.240 -13.907  0.00  0.00    +0.034 C 
ATOM     26  C   UNL     1      28.695 -23.302 -16.860  0.00  0.00    +0.003 C 
ATOM     27  C   UNL     1      28.175 -24.353 -16.107  0.00  0.00    +0.036 C 
BRANCH  24  28
ATOM     28  O   UNL     1      28.439 -26.008 -14.420  0.00  0.00    -0.506 OA
ATOM     29  H   UNL     1      27.510 -26.121 -14.375  0.00  0.00    +0.292 HD
ENDBRANCH  24  28
ENDBRANCH  19  21
ENDBRANCH   3  18
BRANCH   7  31
ATOM     30  O   UNL     1      37.782 -25.268 -14.305  0.00  0.00    -0.245 OA
ATOM     31  C   UNL     1      37.457 -24.077 -14.403  0.00  0.00    +0.341 C 
BRANCH  31  32
ATOM     32  O   UNL     1      37.831 -23.106 -13.515  0.00  0.00    -0.441 OA
ATOM     33  C   UNL     1      37.191 -23.119 -12.235  0.00  0.00    +0.256 C 
ENDBRANCH  31  32
ENDBRANCH   7  31
TORSDOF 6
ENDMDL
MODEL 5
REMARK VINA RESULT:     -11.3      3.196      7.818
REMARK  Name = 6852141
REMARK  6 active torsions:
REMARK  status: ('A' for Active; 'I' for Inactive)
REMARK    1  A    between atoms: C_3  and  N_18
REMARK    2  A    between atoms: C_7  and  C_31
REMARK    3  A    between atoms: C_9  and  C_13
REMARK    4  A    between atoms: C_19  and  C_21
REMARK    5  A    between atoms: C_24  and  O_28
REMARK    6  A    between atoms: C_31  and  O_32
REMARK                            x       y       z     vdW  Elec       q    Type
REMARK                         _______ _______ _______ _____ _____    ______ ____
ROOT
ATOM      1  C   UNL     1      35.425 -22.978 -15.851  0.00  0.00    +0.014 C 
ATOM      2  C   UNL     1      36.775 -22.762 -15.485  0.00  0.00    +0.001 C 
ATOM      3  C   UNL     1      34.545 -23.553 -14.919  0.00  0.00    +0.051 C 
ATOM      4  C   UNL     1      34.996 -22.615 -17.137  0.00  0.00    +0.004 C 
ATOM      5  C   UNL     1      37.205 -23.125 -14.198  0.00  0.00    +0.007 C 
ATOM      6  C   UNL     1      34.989 -23.907 -13.645  0.00  0.00    +0.021 C 
ATOM      7  C   UNL     1      36.317 -23.694 -13.286  0.00  0.00    +0.077 C 
ATOM      8  C   UNL     1      37.655 -22.188 -16.417  0.00  0.00    +0.000 C 
ATOM      9  C   UNL     1      35.884 -22.046 -18.050  0.00  0.00    +0.031 C 
ATOM     10  C   UNL     1      37.211 -21.832 -17.690  0.00  0.00    +0.003 C 
ENDROOT
BRANCH   9  13
ATOM     11  N   UNL     1      34.119 -21.942 -19.794  0.00  0.00    -0.343 N 
ATOM     12  N   UNL     1      36.248 -21.074 -20.219  0.00  0.00    -0.285 NA
ATOM     13  C   UNL     1      35.423 -21.674 -19.378  0.00  0.00    +0.117 C 
ATOM     14  H   UNL     1      33.828 -21.682 -20.697  0.00  0.00    +0.144 HD
ATOM     15  H   UNL     1      33.491 -22.391 -19.183  0.00  0.00    +0.144 HD
ATOM     16  H   UNL     1      35.937 -20.822 -21.118  0.00  0.00    +0.188 HD
ENDBRANCH   9  13
BRANCH   3  18
ATOM     17  O   UNL     1      32.088 -21.989 -14.209  0.00  0.00    -0.270 OA
ATOM     18  N   UNL     1      33.199 -23.792 -15.225  0.00  0.00    -0.280 N 
ATOM     19  C   UNL     1      32.089 -23.024 -14.865  0.00  0.00    +0.249 C 
ATOM     20  H   UNL     1      33.014 -24.599 -15.757  0.00  0.00    +0.155 HD
BRANCH  19  21
ATOM     21  C   UNL     1      30.777 -23.558 -15.317  0.00  0.00    +0.053 C 
ATOM     22  C   UNL     1      30.180 -24.600 -14.639  0.00  0.00    +0.016 C 
ATOM     23  C   UNL     1      30.194 -22.974 -16.425  0.00  0.00    +0.004 C 
ATOM     24  C   UNL     1      28.949 -25.081 -15.086  0.00  0.00    +0.130 C 
ATOM     25  C   UNL     1      30.825 -25.221 -13.440  0.00  0.00    +0.034 C 
ATOM     26  C   UNL     1      28.963 -23.455 -16.872  0.00  0.00    +0.003 C 
ATOM     27  C   UNL     1      28.341 -24.507 -16.202  0.00  0.00    +0.036 C 
BRANCH  24  28
ATOM     28  O   UNL     1      28.325 -26.108 -14.444  0.00  0.00    -0.506 OA
ATOM     29  H   UNL     1      28.602 -26.361 -13.585  0.00  0.00    +0.292 HD
ENDBRANCH  24  28
ENDBRANCH  19  21
ENDBRANCH   3  18
BRANCH   7  31
ATOM     30  O   UNL     1      37.297 -23.281 -11.151  0.00  0.00    -0.245 OA
ATOM     31  C   UNL     1      36.778 -24.065 -11.956  0.00  0.00    +0.341 C 
BRANCH  31  32
ATOM     32  O   UNL     1      36.566 -25.393 -11.703  0.00  0.00    -0.441 OA
ATOM     33  C   UNL     1      37.431 -26.323 -12.363  0.00  0.00    +0.256 C 
ENDBRANCH  31  32
ENDBRANCH   7  31
TORSDOF 6
ENDMDL
MODEL 6
REMARK VINA RESULT:     -11.1      3.217      6.482
REMARK  Name = 6852141
REMARK  6 active torsions:
REMARK  status: ('A' for Active; 'I' for Inactive)
REMARK    1  A    between atoms: C_3  and  N_18
REMARK    2  A    between atoms: C_7  and  C_31
REMARK    3  A    between atoms: C_9  and  C_13
REMARK    4  A    between atoms: C_19  and  C_21
REMARK    5  A    between atoms: C_24  and  O_28
REMARK    6  A    between atoms: C_31  and  O_32
REMARK                            x       y       z     vdW  Elec       q    Type
REMARK                         _______ _______ _______ _____ _____    ______ ____
ROOT
ATOM      1  C   UNL     1      33.518 -23.257 -16.744  0.00  0.00    +0.014 C 
ATOM      2  C   UNL     1      32.541 -22.641 -17.560  0.00  0.00    +0.001 C 
ATOM      3  C   UNL     1      34.876 -23.123 -17.078  0.00  0.00    +0.051 C 
ATOM      4  C   UNL     1      33.110 -23.991 -15.618  0.00  0.00    +0.004 C 
ATOM      5  C   UNL     1      32.948 -21.907 -18.686  0.00  0.00    +0.007 C 
ATOM      6  C   UNL     1      35.263 -22.390 -18.200  0.00  0.00    +0.021 C 
ATOM      7  C   UNL     1      34.301 -21.784 -19.003  0.00  0.00    +0.077 C 
ATOM      8  C   UNL     1      31.183 -22.776 -17.227  0.00  0.00    +0.000 C 
ATOM      9  C   UNL     1      31.757 -24.114 -15.302  0.00  0.00    +0.031 C 
ATOM     10  C   UNL     1      30.795 -23.507 -16.104  0.00  0.00    +0.003 C 
ENDROOT
BRANCH   9  13
ATOM     11  N   UNL     1      30.038 -25.316 -13.972  0.00  0.00    -0.343 N 
ATOM     12  N   UNL     1      32.235 -25.160 -13.191  0.00  0.00    -0.285 NA
ATOM     13  C   UNL     1      31.351 -24.876 -14.132  0.00  0.00    +0.117 C 
ATOM     14  H   UNL     1      29.784 -25.831 -13.173  0.00  0.00    +0.144 HD
ATOM     15  H   UNL     1      29.363 -25.111 -14.661  0.00  0.00    +0.144 HD
ATOM     16  H   UNL     1      31.962 -25.676 -12.399  0.00  0.00    +0.188 HD
ENDBRANCH   9  13
BRANCH   3  18
ATOM     17  O   UNL     1      37.341 -21.920 -15.870  0.00  0.00    -0.270 OA
ATOM     18  N   UNL     1      35.887 -23.712 -16.309  0.00  0.00    -0.280 N 
ATOM     19  C   UNL     1      37.021 -23.098 -15.769  0.00  0.00    +0.249 C 
ATOM     20  H   UNL     1      35.788 -24.674 -16.128  0.00  0.00    +0.155 HD
BRANCH  19  21
ATOM     21  C   UNL     1      37.932 -24.002 -15.019  0.00  0.00    +0.053 C 
ATOM     22  C   UNL     1      37.561 -24.494 -13.784  0.00  0.00    +0.016 C 
ATOM     23  C   UNL     1      39.143 -24.320 -15.601  0.00  0.00    +0.004 C 
ATOM     24  C   UNL     1      38.436 -25.340 -13.103  0.00  0.00    +0.130 C 
ATOM     25  C   UNL     1      36.245 -24.139 -13.167  0.00  0.00    +0.034 C 
ATOM     26  C   UNL     1      40.018 -25.166 -14.920  0.00  0.00    +0.003 C 
ATOM     27  C   UNL     1      39.664 -25.675 -13.671  0.00  0.00    +0.036 C 
BRANCH  24  28
ATOM     28  O   UNL     1      38.108 -25.849 -11.882  0.00  0.00    -0.506 OA
ATOM     29  H   UNL     1      38.758 -25.911 -11.210  0.00  0.00    +0.292 HD
ENDBRANCH  24  28
ENDBRANCH  19  21
ENDBRANCH   3  18
BRANCH   7  31
ATOM     30  O   UNL     1      33.927 -20.422 -20.925  0.00  0.00    -0.245 OA
ATOM     31  C   UNL     1      34.708 -21.020 -20.173  0.00  0.00    +0.341 C 
BRANCH  31  32
ATOM     32  O   UNL     1      36.066 -21.044 -20.342  0.00  0.00    -0.441 OA
ATOM     33  C   UNL     1      36.693 -19.812 -20.715  0.00  0.00    +0.256 C 
ENDBRANCH  31  32
ENDBRANCH   7  31
TORSDOF 6
ENDMDL
MODEL 7
REMARK VINA RESULT:     -10.9      2.178      3.303
REMARK  Name = 6852141
REMARK  6 active torsions:
REMARK  status: ('A' for Active; 'I' for Inactive)
REMARK    1  A    between atoms: C_3  and  N_18
REMARK    2  A    between atoms: C_7  and  C_31
REMARK    3  A    between atoms: C_9  and  C_13
REMARK    4  A    between atoms: C_19  and  C_21
REMARK    5  A    between atoms: C_24  and  O_28
REMARK    6  A    between atoms: C_31  and  O_32
REMARK                            x       y       z     vdW  Elec       q    Type
REMARK                         _______ _______ _______ _____ _____    ______ ____
ROOT
ATOM      1  C   UNL     1      35.346 -23.900 -14.957  0.00  0.00    +0.014 C 
ATOM      2  C   UNL     1      34.896 -24.615 -13.822  0.00  0.00    +0.001 C 
ATOM      3  C   UNL     1      34.420 -23.173 -15.723  0.00  0.00    +0.051 C 
ATOM      4  C   UNL     1      36.709 -23.931 -15.293  0.00  0.00    +0.004 C 
ATOM      5  C   UNL     1      33.533 -24.584 -13.486  0.00  0.00    +0.007 C 
ATOM      6  C   UNL     1      33.069 -23.153 -15.373  0.00  0.00    +0.021 C 
ATOM      7  C   UNL     1      32.627 -23.857 -14.257  0.00  0.00    +0.077 C 
ATOM      8  C   UNL     1      35.823 -25.342 -13.057  0.00  0.00    +0.000 C 
ATOM      9  C   UNL     1      37.616 -24.658 -14.521  0.00  0.00    +0.031 C 
ATOM     10  C   UNL     1      37.174 -25.362 -13.404  0.00  0.00    +0.003 C 
ENDROOT
BRANCH   9  13
ATOM     11  N   UNL     1      39.943 -25.452 -14.173  0.00  0.00    -0.343 N 
ATOM     12  N   UNL     1      39.455 -23.954 -15.899  0.00  0.00    -0.285 NA
ATOM     13  C   UNL     1      39.024 -24.680 -14.882  0.00  0.00    +0.117 C 
ATOM     14  H   UNL     1      40.892 -25.452 -14.435  0.00  0.00    +0.144 HD
ATOM     15  H   UNL     1      39.642 -25.998 -13.410  0.00  0.00    +0.144 HD
ATOM     16  H   UNL     1      40.408 -23.967 -16.145  0.00  0.00    +0.188 HD
ENDBRANCH   9  13
BRANCH   3  18
ATOM     17  O   UNL     1      33.765 -23.605 -18.616  0.00  0.00    -0.270 OA
ATOM     18  N   UNL     1      34.806 -22.448 -16.857  0.00  0.00    -0.280 N 
ATOM     19  C   UNL     1      34.469 -22.697 -18.190  0.00  0.00    +0.249 C 
ATOM     20  H   UNL     1      35.386 -21.669 -16.694  0.00  0.00    +0.155 HD
BRANCH  19  21
ATOM     21  C   UNL     1      35.062 -21.759 -19.178  0.00  0.00    +0.053 C 
ATOM     22  C   UNL     1      34.248 -21.025 -20.016  0.00  0.00    +0.016 C 
ATOM     23  C   UNL     1      36.439 -21.656 -19.219  0.00  0.00    +0.004 C 
ATOM     24  C   UNL     1      34.833 -20.152 -20.934  0.00  0.00    +0.130 C 
ATOM     25  C   UNL     1      32.758 -21.147 -19.958  0.00  0.00    +0.034 C 
ATOM     26  C   UNL     1      37.024 -20.784 -20.137  0.00  0.00    +0.003 C 
ATOM     27  C   UNL     1      36.220 -20.032 -20.993  0.00  0.00    +0.036 C 
BRANCH  24  28
ATOM     28  O   UNL     1      34.064 -19.408 -21.778  0.00  0.00    -0.506 OA
ATOM     29  H   UNL     1      33.138 -19.358 -21.647  0.00  0.00    +0.292 HD
ENDBRANCH  24  28
ENDBRANCH  19  21
ENDBRANCH   3  18
BRANCH   7  31
ATOM     30  O   UNL     1      30.770 -24.193 -12.798  0.00  0.00    -0.245 OA
ATOM     31  C   UNL     1      31.217 -23.834 -13.896  0.00  0.00    +0.341 C 
BRANCH  31  32
ATOM     32  O   UNL     1      30.442 -23.365 -14.921  0.00  0.00    -0.441 OA
ATOM     33  C   UNL     1      29.521 -24.288 -15.511  0.00  0.00    +0.256 C 
ENDBRANCH  31  32
ENDBRANCH   7  31
TORSDOF 6
ENDMDL
