MODEL 1
REMARK VINA RESULT:     -13.5      0.000      0.000
REMARK  Name = 448605
REMARK  6 active torsions:
REMARK  status: ('A' for Active; 'I' for Inactive)
REMARK    1  A    between atoms: C_3  and  N_11
REMARK    2  A    between atoms: C_4  and  C_27
REMARK    3  A    between atoms: C_9  and  C_21
REMARK    4  A    between atoms: N_26  and  C_29
REMARK    5  A    between atoms: C_30  and  C_35
REMARK    6  A    between atoms: C_35  and  N_36
REMARK                            x       y       z     vdW  Elec       q    Type
REMARK                         _______ _______ _______ _____ _____    ______ ____
ROOT
ATOM      1  C   UNL     1      34.301 -23.086 -16.513  0.00  0.00    +0.014 C 
ATOM      2  C   UNL     1      33.343 -22.815 -17.520  0.00  0.00    +0.001 C 
ATOM      3  C   UNL     1      35.635 -22.696 -16.711  0.00  0.00    +0.057 C 
ATOM      4  C   UNL     1      35.080 -21.782 -18.876  0.00  0.00    +0.055 C 
ATOM      5  C   UNL     1      33.749 -22.162 -18.696  0.00  0.00    +0.005 C 
ATOM      6  C   UNL     1      36.021 -22.048 -17.885  0.00  0.00    +0.020 C 
ATOM      7  C   UNL     1      33.895 -23.738 -15.338  0.00  0.00    +0.004 C 
ATOM      8  C   UNL     1      32.009 -23.206 -17.323  0.00  0.00    +0.000 C 
ATOM      9  C   UNL     1      32.564 -24.119 -15.158  0.00  0.00    +0.031 C 
ATOM     10  C   UNL     1      31.623 -23.853 -16.148  0.00  0.00    +0.003 C 
ENDROOT
BRANCH   3  11
ATOM     11  N   UNL     1      36.633 -22.941 -15.736  0.00  0.00    -0.257 N 
ATOM     12  N   UNL     1      36.668 -25.287 -15.681  0.00  0.00    -0.180 NA
ATOM     13  N   UNL     1      38.129 -23.994 -14.266  0.00  0.00    -0.203 NA
ATOM     14  C   UNL     1      37.167 -24.126 -15.205  0.00  0.00    +0.091 C 
ATOM     15  C   UNL     1      37.203 -26.404 -15.148  0.00  0.00    +0.108 C 
ATOM     16  C   UNL     1      38.619 -25.152 -13.777  0.00  0.00    +0.165 C 
ATOM     17  C   UNL     1      38.191 -26.398 -14.184  0.00  0.00    +0.022 C 
ATOM     18  H   UNL     1      37.027 -22.123 -15.358  0.00  0.00    +0.164 HD
ENDBRANCH   3  11
BRANCH   9  21
ATOM     19  N   UNL     1      30.825 -25.112 -13.690  0.00  0.00    -0.343 N 
ATOM     20  N   UNL     1      33.066 -25.113 -13.028  0.00  0.00    -0.285 NA
ATOM     21  C   UNL     1      32.160 -24.794 -13.935  0.00  0.00    +0.117 C 
ATOM     22  H   UNL     1      30.573 -25.569 -12.855  0.00  0.00    +0.144 HD
ATOM     23  H   UNL     1      30.134 -24.880 -14.352  0.00  0.00    +0.144 HD
ATOM     24  H   UNL     1      32.794 -25.570 -12.199  0.00  0.00    +0.188 HD
ENDBRANCH   9  21
BRANCH   4  27
ATOM     25  O   UNL     1      36.476 -21.521 -20.718  0.00  0.00    -0.270 OA
ATOM     26  N   UNL     1      34.679 -20.028 -20.495  0.00  0.00    -0.280 N 
ATOM     27  C   UNL     1      35.483 -21.106 -20.099  0.00  0.00    +0.250 C 
ATOM     28  H   UNL     1      33.925 -19.815 -19.901  0.00  0.00    +0.155 HD
BRANCH  26  29
ATOM     29  C   UNL     1      34.810 -19.205 -21.642  0.00  0.00    +0.051 C 
ATOM     30  C   UNL     1      35.065 -17.597 -23.880  0.00  0.00    -0.044 C 
ATOM     31  C   UNL     1      34.596 -19.753 -22.895  0.00  0.00    +0.014 C 
ATOM     32  C   UNL     1      35.150 -17.873 -21.482  0.00  0.00    +0.014 C 
ATOM     33  C   UNL     1      34.725 -18.943 -24.023  0.00  0.00    -0.005 C 
ATOM     34  C   UNL     1      35.278 -17.063 -22.610  0.00  0.00    -0.005 C 
BRANCH  30  35
ATOM     35  C   UNL     1      35.203 -16.732 -25.087  0.00  0.00    -0.059 C 
BRANCH  35  36
ATOM     36  N   UNL     1      33.952 -16.131 -25.475  0.00  0.00    +0.383 N 
ATOM     37  H   UNL     1      33.777 -16.316 -26.463  0.00  0.00    -0.089 HD
ATOM     38  H   UNL     1      33.997 -15.123 -25.321  0.00  0.00    -0.089 HD
ATOM     39  H   UNL     1      33.197 -16.527 -24.916  0.00  0.00    -0.089 HD
ENDBRANCH  35  36
ENDBRANCH  30  35
ENDBRANCH  26  29
ENDBRANCH   4  27
TORSDOF 6
ENDMDL
MODEL 2
REMARK VINA RESULT:     -13.4      1.707      4.506
REMARK  Name = 448605
REMARK  6 active torsions:
REMARK  status: ('A' for Active; 'I' for Inactive)
REMARK    1  A    between atoms: C_3  and  N_11
REMARK    2  A    between atoms: C_4  and  C_27
REMARK    3  A    between atoms: C_9  and  C_21
REMARK    4  A    between atoms: N_26  and  C_29
REMARK    5  A    between atoms: C_30  and  C_35
REMARK    6  A    between atoms: C_35  and  N_36
REMARK                            x       y       z     vdW  Elec       q    Type
REMARK                         _______ _______ _______ _____ _____    ______ ____
ROOT
ATOM      1  C   UNL     1      35.107 -23.164 -16.703  0.00  0.00    +0.014 C 
ATOM      2  C   UNL     1      36.084 -22.373 -17.356  0.00  0.00    +0.001 C 
ATOM      3  C   UNL     1      33.800 -23.201 -17.214  0.00  0.00    +0.057 C 
ATOM      4  C   UNL     1      34.418 -21.691 -18.993  0.00  0.00    +0.055 C 
ATOM      5  C   UNL     1      35.722 -21.643 -18.501  0.00  0.00    +0.005 C 
ATOM      6  C   UNL     1      33.459 -22.469 -18.352  0.00  0.00    +0.020 C 
ATOM      7  C   UNL     1      35.468 -23.894 -15.560  0.00  0.00    +0.004 C 
ATOM      8  C   UNL     1      37.391 -22.336 -16.845  0.00  0.00    +0.000 C 
ATOM      9  C   UNL     1      36.773 -23.846 -15.066  0.00  0.00    +0.031 C 
ATOM     10  C   UNL     1      37.732 -23.069 -15.708  0.00  0.00    +0.003 C 
ENDROOT
BRANCH   3  11
ATOM     11  N   UNL     1      32.785 -23.976 -16.600  0.00  0.00    -0.257 N 
ATOM     12  N   UNL     1      30.898 -22.618 -16.922  0.00  0.00    -0.180 NA
ATOM     13  N   UNL     1      30.721 -24.732 -15.779  0.00  0.00    -0.203 NA
ATOM     14  C   UNL     1      31.407 -23.766 -16.427  0.00  0.00    +0.091 C 
ATOM     15  C   UNL     1      29.573 -22.450 -16.738  0.00  0.00    +0.108 C 
ATOM     16  C   UNL     1      29.400 -24.498 -15.629  0.00  0.00    +0.165 C 
ATOM     17  C   UNL     1      28.766 -23.364 -16.093  0.00  0.00    +0.022 C 
ATOM     18  H   UNL     1      33.108 -24.825 -16.222  0.00  0.00    +0.164 HD
ENDBRANCH   3  11
BRANCH   9  21
ATOM     19  N   UNL     1      36.371 -25.701 -13.465  0.00  0.00    -0.343 N 
ATOM     20  N   UNL     1      38.192 -24.266 -13.173  0.00  0.00    -0.285 NA
ATOM     21  C   UNL     1      37.131 -24.609 -13.881  0.00  0.00    +0.117 C 
ATOM     22  H   UNL     1      36.631 -26.203 -12.660  0.00  0.00    +0.144 HD
ATOM     23  H   UNL     1      35.574 -25.971 -13.977  0.00  0.00    +0.144 HD
ATOM     24  H   UNL     1      38.436 -24.782 -12.370  0.00  0.00    +0.188 HD
ENDBRANCH   9  21
BRANCH   4  27
ATOM     25  O   UNL     1      32.910 -21.023 -20.633  0.00  0.00    -0.270 OA
ATOM     26  N   UNL     1      35.071 -20.113 -20.708  0.00  0.00    -0.280 N 
ATOM     27  C   UNL     1      34.061 -20.929 -20.180  0.00  0.00    +0.250 C 
ATOM     28  H   UNL     1      35.935 -20.144 -20.240  0.00  0.00    +0.155 HD
BRANCH  26  29
ATOM     29  C   UNL     1      35.010 -19.249 -21.830  0.00  0.00    +0.051 C 
ATOM     30  C   UNL     1      34.889 -17.561 -24.021  0.00  0.00    -0.044 C 
ATOM     31  C   UNL     1      34.870 -19.793 -23.095  0.00  0.00    +0.014 C 
ATOM     32  C   UNL     1      35.091 -17.881 -21.635  0.00  0.00    +0.014 C 
ATOM     33  C   UNL     1      34.809 -18.942 -24.199  0.00  0.00    -0.005 C 
ATOM     34  C   UNL     1      35.030 -17.031 -22.739  0.00  0.00    -0.005 C 
BRANCH  30  35
ATOM     35  C   UNL     1      34.824 -16.653 -25.201  0.00  0.00    -0.059 C 
BRANCH  35  36
ATOM     36  N   UNL     1      33.829 -15.623 -25.046  0.00  0.00    +0.383 N 
ATOM     37  H   UNL     1      33.879 -14.978 -25.835  0.00  0.00    -0.089 HD
ATOM     38  H   UNL     1      33.999 -15.113 -24.179  0.00  0.00    -0.089 HD
ATOM     39  H   UNL     1      32.902 -16.049 -25.013  0.00  0.00    -0.089 HD
ENDBRANCH  35  36
ENDBRANCH  30  35
ENDBRANCH  26  29
ENDBRANCH   4  27
TORSDOF 6
ENDMDL
MODEL 3
REMARK VINA RESULT:     -10.9      3.039      8.248
REMARK  Name = 448605
REMARK  6 active torsions:
REMARK  status: ('A' for Active; 'I' for Inactive)
REMARK    1  A    between atoms: C_3  and  N_11
REMARK    2  A    between atoms: C_4  and  C_27
REMARK    3  A    between atoms: C_9  and  C_21
REMARK    4  A    between atoms: N_26  and  C_29
REMARK    5  A    between atoms: C_30  and  C_35
REMARK    6  A    between atoms: C_35  and  N_36
REMARK                            x       y       z     vdW  Elec       q    Type
REMARK                         _______ _______ _______ _____ _____    ______ ____
ROOT
ATOM      1  C   UNL     1      30.856 -23.067 -16.575  0.00  0.00    +0.014 C 
ATOM      2  C   UNL     1      30.816 -23.810 -15.371  0.00  0.00    +0.001 C 
ATOM      3  C   UNL     1      32.098 -22.751 -17.147  0.00  0.00    +0.057 C 
ATOM      4  C   UNL     1      33.248 -23.890 -15.355  0.00  0.00    +0.055 C 
ATOM      5  C   UNL     1      32.022 -24.214 -14.773  0.00  0.00    +0.005 C 
ATOM      6  C   UNL     1      33.286 -23.160 -16.540  0.00  0.00    +0.020 C 
ATOM      7  C   UNL     1      29.651 -22.664 -17.173  0.00  0.00    +0.004 C 
ATOM      8  C   UNL     1      29.573 -24.126 -14.799  0.00  0.00    +0.000 C 
ATOM      9  C   UNL     1      28.424 -22.987 -16.591  0.00  0.00    +0.031 C 
ATOM     10  C   UNL     1      28.385 -23.717 -15.407  0.00  0.00    +0.003 C 
ENDROOT
BRANCH   3  11
ATOM     11  N   UNL     1      32.195 -22.011 -18.351  0.00  0.00    -0.257 N 
ATOM     12  N   UNL     1      34.517 -21.962 -18.687  0.00  0.00    -0.180 NA
ATOM     13  N   UNL     1      33.019 -20.892 -20.242  0.00  0.00    -0.203 NA
ATOM     14  C   UNL     1      33.292 -21.604 -19.128  0.00  0.00    +0.091 C 
ATOM     15  C   UNL     1      35.547 -21.555 -19.457  0.00  0.00    +0.108 C 
ATOM     16  C   UNL     1      34.095 -20.517 -20.964  0.00  0.00    +0.165 C 
ATOM     17  C   UNL     1      35.395 -20.824 -20.617  0.00  0.00    +0.022 C 
ATOM     18  H   UNL     1      31.325 -21.726 -18.712  0.00  0.00    +0.164 HD
ENDBRANCH   3  11
BRANCH   9  21
ATOM     19  N   UNL     1      26.174 -21.942 -16.491  0.00  0.00    -0.343 N 
ATOM     20  N   UNL     1      27.000 -22.767 -18.515  0.00  0.00    -0.285 NA
ATOM     21  C   UNL     1      27.184 -22.562 -17.223  0.00  0.00    +0.117 C 
ATOM     22  H   UNL     1      25.343 -21.663 -16.938  0.00  0.00    +0.144 HD
ATOM     23  H   UNL     1      26.291 -21.783 -15.526  0.00  0.00    +0.144 HD
ATOM     24  H   UNL     1      26.162 -22.480 -18.944  0.00  0.00    +0.188 HD
ENDBRANCH   9  21
BRANCH   4  27
ATOM     25  O   UNL     1      34.478 -24.614 -13.518  0.00  0.00    -0.270 OA
ATOM     26  N   UNL     1      35.610 -24.376 -15.560  0.00  0.00    -0.280 N 
ATOM     27  C   UNL     1      34.487 -24.316 -14.723  0.00  0.00    +0.250 C 
ATOM     28  H   UNL     1      35.462 -24.107 -16.495  0.00  0.00    +0.155 HD
BRANCH  26  29
ATOM     29  C   UNL     1      36.931 -24.774 -15.235  0.00  0.00    +0.051 C 
ATOM     30  C   UNL     1      39.511 -25.551 -14.601  0.00  0.00    -0.044 C 
ATOM     31  C   UNL     1      37.967 -23.870 -15.394  0.00  0.00    +0.014 C 
ATOM     32  C   UNL     1      37.155 -26.057 -14.767  0.00  0.00    +0.014 C 
ATOM     33  C   UNL     1      39.267 -24.262 -15.075  0.00  0.00    -0.005 C 
ATOM     34  C   UNL     1      38.454 -26.448 -14.448  0.00  0.00    -0.005 C 
BRANCH  30  35
ATOM     35  C   UNL     1      40.901 -25.969 -14.259  0.00  0.00    -0.059 C 
BRANCH  35  36
ATOM     36  N   UNL     1      41.165 -27.338 -14.621  0.00  0.00    +0.383 N 
ATOM     37  H   UNL     1      41.683 -27.795 -13.870  0.00  0.00    -0.089 HD
ATOM     38  H   UNL     1      41.717 -27.363 -15.479  0.00  0.00    -0.089 HD
ATOM     39  H   UNL     1      40.283 -27.827 -14.771  0.00  0.00    -0.089 HD
ENDBRANCH  35  36
ENDBRANCH  30  35
ENDBRANCH  26  29
ENDBRANCH   4  27
TORSDOF 6
ENDMDL
