MODEL 1
REMARK VINA RESULT:     -13.9      0.000      0.000
REMARK  Name = 11840906
REMARK  7 active torsions:
REMARK  status: ('A' for Active; 'I' for Inactive)
REMARK    1  A    between atoms: O_1  and  C_3
REMARK    2  A    between atoms: O_1  and  C_18
REMARK    3  A    between atoms: C_5  and  C_9
REMARK    4  A    between atoms: C_18  and  C_19
REMARK    5  A    between atoms: C_19  and  N_20
REMARK    6  A    between atoms: C_19  and  C_24
REMARK    7  A    between atoms: C_24  and  C_26
REMARK                            x       y       z     vdW  Elec       q    Type
REMARK                         _______ _______ _______ _____ _____    ______ ____
ROOT
ATOM      1  O   UNL     1      34.317 -14.114 -23.876  0.00  0.00    -0.476 OA
ENDROOT
BRANCH   1   3
ATOM      2  N   UNL     1      34.666 -17.224 -25.744  0.00  0.00    -0.239 NA
ATOM      3  C   UNL     1      34.548 -15.440 -24.135  0.00  0.00    +0.158 C 
ATOM      4  C   UNL     1      34.882 -16.308 -23.111  0.00  0.00    +0.040 C 
ATOM      5  C   UNL     1      35.110 -17.648 -23.406  0.00  0.00    +0.022 C 
ATOM      6  C   UNL     1      34.452 -15.929 -25.420  0.00  0.00    +0.136 C 
ATOM      7  C   UNL     1      34.991 -18.051 -24.725  0.00  0.00    +0.099 C 
BRANCH   5   9
ATOM      8  N   UNL     1      35.509 -22.147 -18.765  0.00  0.00    -0.242 NA
ATOM      9  C   UNL     1      35.461 -18.588 -22.367  0.00  0.00    +0.002 C 
ATOM     10  C   UNL     1      34.803 -20.322 -20.789  0.00  0.00    +0.003 C 
ATOM     11  C   UNL     1      34.477 -19.404 -21.801  0.00  0.00    +0.000 C 
ATOM     12  C   UNL     1      36.138 -20.413 -20.349  0.00  0.00    +0.019 C 
ATOM     13  C   UNL     1      36.780 -18.682 -21.927  0.00  0.00    +0.000 C 
ATOM     14  C   UNL     1      37.121 -19.589 -20.923  0.00  0.00    +0.002 C 
ATOM     15  C   UNL     1      33.839 -21.152 -20.204  0.00  0.00    +0.021 C 
ATOM     16  C   UNL     1      36.425 -21.337 -19.343  0.00  0.00    +0.099 C 
ATOM     17  C   UNL     1      34.240 -22.033 -19.212  0.00  0.00    +0.099 C 
ENDBRANCH   5   9
ENDBRANCH   1   3
BRANCH   1  18
ATOM     18  C   UNL     1      33.007 -13.628 -24.143  0.00  0.00    +0.184 C 
BRANCH  18  19
ATOM     19  C   UNL     1      32.680 -12.469 -23.196  0.00  0.00    -0.021 C 
BRANCH  19  20
ATOM     20  N   UNL     1      33.054 -12.856 -21.836  0.00  0.00    +0.384 N 
ATOM     21  H   UNL     1      32.469 -13.635 -21.531  0.00  0.00    -0.089 HD
ATOM     22  H   UNL     1      32.918 -12.064 -21.207  0.00  0.00    -0.089 HD
ATOM     23  H   UNL     1      34.033 -13.139 -21.819  0.00  0.00    -0.089 HD
ENDBRANCH  19  20
BRANCH  19  24
ATOM     24  C   UNL     1      33.403 -11.173 -23.622  0.00  0.00    -0.012 C 
BRANCH  24  26
ATOM     25  N   UNL     1      31.181  -8.549 -23.264  0.00  0.00    -0.270 NA
ATOM     26  C   UNL     1      33.046  -9.964 -22.777  0.00  0.00    +0.046 C 
ATOM     27  C   UNL     1      33.507  -8.663 -23.349  0.00  0.00    -0.007 C 
ATOM     28  C   UNL     1      31.542  -9.707 -22.800  0.00  0.00    +0.130 C 
ATOM     29  C   UNL     1      32.372  -7.885 -23.607  0.00  0.00    +0.071 C 
ATOM     30  C   UNL     1      34.781  -8.197 -23.611  0.00  0.00    -0.024 C 
ATOM     31  C   UNL     1      32.491  -6.613 -24.142  0.00  0.00    +0.014 C 
ATOM     32  C   UNL     1      34.909  -6.916 -24.152  0.00  0.00    +0.052 C 
ATOM     33  C   UNL     1      33.774  -6.131 -24.415  0.00  0.00    -0.020 C 
ENDBRANCH  24  26
ENDBRANCH  19  24
ENDBRANCH  18  19
ENDBRANCH   1  18
TORSDOF 7
ENDMDL
MODEL 2
REMARK VINA RESULT:     -13.7      1.549      2.117
REMARK  Name = 11840906
REMARK  7 active torsions:
REMARK  status: ('A' for Active; 'I' for Inactive)
REMARK    1  A    between atoms: O_1  and  C_3
REMARK    2  A    between atoms: O_1  and  C_18
REMARK    3  A    between atoms: C_5  and  C_9
REMARK    4  A    between atoms: C_18  and  C_19
REMARK    5  A    between atoms: C_19  and  N_20
REMARK    6  A    between atoms: C_19  and  C_24
REMARK    7  A    between atoms: C_24  and  C_26
REMARK                            x       y       z     vdW  Elec       q    Type
REMARK                         _______ _______ _______ _____ _____    ______ ____
ROOT
ATOM      1  O   UNL     1      33.926 -14.274 -23.485  0.00  0.00    -0.476 OA
ENDROOT
BRANCH   1   3
ATOM      2  N   UNL     1      34.787 -17.190 -25.496  0.00  0.00    -0.239 NA
ATOM      3  C   UNL     1      34.327 -15.547 -23.801  0.00  0.00    +0.158 C 
ATOM      4  C   UNL     1      34.665 -16.445 -22.804  0.00  0.00    +0.040 C 
ATOM      5  C   UNL     1      35.068 -17.728 -23.156  0.00  0.00    +0.022 C 
ATOM      6  C   UNL     1      34.400 -15.952 -25.116  0.00  0.00    +0.136 C 
ATOM      7  C   UNL     1      35.111 -18.048 -24.503  0.00  0.00    +0.099 C 
BRANCH   5   9
ATOM      8  N   UNL     1      35.514 -22.354 -18.646  0.00  0.00    -0.242 NA
ATOM      9  C   UNL     1      35.429 -18.697 -22.148  0.00  0.00    +0.002 C 
ATOM     10  C   UNL     1      34.787 -20.474 -20.611  0.00  0.00    +0.003 C 
ATOM     11  C   UNL     1      34.451 -19.528 -21.594  0.00  0.00    +0.000 C 
ATOM     12  C   UNL     1      36.127 -20.577 -20.188  0.00  0.00    +0.019 C 
ATOM     13  C   UNL     1      36.753 -18.803 -21.725  0.00  0.00    +0.000 C 
ATOM     14  C   UNL     1      37.104 -19.738 -20.750  0.00  0.00    +0.002 C 
ATOM     15  C   UNL     1      33.829 -21.320 -20.039  0.00  0.00    +0.021 C 
ATOM     16  C   UNL     1      36.424 -21.529 -19.211  0.00  0.00    +0.099 C 
ATOM     17  C   UNL     1      34.240 -22.228 -19.076  0.00  0.00    +0.099 C 
ENDBRANCH   5   9
ENDBRANCH   1   3
BRANCH   1  18
ATOM     18  C   UNL     1      33.990 -13.905 -22.113  0.00  0.00    +0.184 C 
BRANCH  18  19
ATOM     19  C   UNL     1      32.573 -13.772 -21.545  0.00  0.00    -0.021 C 
BRANCH  19  20
ATOM     20  N   UNL     1      32.304 -14.924 -20.684  0.00  0.00    +0.384 N 
ATOM     21  H   UNL     1      31.383 -15.305 -20.904  0.00  0.00    -0.089 HD
ATOM     22  H   UNL     1      32.325 -14.631 -19.707  0.00  0.00    -0.089 HD
ATOM     23  H   UNL     1      33.014 -15.639 -20.840  0.00  0.00    -0.089 HD
ENDBRANCH  19  20
BRANCH  19  24
ATOM     24  C   UNL     1      32.398 -12.448 -20.771  0.00  0.00    -0.012 C 
BRANCH  24  26
ATOM     25  N   UNL     1      32.716 -10.046 -23.235  0.00  0.00    -0.270 NA
ATOM     26  C   UNL     1      31.663 -11.373 -21.548  0.00  0.00    +0.046 C 
ATOM     27  C   UNL     1      31.908  -9.986 -21.050  0.00  0.00    -0.007 C 
ATOM     28  C   UNL     1      32.243 -11.221 -22.951  0.00  0.00    +0.130 C 
ATOM     29  C   UNL     1      32.520  -9.264 -22.083  0.00  0.00    +0.071 C 
ATOM     30  C   UNL     1      31.621  -9.405 -19.830  0.00  0.00    -0.024 C 
ATOM     31  C   UNL     1      32.865  -7.935 -21.910  0.00  0.00    +0.014 C 
ATOM     32  C   UNL     1      31.967  -8.064 -19.648  0.00  0.00    +0.052 C 
ATOM     33  C   UNL     1      32.584  -7.335 -20.679  0.00  0.00    -0.020 C 
ENDBRANCH  24  26
ENDBRANCH  19  24
ENDBRANCH  18  19
ENDBRANCH   1  18
TORSDOF 7
ENDMDL
MODEL 3
REMARK VINA RESULT:     -13.5      2.068     10.718
REMARK  Name = 11840906
REMARK  7 active torsions:
REMARK  status: ('A' for Active; 'I' for Inactive)
REMARK    1  A    between atoms: O_1  and  C_3
REMARK    2  A    between atoms: O_1  and  C_18
REMARK    3  A    between atoms: C_5  and  C_9
REMARK    4  A    between atoms: C_18  and  C_19
REMARK    5  A    between atoms: C_19  and  N_20
REMARK    6  A    between atoms: C_19  and  C_24
REMARK    7  A    between atoms: C_24  and  C_26
REMARK                            x       y       z     vdW  Elec       q    Type
REMARK                         _______ _______ _______ _____ _____    ______ ____
ROOT
ATOM      1  O   UNL     1      35.749 -18.380 -23.262  0.00  0.00    -0.476 OA
ENDROOT
BRANCH   1   3
ATOM      2  N   UNL     1      34.381 -16.238 -25.875  0.00  0.00    -0.239 NA
ATOM      3  C   UNL     1      35.109 -17.322 -23.855  0.00  0.00    +0.158 C 
ATOM      4  C   UNL     1      34.564 -16.310 -23.086  0.00  0.00    +0.040 C 
ATOM      5  C   UNL     1      33.921 -15.251 -23.716  0.00  0.00    +0.022 C 
ATOM      6  C   UNL     1      34.998 -17.252 -25.227  0.00  0.00    +0.136 C 
ATOM      7  C   UNL     1      33.857 -15.261 -25.100  0.00  0.00    +0.099 C 
BRANCH   5   9
ATOM      8  N   UNL     1      31.617  -9.732 -21.230  0.00  0.00    -0.242 NA
ATOM      9  C   UNL     1      33.339 -14.173 -22.951  0.00  0.00    +0.002 C 
ATOM     10  C   UNL     1      32.755 -11.818 -22.741  0.00  0.00    +0.003 C 
ATOM     11  C   UNL     1      33.317 -12.877 -23.474  0.00  0.00    +0.000 C 
ATOM     12  C   UNL     1      32.212 -12.078 -21.466  0.00  0.00    +0.019 C 
ATOM     13  C   UNL     1      32.802 -14.424 -21.690  0.00  0.00    +0.000 C 
ATOM     14  C   UNL     1      32.240 -13.383 -20.948  0.00  0.00    +0.002 C 
ATOM     15  C   UNL     1      32.718 -10.510 -23.239  0.00  0.00    +0.021 C 
ATOM     16  C   UNL     1      31.663 -11.002 -20.767  0.00  0.00    +0.099 C 
ATOM     17  C   UNL     1      32.146  -9.521 -22.455  0.00  0.00    +0.099 C 
ENDBRANCH   5   9
ENDBRANCH   1   3
BRANCH   1  18
ATOM     18  C   UNL     1      34.928 -19.339 -22.608  0.00  0.00    +0.184 C 
BRANCH  18  19
ATOM     19  C   UNL     1      35.626 -19.841 -21.339  0.00  0.00    -0.021 C 
BRANCH  19  20
ATOM     20  N   UNL     1      36.411 -18.743 -20.772  0.00  0.00    +0.384 N 
ATOM     21  H   UNL     1      35.822 -17.914 -20.684  0.00  0.00    -0.089 HD
ATOM     22  H   UNL     1      37.200 -18.536 -21.385  0.00  0.00    -0.089 HD
ATOM     23  H   UNL     1      36.758 -19.013 -19.852  0.00  0.00    -0.089 HD
ENDBRANCH  19  20
BRANCH  19  24
ATOM     24  C   UNL     1      34.609 -20.383 -20.312  0.00  0.00    -0.012 C 
BRANCH  24  26
ATOM     25  N   UNL     1      33.396 -23.016 -18.431  0.00  0.00    -0.270 NA
ATOM     26  C   UNL     1      34.828 -21.837 -19.939  0.00  0.00    +0.046 C 
ATOM     27  C   UNL     1      35.500 -22.032 -18.619  0.00  0.00    -0.007 C 
ATOM     28  C   UNL     1      33.503 -22.525 -19.628  0.00  0.00    +0.130 C 
ATOM     29  C   UNL     1      34.614 -22.729 -17.788  0.00  0.00    +0.071 C 
ATOM     30  C   UNL     1      36.756 -21.654 -18.184  0.00  0.00    -0.024 C 
ATOM     31  C   UNL     1      34.969 -23.058 -16.491  0.00  0.00    +0.014 C 
ATOM     32  C   UNL     1      37.121 -21.983 -16.877  0.00  0.00    +0.052 C 
ATOM     33  C   UNL     1      36.235 -22.678 -16.038  0.00  0.00    -0.020 C 
ENDBRANCH  24  26
ENDBRANCH  19  24
ENDBRANCH  18  19
ENDBRANCH   1  18
TORSDOF 7
ENDMDL
MODEL 4
REMARK VINA RESULT:     -13.3      3.964     12.027
REMARK  Name = 11840906
REMARK  7 active torsions:
REMARK  status: ('A' for Active; 'I' for Inactive)
REMARK    1  A    between atoms: O_1  and  C_3
REMARK    2  A    between atoms: O_1  and  C_18
REMARK    3  A    between atoms: C_5  and  C_9
REMARK    4  A    between atoms: C_18  and  C_19
REMARK    5  A    between atoms: C_19  and  N_20
REMARK    6  A    between atoms: C_19  and  C_24
REMARK    7  A    between atoms: C_24  and  C_26
REMARK                            x       y       z     vdW  Elec       q    Type
REMARK                         _______ _______ _______ _____ _____    ______ ____
ROOT
ATOM      1  O   UNL     1      34.967 -21.942 -20.039  0.00  0.00    -0.476 OA
ENDROOT
BRANCH   1   3
ATOM      2  N   UNL     1      37.557 -19.393 -20.328  0.00  0.00    -0.239 NA
ATOM      3  C   UNL     1      35.629 -20.825 -20.478  0.00  0.00    +0.158 C 
ATOM      4  C   UNL     1      35.082 -20.027 -21.466  0.00  0.00    +0.040 C 
ATOM      5  C   UNL     1      35.778 -18.900 -21.890  0.00  0.00    +0.022 C 
ATOM      6  C   UNL     1      36.852 -20.480 -19.942  0.00  0.00    +0.136 C 
ATOM      7  C   UNL     1      36.999 -18.630 -21.295  0.00  0.00    +0.099 C 
BRANCH   5   9
ATOM      8  N   UNL     1      33.540 -14.159 -25.691  0.00  0.00    -0.242 NA
ATOM      9  C   UNL     1      35.243 -18.038 -22.918  0.00  0.00    +0.002 C 
ATOM     10  C   UNL     1      34.587 -15.818 -23.672  0.00  0.00    +0.003 C 
ATOM     11  C   UNL     1      35.108 -16.668 -22.682  0.00  0.00    +0.000 C 
ATOM     12  C   UNL     1      34.202 -16.365 -24.913  0.00  0.00    +0.019 C 
ATOM     13  C   UNL     1      34.860 -18.574 -24.147  0.00  0.00    +0.000 C 
ATOM     14  C   UNL     1      34.342 -17.744 -25.141  0.00  0.00    +0.002 C 
ATOM     15  C   UNL     1      34.441 -14.441 -23.464  0.00  0.00    +0.021 C 
ATOM     16  C   UNL     1      33.690 -15.490 -25.873  0.00  0.00    +0.099 C 
ATOM     17  C   UNL     1      33.920 -13.670 -24.491  0.00  0.00    +0.099 C 
ENDBRANCH   5   9
ENDBRANCH   1   3
BRANCH   1  18
ATOM     18  C   UNL     1      35.133 -22.288 -18.670  0.00  0.00    +0.184 C 
BRANCH  18  19
ATOM     19  C   UNL     1      33.766 -22.345 -17.979  0.00  0.00    -0.021 C 
BRANCH  19  20
ATOM     20  N   UNL     1      32.724 -22.370 -19.006  0.00  0.00    +0.384 N 
ATOM     21  H   UNL     1      32.783 -21.523 -19.572  0.00  0.00    -0.089 HD
ATOM     22  H   UNL     1      31.807 -22.417 -18.560  0.00  0.00    -0.089 HD
ATOM     23  H   UNL     1      32.853 -23.188 -19.602  0.00  0.00    -0.089 HD
ENDBRANCH  19  20
BRANCH  19  24
ATOM     24  C   UNL     1      33.655 -23.570 -17.047  0.00  0.00    -0.012 C 
BRANCH  24  26
ATOM     25  N   UNL     1      32.524 -24.972 -14.097  0.00  0.00    -0.270 NA
ATOM     26  C   UNL     1      32.941 -23.285 -15.740  0.00  0.00    +0.046 C 
ATOM     27  C   UNL     1      31.498 -23.673 -15.737  0.00  0.00    -0.007 C 
ATOM     28  C   UNL     1      33.432 -24.216 -14.636  0.00  0.00    +0.130 C 
ATOM     29  C   UNL     1      31.322 -24.656 -14.756  0.00  0.00    +0.071 C 
ATOM     30  C   UNL     1      30.442 -23.213 -16.501  0.00  0.00    -0.024 C 
ATOM     31  C   UNL     1      30.074 -25.208 -14.521  0.00  0.00    +0.014 C 
ATOM     32  C   UNL     1      29.180 -23.765 -16.270  0.00  0.00    +0.052 C 
ATOM     33  C   UNL     1      28.998 -24.754 -15.289  0.00  0.00    -0.020 C 
ENDBRANCH  24  26
ENDBRANCH  19  24
ENDBRANCH  18  19
ENDBRANCH   1  18
TORSDOF 7
ENDMDL
MODEL 5
REMARK VINA RESULT:     -13.2      3.122     11.323
REMARK  Name = 11840906
REMARK  7 active torsions:
REMARK  status: ('A' for Active; 'I' for Inactive)
REMARK    1  A    between atoms: O_1  and  C_3
REMARK    2  A    between atoms: O_1  and  C_18
REMARK    3  A    between atoms: C_5  and  C_9
REMARK    4  A    between atoms: C_18  and  C_19
REMARK    5  A    between atoms: C_19  and  N_20
REMARK    6  A    between atoms: C_19  and  C_24
REMARK    7  A    between atoms: C_24  and  C_26
REMARK                            x       y       z     vdW  Elec       q    Type
REMARK                         _______ _______ _______ _____ _____    ______ ____
ROOT
ATOM      1  O   UNL     1      31.875 -11.137 -21.019  0.00  0.00    -0.476 OA
ENDROOT
BRANCH   1   3
ATOM      2  N   UNL     1      32.299  -7.765 -19.702  0.00  0.00    -0.239 NA
ATOM      3  C   UNL     1      32.175  -9.799 -20.978  0.00  0.00    +0.158 C 
ATOM      4  C   UNL     1      32.638  -9.148 -22.108  0.00  0.00    +0.040 C 
ATOM      5  C   UNL     1      32.934  -7.791 -22.035  0.00  0.00    +0.022 C 
ATOM      6  C   UNL     1      32.022  -9.083 -19.811  0.00  0.00    +0.136 C 
ATOM      7  C   UNL     1      32.749  -7.152 -20.820  0.00  0.00    +0.099 C 
BRANCH   5   9
ATOM      8  N   UNL     1      34.015  -4.050 -27.209  0.00  0.00    -0.242 NA
ATOM      9  C   UNL     1      33.417  -7.073 -23.190  0.00  0.00    +0.002 C 
ATOM     10  C   UNL     1      33.051  -5.438 -24.957  0.00  0.00    +0.003 C 
ATOM     11  C   UNL     1      32.594  -6.143 -23.831  0.00  0.00    +0.000 C 
ATOM     12  C   UNL     1      34.355  -5.678 -25.435  0.00  0.00    +0.019 C 
ATOM     13  C   UNL     1      34.706  -7.307 -23.668  0.00  0.00    +0.000 C 
ATOM     14  C   UNL     1      35.175  -6.614 -24.784  0.00  0.00    +0.002 C 
ATOM     15  C   UNL     1      32.248  -4.500 -25.619  0.00  0.00    +0.021 C 
ATOM     16  C   UNL     1      34.774  -4.958 -26.555  0.00  0.00    +0.099 C 
ATOM     17  C   UNL     1      32.772  -3.845 -26.722  0.00  0.00    +0.099 C 
ENDBRANCH   5   9
ENDBRANCH   1   3
BRANCH   1  18
ATOM     18  C   UNL     1      31.816 -11.740 -22.305  0.00  0.00    +0.184 C 
BRANCH  18  19
ATOM     19  C   UNL     1      32.690 -12.998 -22.330  0.00  0.00    -0.021 C 
BRANCH  19  20
ATOM     20  N   UNL     1      32.380 -13.807 -21.151  0.00  0.00    +0.384 N 
ATOM     21  H   UNL     1      32.930 -13.477 -20.357  0.00  0.00    -0.089 HD
ATOM     22  H   UNL     1      32.606 -14.783 -21.338  0.00  0.00    -0.089 HD
ATOM     23  H   UNL     1      31.387 -13.723 -20.933  0.00  0.00    -0.089 HD
ENDBRANCH  19  20
BRANCH  19  24
ATOM     24  C   UNL     1      32.479 -13.807 -23.627  0.00  0.00    -0.012 C 
BRANCH  24  26
ATOM     25  N   UNL     1      33.825 -15.520 -26.311  0.00  0.00    -0.270 NA
ATOM     26  C   UNL     1      33.765 -14.132 -24.365  0.00  0.00    +0.046 C 
ATOM     27  C   UNL     1      34.331 -15.476 -24.036  0.00  0.00    -0.007 C 
ATOM     28  C   UNL     1      33.501 -14.349 -25.851  0.00  0.00    +0.130 C 
ATOM     29  C   UNL     1      34.342 -16.233 -25.215  0.00  0.00    +0.071 C 
ATOM     30  C   UNL     1      34.798 -15.987 -22.841  0.00  0.00    -0.024 C 
ATOM     31  C   UNL     1      34.820 -17.532 -25.217  0.00  0.00    +0.014 C 
ATOM     32  C   UNL     1      35.283 -17.297 -22.836  0.00  0.00    +0.052 C 
ATOM     33  C   UNL     1      35.293 -18.063 -24.014  0.00  0.00    -0.020 C 
ENDBRANCH  24  26
ENDBRANCH  19  24
ENDBRANCH  18  19
ENDBRANCH   1  18
TORSDOF 7
ENDMDL
MODEL 6
REMARK VINA RESULT:     -13.1      2.839     11.550
REMARK  Name = 11840906
REMARK  7 active torsions:
REMARK  status: ('A' for Active; 'I' for Inactive)
REMARK    1  A    between atoms: O_1  and  C_3
REMARK    2  A    between atoms: O_1  and  C_18
REMARK    3  A    between atoms: C_5  and  C_9
REMARK    4  A    between atoms: C_18  and  C_19
REMARK    5  A    between atoms: C_19  and  N_20
REMARK    6  A    between atoms: C_19  and  C_24
REMARK    7  A    between atoms: C_24  and  C_26
REMARK                            x       y       z     vdW  Elec       q    Type
REMARK                         _______ _______ _______ _____ _____    ______ ____
ROOT
ATOM      1  O   UNL     1      31.657 -11.351 -22.066  0.00  0.00    -0.476 OA
ENDROOT
BRANCH   1   3
ATOM      2  N   UNL     1      32.575  -8.343 -20.223  0.00  0.00    -0.239 NA
ATOM      3  C   UNL     1      32.110 -10.081 -21.821  0.00  0.00    +0.158 C 
ATOM      4  C   UNL     1      32.545  -9.277 -22.859  0.00  0.00    +0.040 C 
ATOM      5  C   UNL     1      32.999  -7.993 -22.578  0.00  0.00    +0.022 C 
ATOM      6  C   UNL     1      32.141  -9.585 -20.535  0.00  0.00    +0.136 C 
ATOM      7  C   UNL     1      32.993  -7.578 -21.256  0.00  0.00    +0.099 C 
BRANCH   5   9
ATOM      8  N   UNL     1      33.945  -3.648 -27.286  0.00  0.00    -0.242 NA
ATOM      9  C   UNL     1      33.461  -7.120 -23.631  0.00  0.00    +0.002 C 
ATOM     10  C   UNL     1      33.022  -5.338 -25.232  0.00  0.00    +0.003 C 
ATOM     11  C   UNL     1      32.587  -6.192 -24.205  0.00  0.00    +0.000 C 
ATOM     12  C   UNL     1      34.356  -5.426 -25.679  0.00  0.00    +0.019 C 
ATOM     13  C   UNL     1      34.779  -7.203 -24.079  0.00  0.00    +0.000 C 
ATOM     14  C   UNL     1      35.227  -6.362 -25.098  0.00  0.00    +0.002 C 
ATOM     15  C   UNL     1      32.169  -4.399 -25.825  0.00  0.00    +0.021 C 
ATOM     16  C   UNL     1      34.752  -4.561 -26.700  0.00  0.00    +0.099 C 
ATOM     17  C   UNL     1      32.674  -3.591 -26.831  0.00  0.00    +0.099 C 
ENDBRANCH   5   9
ENDBRANCH   1   3
BRANCH   1  18
ATOM     18  C   UNL     1      32.607 -12.403 -21.950  0.00  0.00    +0.184 C 
BRANCH  18  19
ATOM     19  C   UNL     1      33.003 -12.901 -23.344  0.00  0.00    -0.021 C 
BRANCH  19  20
ATOM     20  N   UNL     1      34.284 -12.296 -23.710  0.00  0.00    +0.384 N 
ATOM     21  H   UNL     1      34.190 -11.817 -24.606  0.00  0.00    -0.089 HD
ATOM     22  H   UNL     1      34.994 -13.025 -23.788  0.00  0.00    -0.089 HD
ATOM     23  H   UNL     1      34.561 -11.626 -22.993  0.00  0.00    -0.089 HD
ENDBRANCH  19  20
BRANCH  19  24
ATOM     24  C   UNL     1      33.085 -14.442 -23.390  0.00  0.00    -0.012 C 
BRANCH  24  26
ATOM     25  N   UNL     1      33.837 -16.454 -26.098  0.00  0.00    -0.270 NA
ATOM     26  C   UNL     1      34.210 -14.972 -24.258  0.00  0.00    +0.046 C 
ATOM     27  C   UNL     1      34.642 -16.360 -23.913  0.00  0.00    -0.007 C 
ATOM     28  C   UNL     1      33.725 -15.229 -25.682  0.00  0.00    +0.130 C 
ATOM     29  C   UNL     1      34.402 -17.172 -25.029  0.00  0.00    +0.071 C 
ATOM     30  C   UNL     1      35.198 -16.867 -22.754  0.00  0.00    -0.024 C 
ATOM     31  C   UNL     1      34.711 -18.521 -25.003  0.00  0.00    +0.014 C 
ATOM     32  C   UNL     1      35.512 -18.227 -22.721  0.00  0.00    +0.052 C 
ATOM     33  C   UNL     1      35.270 -19.047 -23.835  0.00  0.00    -0.020 C 
ENDBRANCH  24  26
ENDBRANCH  19  24
ENDBRANCH  18  19
ENDBRANCH   1  18
TORSDOF 7
ENDMDL
MODEL 7
REMARK VINA RESULT:     -13.0      4.289      8.258
REMARK  Name = 11840906
REMARK  7 active torsions:
REMARK  status: ('A' for Active; 'I' for Inactive)
REMARK    1  A    between atoms: O_1  and  C_3
REMARK    2  A    between atoms: O_1  and  C_18
REMARK    3  A    between atoms: C_5  and  C_9
REMARK    4  A    between atoms: C_18  and  C_19
REMARK    5  A    between atoms: C_19  and  N_20
REMARK    6  A    between atoms: C_19  and  C_24
REMARK    7  A    between atoms: C_24  and  C_26
REMARK                            x       y       z     vdW  Elec       q    Type
REMARK                         _______ _______ _______ _____ _____    ______ ____
ROOT
ATOM      1  O   UNL     1      36.053 -20.854 -19.884  0.00  0.00    -0.476 OA
ENDROOT
BRANCH   1   3
ATOM      2  N   UNL     1      33.035 -22.611 -18.841  0.00  0.00    -0.239 NA
ATOM      3  C   UNL     1      35.206 -21.615 -19.121  0.00  0.00    +0.158 C 
ATOM      4  C   UNL     1      35.630 -22.141 -17.914  0.00  0.00    +0.040 C 
ATOM      5  C   UNL     1      34.748 -22.909 -17.162  0.00  0.00    +0.022 C 
ATOM      6  C   UNL     1      33.920 -21.869 -19.544  0.00  0.00    +0.136 C 
ATOM      7  C   UNL     1      33.474 -23.112 -17.665  0.00  0.00    +0.099 C 
BRANCH   5   9
ATOM      8  N   UNL     1      37.646 -25.490 -11.977  0.00  0.00    -0.242 NA
ATOM      9  C   UNL     1      35.149 -23.476 -15.896  0.00  0.00    +0.002 C 
ATOM     10  C   UNL     1      36.888 -24.384 -14.453  0.00  0.00    +0.003 C 
ATOM     11  C   UNL     1      36.484 -23.830 -15.679  0.00  0.00    +0.000 C 
ATOM     12  C   UNL     1      35.929 -24.580 -13.439  0.00  0.00    +0.019 C 
ATOM     13  C   UNL     1      34.205 -23.673 -14.889  0.00  0.00    +0.000 C 
ATOM     14  C   UNL     1      34.590 -24.222 -13.665  0.00  0.00    +0.002 C 
ATOM     15  C   UNL     1      38.218 -24.748 -14.207  0.00  0.00    +0.021 C 
ATOM     16  C   UNL     1      36.368 -25.132 -12.234  0.00  0.00    +0.099 C 
ATOM     17  C   UNL     1      38.537 -25.287 -12.971  0.00  0.00    +0.099 C 
ENDBRANCH   5   9
ENDBRANCH   1   3
BRANCH   1  18
ATOM     18  C   UNL     1      35.485 -20.203 -21.014  0.00  0.00    +0.184 C 
BRANCH  18  19
ATOM     19  C   UNL     1      36.190 -18.863 -21.250  0.00  0.00    -0.021 C 
BRANCH  19  20
ATOM     20  N   UNL     1      37.538 -18.937 -20.685  0.00  0.00    +0.384 N 
ATOM     21  H   UNL     1      37.561 -18.439 -19.794  0.00  0.00    -0.089 HD
ATOM     22  H   UNL     1      38.201 -18.509 -21.331  0.00  0.00    -0.089 HD
ATOM     23  H   UNL     1      37.790 -19.913 -20.535  0.00  0.00    -0.089 HD
ENDBRANCH  19  20
BRANCH  19  24
ATOM     24  C   UNL     1      36.237 -18.507 -22.751  0.00  0.00    -0.012 C 
BRANCH  24  26
ATOM     25  N   UNL     1      34.624 -17.377 -25.592  0.00  0.00    -0.270 NA
ATOM     26  C   UNL     1      34.895 -18.099 -23.328  0.00  0.00    +0.046 C 
ATOM     27  C   UNL     1      34.682 -16.621 -23.388  0.00  0.00    -0.007 C 
ATOM     28  C   UNL     1      34.828 -18.403 -24.821  0.00  0.00    +0.130 C 
ATOM     29  C   UNL     1      34.527 -16.267 -24.734  0.00  0.00    +0.071 C 
ATOM     30  C   UNL     1      34.618 -15.680 -22.379  0.00  0.00    -0.024 C 
ATOM     31  C   UNL     1      34.310 -14.949 -25.099  0.00  0.00    +0.014 C 
ATOM     32  C   UNL     1      34.399 -14.349 -22.740  0.00  0.00    +0.052 C 
ATOM     33  C   UNL     1      34.247 -13.986 -24.088  0.00  0.00    -0.020 C 
ENDBRANCH  24  26
ENDBRANCH  19  24
ENDBRANCH  18  19
ENDBRANCH   1  18
TORSDOF 7
ENDMDL
MODEL 8
REMARK VINA RESULT:     -12.9      4.358     12.541
REMARK  Name = 11840906
REMARK  7 active torsions:
REMARK  status: ('A' for Active; 'I' for Inactive)
REMARK    1  A    between atoms: O_1  and  C_3
REMARK    2  A    between atoms: O_1  and  C_18
REMARK    3  A    between atoms: C_5  and  C_9
REMARK    4  A    between atoms: C_18  and  C_19
REMARK    5  A    between atoms: C_19  and  N_20
REMARK    6  A    between atoms: C_19  and  C_24
REMARK    7  A    between atoms: C_24  and  C_26
REMARK                            x       y       z     vdW  Elec       q    Type
REMARK                         _______ _______ _______ _____ _____    ______ ____
ROOT
ATOM      1  O   UNL     1      33.170 -22.324 -18.919  0.00  0.00    -0.476 OA
ENDROOT
BRANCH   1   3
ATOM      2  N   UNL     1      36.631 -21.415 -19.617  0.00  0.00    -0.239 NA
ATOM      3  C   UNL     1      34.244 -21.685 -19.484  0.00  0.00    +0.158 C 
ATOM      4  C   UNL     1      34.056 -20.711 -20.447  0.00  0.00    +0.040 C 
ATOM      5  C   UNL     1      35.165 -20.081 -21.001  0.00  0.00    +0.022 C 
ATOM      6  C   UNL     1      35.529 -22.006 -19.101  0.00  0.00    +0.136 C 
ATOM      7  C   UNL     1      36.419 -20.466 -20.556  0.00  0.00    +0.099 C 
BRANCH   5   9
ATOM      8  N   UNL     1      34.493 -14.729 -24.584  0.00  0.00    -0.242 NA
ATOM      9  C   UNL     1      35.013 -19.057 -22.008  0.00  0.00    +0.002 C 
ATOM     10  C   UNL     1      34.791 -16.707 -22.603  0.00  0.00    +0.003 C 
ATOM     11  C   UNL     1      34.940 -17.713 -21.634  0.00  0.00    +0.000 C 
ATOM     12  C   UNL     1      34.716 -17.069 -23.963  0.00  0.00    +0.019 C 
ATOM     13  C   UNL     1      34.937 -19.410 -23.355  0.00  0.00    +0.000 C 
ATOM     14  C   UNL     1      34.789 -18.423 -24.330  0.00  0.00    +0.002 C 
ATOM     15  C   UNL     1      34.716 -15.352 -22.257  0.00  0.00    +0.021 C 
ATOM     16  C   UNL     1      34.568 -16.042 -24.897  0.00  0.00    +0.099 C 
ATOM     17  C   UNL     1      34.570 -14.419 -23.272  0.00  0.00    +0.099 C 
ENDBRANCH   5   9
ENDBRANCH   1   3
BRANCH   1  18
ATOM     18  C   UNL     1      33.447 -23.499 -18.168  0.00  0.00    +0.184 C 
BRANCH  18  19
ATOM     19  C   UNL     1      33.499 -23.160 -16.675  0.00  0.00    -0.021 C 
BRANCH  19  20
ATOM     20  N   UNL     1      32.180 -23.411 -16.092  0.00  0.00    +0.384 N 
ATOM     21  H   UNL     1      31.685 -22.526 -15.978  0.00  0.00    -0.089 HD
ATOM     22  H   UNL     1      32.290 -23.858 -15.182  0.00  0.00    -0.089 HD
ATOM     23  H   UNL     1      31.646 -24.022 -16.710  0.00  0.00    -0.089 HD
ENDBRANCH  19  20
BRANCH  19  24
ATOM     24  C   UNL     1      34.589 -23.976 -15.949  0.00  0.00    -0.012 C 
BRANCH  24  26
ATOM     25  N   UNL     1      37.936 -23.360 -15.340  0.00  0.00    -0.270 NA
ATOM     26  C   UNL     1      35.563 -23.129 -15.152  0.00  0.00    +0.046 C 
ATOM     27  C   UNL     1      36.122 -23.815 -13.948  0.00  0.00    -0.007 C 
ATOM     28  C   UNL     1      36.862 -22.920 -15.924  0.00  0.00    +0.130 C 
ATOM     29  C   UNL     1      37.509 -23.914 -14.119  0.00  0.00    +0.071 C 
ATOM     30  C   UNL     1      35.496 -24.294 -12.814  0.00  0.00    -0.024 C 
ATOM     31  C   UNL     1      38.302 -24.507 -13.152  0.00  0.00    +0.014 C 
ATOM     32  C   UNL     1      36.289 -24.894 -11.834  0.00  0.00    +0.052 C 
ATOM     33  C   UNL     1      37.680 -25.000 -12.001  0.00  0.00    -0.020 C 
ENDBRANCH  24  26
ENDBRANCH  19  24
ENDBRANCH  18  19
ENDBRANCH   1  18
TORSDOF 7
ENDMDL
MODEL 9
REMARK VINA RESULT:     -12.8      2.027     10.221
REMARK  Name = 11840906
REMARK  7 active torsions:
REMARK  status: ('A' for Active; 'I' for Inactive)
REMARK    1  A    between atoms: O_1  and  C_3
REMARK    2  A    between atoms: O_1  and  C_18
REMARK    3  A    between atoms: C_5  and  C_9
REMARK    4  A    between atoms: C_18  and  C_19
REMARK    5  A    between atoms: C_19  and  N_20
REMARK    6  A    between atoms: C_19  and  C_24
REMARK    7  A    between atoms: C_24  and  C_26
REMARK                            x       y       z     vdW  Elec       q    Type
REMARK                         _______ _______ _______ _____ _____    ______ ____
ROOT
ATOM      1  O   UNL     1      35.211 -16.458 -24.717  0.00  0.00    -0.476 OA
ENDROOT
BRANCH   1   3
ATOM      2  N   UNL     1      32.866 -14.154 -26.291  0.00  0.00    -0.239 NA
ATOM      3  C   UNL     1      34.326 -15.420 -24.859  0.00  0.00    +0.158 C 
ATOM      4  C   UNL     1      34.001 -14.621 -23.778  0.00  0.00    +0.040 C 
ATOM      5  C   UNL     1      33.100 -13.576 -23.954  0.00  0.00    +0.022 C 
ATOM      6  C   UNL     1      33.745 -15.159 -26.081  0.00  0.00    +0.136 C 
ATOM      7  C   UNL     1      32.566 -13.387 -25.218  0.00  0.00    +0.099 C 
BRANCH   5   9
ATOM      8  N   UNL     1      31.641  -8.825 -19.802  0.00  0.00    -0.242 NA
ATOM      9  C   UNL     1      32.734 -12.717 -22.853  0.00  0.00    +0.002 C 
ATOM     10  C   UNL     1      32.357 -10.481 -21.964  0.00  0.00    +0.003 C 
ATOM     11  C   UNL     1      32.709 -11.330 -23.026  0.00  0.00    +0.000 C 
ATOM     12  C   UNL     1      32.025 -11.046 -20.716  0.00  0.00    +0.019 C 
ATOM     13  C   UNL     1      32.406 -13.269 -21.616  0.00  0.00    +0.000 C 
ATOM     14  C   UNL     1      32.053 -12.440 -20.550  0.00  0.00    +0.002 C 
ATOM     15  C   UNL     1      32.323  -9.089 -22.108  0.00  0.00    +0.021 C 
ATOM     16  C   UNL     1      31.679 -10.172 -19.684  0.00  0.00    +0.099 C 
ATOM     17  C   UNL     1      31.964  -8.320 -21.013  0.00  0.00    +0.099 C 
ENDBRANCH   5   9
ENDBRANCH   1   3
BRANCH   1  18
ATOM     18  C   UNL     1      35.194 -17.148 -23.474  0.00  0.00    +0.184 C 
BRANCH  18  19
ATOM     19  C   UNL     1      34.467 -18.487 -23.634  0.00  0.00    -0.021 C 
BRANCH  19  20
ATOM     20  N   UNL     1      34.373 -18.801 -25.060  0.00  0.00    +0.384 N 
ATOM     21  H   UNL     1      33.556 -19.390 -25.226  0.00  0.00    -0.089 HD
ATOM     22  H   UNL     1      35.214 -19.297 -25.355  0.00  0.00    -0.089 HD
ATOM     23  H   UNL     1      34.283 -17.937 -25.594  0.00  0.00    -0.089 HD
ENDBRANCH  19  20
BRANCH  19  24
ATOM     24  C   UNL     1      35.186 -19.615 -22.864  0.00  0.00    -0.012 C 
BRANCH  24  26
ATOM     25  N   UNL     1      37.054 -20.355 -20.051  0.00  0.00    -0.270 NA
ATOM     26  C   UNL     1      35.342 -19.344 -21.380  0.00  0.00    +0.046 C 
ATOM     27  C   UNL     1      34.768 -20.409 -20.503  0.00  0.00    -0.007 C 
ATOM     28  C   UNL     1      36.803 -19.457 -20.955  0.00  0.00    +0.130 C 
ATOM     29  C   UNL     1      35.818 -20.954 -19.753  0.00  0.00    +0.071 C 
ATOM     30  C   UNL     1      33.468 -20.853 -20.361  0.00  0.00    -0.024 C 
ATOM     31  C   UNL     1      35.583 -21.970 -18.841  0.00  0.00    +0.014 C 
ATOM     32  C   UNL     1      33.224 -21.878 -19.444  0.00  0.00    +0.052 C 
ATOM     33  C   UNL     1      34.273 -22.432 -18.691  0.00  0.00    -0.020 C 
ENDBRANCH  24  26
ENDBRANCH  19  24
ENDBRANCH  18  19
ENDBRANCH   1  18
TORSDOF 7
ENDMDL
