MODEL 1
REMARK VINA RESULT:     -13.5      0.000      0.000
REMARK  Name = 9976892
REMARK  4 active torsions:
REMARK  status: ('A' for Active; 'I' for Inactive)
REMARK    1  A    between atoms: N_1  and  C_13
REMARK    2  A    between atoms: C_10  and  O_17
REMARK    3  A    between atoms: O_17  and  C_20
REMARK    4  A    between atoms: C_19  and  N_25
REMARK                            x       y       z     vdW  Elec       q    Type
REMARK                         _______ _______ _______ _____ _____    ______ ____
ROOT
ATOM      1  N   UNL     1      32.155  -8.778 -21.918  0.00  0.00    +0.389 N 
ATOM      2  C   UNL     1      33.238  -9.190 -22.824  0.00  0.00    -0.073 C 
ATOM      3  C   UNL     1      31.851  -9.778 -20.882  0.00  0.00    -0.073 C 
ATOM      4  C   UNL     1      32.836 -10.320 -23.778  0.00  0.00    +0.003 C 
ATOM      5  C   UNL     1      31.158 -11.029 -21.430  0.00  0.00    +0.003 C 
ATOM      6  C   UNL     1      32.908 -11.689 -23.149  0.00  0.00    -0.025 C 
ATOM      7  C   UNL     1      32.114 -12.024 -22.038  0.00  0.00    -0.028 C 
ATOM      8  C   UNL     1      33.773 -12.653 -23.690  0.00  0.00    +0.033 C 
ATOM      9  C   UNL     1      32.203 -13.317 -21.495  0.00  0.00    -0.002 C 
ATOM     10  C   UNL     1      33.855 -13.931 -23.138  0.00  0.00    +0.147 C 
ATOM     11  C   UNL     1      33.069 -14.263 -22.041  0.00  0.00    +0.037 C 
ATOM     12  H   UNL     1      31.312  -8.663 -22.482  0.00  0.00    -0.080 HD
ENDROOT
BRANCH   1  13
ATOM     13  C   UNL     1      32.549  -7.553 -21.272  0.00  0.00    -0.058 C 
ATOM     14  C   UNL     1      31.622  -6.391 -21.683  0.00  0.00    -0.021 C 
ATOM     15  C   UNL     1      31.927  -7.450 -19.863  0.00  0.00    -0.021 C 
ATOM     16  C   UNL     1      31.609  -5.977 -20.196  0.00  0.00    -0.004 C 
ENDBRANCH   1  13
BRANCH  10  17
ATOM     17  O   UNL     1      34.700 -14.852 -23.675  0.00  0.00    -0.436 OA
BRANCH  17  20
ATOM     18  N   UNL     1      35.020 -15.997 -21.683  0.00  0.00    -0.209 NA
ATOM     19  C   UNL     1      35.117 -18.413 -21.688  0.00  0.00    +0.073 C 
ATOM     20  C   UNL     1      34.840 -16.061 -23.014  0.00  0.00    +0.230 C 
ATOM     21  C   UNL     1      34.928 -18.424 -23.066  0.00  0.00    +0.021 C 
ATOM     22  C   UNL     1      35.155 -17.185 -21.049  0.00  0.00    +0.117 C 
ATOM     23  C   UNL     1      34.786 -17.224 -23.753  0.00  0.00    +0.059 C 
BRANCH  19  25
ATOM     24  O   UNL     1      33.023 -20.391 -20.671  0.00  0.00    -0.275 OA
ATOM     25  N   UNL     1      35.266 -19.628 -20.957  0.00  0.00    -0.257 N 
ATOM     26  C   UNL     1      36.319 -21.553 -20.151  0.00  0.00    +0.031 C 
ATOM     27  C   UNL     1      36.557 -20.096 -20.489  0.00  0.00    +0.099 C 
ATOM     28  C   UNL     1      34.872 -21.578 -19.702  0.00  0.00    +0.087 C 
ATOM     29  C   UNL     1      34.233 -20.479 -20.520  0.00  0.00    +0.229 C 
ENDBRANCH  19  25
ENDBRANCH  17  20
ENDBRANCH  10  17
TORSDOF 4
ENDMDL
MODEL 2
REMARK VINA RESULT:     -13.3      5.715     12.688
REMARK  Name = 9976892
REMARK  4 active torsions:
REMARK  status: ('A' for Active; 'I' for Inactive)
REMARK    1  A    between atoms: N_1  and  C_13
REMARK    2  A    between atoms: C_10  and  O_17
REMARK    3  A    between atoms: O_17  and  C_20
REMARK    4  A    between atoms: C_19  and  N_25
REMARK                            x       y       z     vdW  Elec       q    Type
REMARK                         _______ _______ _______ _____ _____    ______ ____
ROOT
ATOM      1  N   UNL     1      37.840 -24.227 -13.857  0.00  0.00    +0.389 N 
ATOM      2  C   UNL     1      37.923 -24.044 -15.313  0.00  0.00    -0.073 C 
ATOM      3  C   UNL     1      36.509 -24.655 -13.398  0.00  0.00    -0.073 C 
ATOM      4  C   UNL     1      37.155 -22.818 -15.817  0.00  0.00    +0.003 C 
ATOM      5  C   UNL     1      35.447 -23.556 -13.501  0.00  0.00    +0.003 C 
ATOM      6  C   UNL     1      35.676 -23.062 -15.982  0.00  0.00    -0.025 C 
ATOM      7  C   UNL     1      34.868 -23.411 -14.885  0.00  0.00    -0.028 C 
ATOM      8  C   UNL     1      35.091 -22.924 -17.250  0.00  0.00    +0.033 C 
ATOM      9  C   UNL     1      33.492 -23.614 -15.083  0.00  0.00    -0.002 C 
ATOM     10  C   UNL     1      33.724 -23.133 -17.433  0.00  0.00    +0.147 C 
ATOM     11  C   UNL     1      32.925 -23.476 -16.349  0.00  0.00    +0.037 C 
ATOM     12  H   UNL     1      38.029 -23.322 -13.424  0.00  0.00    -0.080 HD
ENDROOT
BRANCH   1  13
ATOM     13  C   UNL     1      38.802 -25.227 -13.471  0.00  0.00    -0.058 C 
ATOM     14  C   UNL     1      38.902 -26.335 -14.539  0.00  0.00    -0.021 C 
ATOM     15  C   UNL     1      40.228 -24.806 -13.882  0.00  0.00    -0.021 C 
ATOM     16  C   UNL     1      40.434 -26.258 -14.364  0.00  0.00    -0.004 C 
ENDBRANCH   1  13
BRANCH  10  17
ATOM     17  O   UNL     1      33.174 -22.996 -18.670  0.00  0.00    -0.436 OA
BRANCH  17  20
ATOM     18  N   UNL     1      32.664 -21.113 -19.926  0.00  0.00    -0.209 NA
ATOM     19  C   UNL     1      34.439 -19.872 -21.003  0.00  0.00    +0.073 C 
ATOM     20  C   UNL     1      33.612 -21.944 -19.457  0.00  0.00    +0.230 C 
ATOM     21  C   UNL     1      35.379 -20.760 -20.492  0.00  0.00    +0.021 C 
ATOM     22  C   UNL     1      33.106 -20.090 -20.694  0.00  0.00    +0.117 C 
ATOM     23  C   UNL     1      34.964 -21.824 -19.700  0.00  0.00    +0.059 C 
BRANCH  19  25
ATOM     24  O   UNL     1      34.951 -19.711 -24.010  0.00  0.00    -0.275 OA
ATOM     25  N   UNL     1      34.834 -18.771 -21.819  0.00  0.00    -0.257 N 
ATOM     26  C   UNL     1      35.104 -16.541 -22.460  0.00  0.00    +0.031 C 
ATOM     27  C   UNL     1      35.146 -17.469 -21.264  0.00  0.00    +0.099 C 
ATOM     28  C   UNL     1      35.556 -17.423 -23.606  0.00  0.00    +0.087 C 
ATOM     29  C   UNL     1      35.055 -18.793 -23.210  0.00  0.00    +0.229 C 
ENDBRANCH  19  25
ENDBRANCH  17  20
ENDBRANCH  10  17
TORSDOF 4
ENDMDL
MODEL 3
REMARK VINA RESULT:     -13.3      4.076     12.043
REMARK  Name = 9976892
REMARK  4 active torsions:
REMARK  status: ('A' for Active; 'I' for Inactive)
REMARK    1  A    between atoms: N_1  and  C_13
REMARK    2  A    between atoms: C_10  and  O_17
REMARK    3  A    between atoms: O_17  and  C_20
REMARK    4  A    between atoms: C_19  and  N_25
REMARK                            x       y       z     vdW  Elec       q    Type
REMARK                         _______ _______ _______ _____ _____    ______ ____
ROOT
ATOM      1  N   UNL     1      36.596 -24.038 -14.406  0.00  0.00    +0.389 N 
ATOM      2  C   UNL     1      37.577 -23.548 -15.385  0.00  0.00    -0.073 C 
ATOM      3  C   UNL     1      35.326 -24.464 -15.016  0.00  0.00    -0.073 C 
ATOM      4  C   UNL     1      37.205 -22.191 -15.993  0.00  0.00    +0.003 C 
ATOM      5  C   UNL     1      34.484 -23.299 -15.544  0.00  0.00    +0.003 C 
ATOM      6  C   UNL     1      36.205 -22.292 -17.117  0.00  0.00    -0.025 C 
ATOM      7  C   UNL     1      34.918 -22.816 -16.905  0.00  0.00    -0.028 C 
ATOM      8  C   UNL     1      36.560 -21.840 -18.398  0.00  0.00    +0.033 C 
ATOM      9  C   UNL     1      34.014 -22.875 -17.979  0.00  0.00    -0.002 C 
ATOM     10  C   UNL     1      35.655 -21.910 -19.457  0.00  0.00    +0.147 C 
ATOM     11  C   UNL     1      34.382 -22.427 -19.247  0.00  0.00    +0.037 C 
ATOM     12  H   UNL     1      36.381 -23.265 -13.775  0.00  0.00    -0.080 HD
ENDROOT
BRANCH   1  13
ATOM     13  C   UNL     1      37.171 -25.162 -13.713  0.00  0.00    -0.058 C 
ATOM     14  C   UNL     1      38.201 -25.888 -14.602  0.00  0.00    -0.021 C 
ATOM     15  C   UNL     1      38.358 -24.717 -12.833  0.00  0.00    -0.021 C 
ATOM     16  C   UNL     1      39.112 -25.956 -13.358  0.00  0.00    -0.004 C 
ENDBRANCH   1  13
BRANCH  10  17
ATOM     17  O   UNL     1      36.017 -21.469 -20.693  0.00  0.00    -0.436 OA
BRANCH  17  20
ATOM     18  N   UNL     1      36.584 -19.219 -20.697  0.00  0.00    -0.209 NA
ATOM     19  C   UNL     1      35.080 -17.603 -21.685  0.00  0.00    +0.073 C 
ATOM     20  C   UNL     1      35.690 -20.166 -21.033  0.00  0.00    +0.230 C 
ATOM     21  C   UNL     1      34.191 -18.621 -22.010  0.00  0.00    +0.021 C 
ATOM     22  C   UNL     1      36.253 -17.952 -21.034  0.00  0.00    +0.117 C 
ATOM     23  C   UNL     1      34.495 -19.937 -21.680  0.00  0.00    +0.059 C 
BRANCH  19  25
ATOM     24  O   UNL     1      35.217 -16.130 -24.357  0.00  0.00    -0.275 OA
ATOM     25  N   UNL     1      34.796 -16.245 -22.010  0.00  0.00    -0.257 N 
ATOM     26  C   UNL     1      33.838 -14.124 -21.796  0.00  0.00    +0.031 C 
ATOM     27  C   UNL     1      34.436 -15.266 -21.002  0.00  0.00    +0.099 C 
ATOM     28  C   UNL     1      34.593 -14.176 -23.110  0.00  0.00    +0.087 C 
ATOM     29  C   UNL     1      34.895 -15.647 -23.282  0.00  0.00    +0.229 C 
ENDBRANCH  19  25
ENDBRANCH  17  20
ENDBRANCH  10  17
TORSDOF 4
ENDMDL
MODEL 4
REMARK VINA RESULT:     -12.6      2.590      5.239
REMARK  Name = 9976892
REMARK  4 active torsions:
REMARK  status: ('A' for Active; 'I' for Inactive)
REMARK    1  A    between atoms: N_1  and  C_13
REMARK    2  A    between atoms: C_10  and  O_17
REMARK    3  A    between atoms: O_17  and  C_20
REMARK    4  A    between atoms: C_19  and  N_25
REMARK                            x       y       z     vdW  Elec       q    Type
REMARK                         _______ _______ _______ _____ _____    ______ ____
ROOT
ATOM      1  N   UNL     1      33.234 -13.691 -21.561  0.00  0.00    +0.389 N 
ATOM      2  C   UNL     1      33.432 -14.792 -20.607  0.00  0.00    -0.073 C 
ATOM      3  C   UNL     1      33.176 -14.137 -22.962  0.00  0.00    -0.073 C 
ATOM      4  C   UNL     1      34.838 -15.398 -20.661  0.00  0.00    +0.003 C 
ATOM      5  C   UNL     1      34.529 -14.604 -23.508  0.00  0.00    +0.003 C 
ATOM      6  C   UNL     1      35.018 -16.397 -21.776  0.00  0.00    -0.025 C 
ATOM      7  C   UNL     1      34.872 -16.021 -23.124  0.00  0.00    -0.028 C 
ATOM      8  C   UNL     1      35.352 -17.725 -21.467  0.00  0.00    +0.033 C 
ATOM      9  C   UNL     1      35.064 -16.983 -24.130  0.00  0.00    -0.002 C 
ATOM     10  C   UNL     1      35.536 -18.671 -22.476  0.00  0.00    +0.147 C 
ATOM     11  C   UNL     1      35.392 -18.299 -23.807  0.00  0.00    +0.037 C 
ATOM     12  H   UNL     1      34.037 -13.066 -21.478  0.00  0.00    -0.080 HD
ENDROOT
BRANCH   1  13
ATOM     13  C   UNL     1      31.995 -13.031 -21.238  0.00  0.00    -0.058 C 
ATOM     14  C   UNL     1      32.215 -11.937 -20.173  0.00  0.00    -0.021 C 
ATOM     15  C   UNL     1      31.702 -11.892 -22.237  0.00  0.00    -0.021 C 
ATOM     16  C   UNL     1      31.295 -11.034 -21.021  0.00  0.00    -0.004 C 
ENDBRANCH   1  13
BRANCH  10  17
ATOM     17  O   UNL     1      35.858 -19.953 -22.157  0.00  0.00    -0.436 OA
BRANCH  17  20
ATOM     18  N   UNL     1      35.857 -21.368 -20.318  0.00  0.00    -0.209 NA
ATOM     19  C   UNL     1      33.802 -21.756 -19.102  0.00  0.00    +0.073 C 
ATOM     20  C   UNL     1      35.154 -20.557 -21.128  0.00  0.00    +0.230 C 
ATOM     21  C   UNL     1      33.122 -20.907 -19.968  0.00  0.00    +0.021 C 
ATOM     22  C   UNL     1      35.157 -21.952 -19.318  0.00  0.00    +0.117 C 
ATOM     23  C   UNL     1      33.806 -20.289 -21.009  0.00  0.00    +0.059 C 
BRANCH  19  25
ATOM     24  O   UNL     1      34.887 -23.487 -16.831  0.00  0.00    -0.275 OA
ATOM     25  N   UNL     1      33.128 -22.404 -18.026  0.00  0.00    -0.257 N 
ATOM     26  C   UNL     1      31.440 -22.809 -16.462  0.00  0.00    +0.031 C 
ATOM     27  C   UNL     1      31.683 -22.386 -17.895  0.00  0.00    +0.099 C 
ATOM     28  C   UNL     1      32.593 -23.748 -16.171  0.00  0.00    +0.087 C 
ATOM     29  C   UNL     1      33.715 -23.196 -17.021  0.00  0.00    +0.229 C 
ENDBRANCH  19  25
ENDBRANCH  17  20
ENDBRANCH  10  17
TORSDOF 4
ENDMDL
MODEL 5
REMARK VINA RESULT:     -12.6      2.375      4.678
REMARK  Name = 9976892
REMARK  4 active torsions:
REMARK  status: ('A' for Active; 'I' for Inactive)
REMARK    1  A    between atoms: N_1  and  C_13
REMARK    2  A    between atoms: C_10  and  O_17
REMARK    3  A    between atoms: O_17  and  C_20
REMARK    4  A    between atoms: C_19  and  N_25
REMARK                            x       y       z     vdW  Elec       q    Type
REMARK                         _______ _______ _______ _____ _____    ______ ____
ROOT
ATOM      1  N   UNL     1      33.051 -13.317 -21.323  0.00  0.00    +0.389 N 
ATOM      2  C   UNL     1      32.959 -14.600 -20.611  0.00  0.00    -0.073 C 
ATOM      3  C   UNL     1      33.204 -13.468 -22.778  0.00  0.00    -0.073 C 
ATOM      4  C   UNL     1      34.283 -15.371 -20.573  0.00  0.00    +0.003 C 
ATOM      5  C   UNL     1      34.579 -14.001 -23.193  0.00  0.00    +0.003 C 
ATOM      6  C   UNL     1      34.560 -16.148 -21.835  0.00  0.00    -0.025 C 
ATOM      7  C   UNL     1      34.700 -15.499 -23.075  0.00  0.00    -0.028 C 
ATOM      8  C   UNL     1      34.696 -17.544 -21.772  0.00  0.00    +0.033 C 
ATOM      9  C   UNL     1      34.974 -16.263 -24.223  0.00  0.00    -0.002 C 
ATOM     10  C   UNL     1      34.962 -18.290 -22.919  0.00  0.00    +0.147 C 
ATOM     11  C   UNL     1      35.102 -17.649 -24.145  0.00  0.00    +0.037 C 
ATOM     12  H   UNL     1      33.885 -12.837 -20.982  0.00  0.00    -0.080 HD
ENDROOT
BRANCH   1  13
ATOM     13  C   UNL     1      31.848 -12.569 -21.063  0.00  0.00    -0.058 C 
ATOM     14  C   UNL     1      32.117 -11.422 -20.067  0.00  0.00    -0.021 C 
ATOM     15  C   UNL     1      31.633 -11.483 -22.138  0.00  0.00    -0.021 C 
ATOM     16  C   UNL     1      31.260 -10.526 -20.986  0.00  0.00    -0.004 C 
ENDBRANCH   1  13
BRANCH  10  17
ATOM     17  O   UNL     1      35.089 -19.642 -22.839  0.00  0.00    -0.436 OA
BRANCH  17  20
ATOM     18  N   UNL     1      34.371 -20.797 -20.959  0.00  0.00    -0.209 NA
ATOM     19  C   UNL     1      35.929 -21.269 -19.171  0.00  0.00    +0.073 C 
ATOM     20  C   UNL     1      35.384 -20.188 -21.600  0.00  0.00    +0.230 C 
ATOM     21  C   UNL     1      36.942 -20.628 -19.876  0.00  0.00    +0.021 C 
ATOM     22  C   UNL     1      34.672 -21.326 -19.751  0.00  0.00    +0.117 C 
ATOM     23  C   UNL     1      36.671 -20.071 -21.121  0.00  0.00    +0.059 C 
BRANCH  19  25
ATOM     24  O   UNL     1      34.321 -23.316 -17.573  0.00  0.00    -0.275 OA
ATOM     25  N   UNL     1      36.176 -21.848 -17.892  0.00  0.00    -0.257 N 
ATOM     26  C   UNL     1      37.414 -22.560 -16.042  0.00  0.00    +0.031 C 
ATOM     27  C   UNL     1      37.299 -21.450 -17.065  0.00  0.00    +0.099 C 
ATOM     28  C   UNL     1      35.982 -23.024 -15.864  0.00  0.00    +0.087 C 
ATOM     29  C   UNL     1      35.367 -22.788 -17.224  0.00  0.00    +0.229 C 
ENDBRANCH  19  25
ENDBRANCH  17  20
ENDBRANCH  10  17
TORSDOF 4
ENDMDL
MODEL 6
REMARK VINA RESULT:     -12.3      2.476      4.142
REMARK  Name = 9976892
REMARK  4 active torsions:
REMARK  status: ('A' for Active; 'I' for Inactive)
REMARK    1  A    between atoms: N_1  and  C_13
REMARK    2  A    between atoms: C_10  and  O_17
REMARK    3  A    between atoms: O_17  and  C_20
REMARK    4  A    between atoms: C_19  and  N_25
REMARK                            x       y       z     vdW  Elec       q    Type
REMARK                         _______ _______ _______ _____ _____    ______ ____
ROOT
ATOM      1  N   UNL     1      32.816 -12.844 -21.809  0.00  0.00    +0.389 N 
ATOM      2  C   UNL     1      33.494 -13.883 -21.020  0.00  0.00    -0.073 C 
ATOM      3  C   UNL     1      32.339 -13.323 -23.117  0.00  0.00    -0.073 C 
ATOM      4  C   UNL     1      34.866 -14.274 -21.580  0.00  0.00    +0.003 C 
ATOM      5  C   UNL     1      33.470 -13.595 -24.114  0.00  0.00    +0.003 C 
ATOM      6  C   UNL     1      34.790 -15.258 -22.720  0.00  0.00    -0.025 C 
ATOM      7  C   UNL     1      34.129 -14.937 -23.919  0.00  0.00    -0.028 C 
ATOM      8  C   UNL     1      35.402 -16.515 -22.589  0.00  0.00    +0.033 C 
ATOM      9  C   UNL     1      34.098 -15.880 -24.960  0.00  0.00    -0.002 C 
ATOM     10  C   UNL     1      35.359 -17.444 -23.629  0.00  0.00    +0.147 C 
ATOM     11  C   UNL     1      34.707 -17.125 -24.814  0.00  0.00    +0.037 C 
ATOM     12  H   UNL     1      33.497 -12.105 -21.991  0.00  0.00    -0.080 HD
ENDROOT
BRANCH   1  13
ATOM     13  C   UNL     1      31.685 -12.369 -21.055  0.00  0.00    -0.058 C 
ATOM     14  C   UNL     1      32.124 -11.338 -19.995  0.00  0.00    -0.021 C 
ATOM     15  C   UNL     1      30.985 -11.205 -21.786  0.00  0.00    -0.021 C 
ATOM     16  C   UNL     1      30.902 -10.497 -20.418  0.00  0.00    -0.004 C 
ENDBRANCH   1  13
BRANCH  10  17
ATOM     17  O   UNL     1      35.957 -18.657 -23.483  0.00  0.00    -0.436 OA
BRANCH  17  20
ATOM     18  N   UNL     1      34.288 -19.676 -22.235  0.00  0.00    -0.209 NA
ATOM     19  C   UNL     1      34.867 -20.922 -20.245  0.00  0.00    +0.073 C 
ATOM     20  C   UNL     1      35.600 -19.423 -22.386  0.00  0.00    +0.230 C 
ATOM     21  C   UNL     1      36.212 -20.632 -20.448  0.00  0.00    +0.021 C 
ATOM     22  C   UNL     1      33.952 -20.425 -21.159  0.00  0.00    +0.117 C 
ATOM     23  C   UNL     1      36.596 -19.865 -21.541  0.00  0.00    +0.059 C 
BRANCH  19  25
ATOM     24  O   UNL     1      36.432 -21.965 -17.838  0.00  0.00    -0.275 OA
ATOM     25  N   UNL     1      34.443 -21.706 -19.132  0.00  0.00    -0.257 N 
ATOM     26  C   UNL     1      32.971 -22.615 -17.562  0.00  0.00    +0.031 C 
ATOM     27  C   UNL     1      33.094 -22.225 -19.020  0.00  0.00    +0.099 C 
ATOM     28  C   UNL     1      34.380 -23.028 -17.188  0.00  0.00    +0.087 C 
ATOM     29  C   UNL     1      35.245 -22.150 -18.063  0.00  0.00    +0.229 C 
ENDBRANCH  19  25
ENDBRANCH  17  20
ENDBRANCH  10  17
TORSDOF 4
ENDMDL
MODEL 7
REMARK VINA RESULT:     -12.2      3.430     10.918
REMARK  Name = 9976892
REMARK  4 active torsions:
REMARK  status: ('A' for Active; 'I' for Inactive)
REMARK    1  A    between atoms: N_1  and  C_13
REMARK    2  A    between atoms: C_10  and  O_17
REMARK    3  A    between atoms: O_17  and  C_20
REMARK    4  A    between atoms: C_19  and  N_25
REMARK                            x       y       z     vdW  Elec       q    Type
REMARK                         _______ _______ _______ _____ _____    ______ ____
ROOT
ATOM      1  N   UNL     1      34.294 -16.193 -21.981  0.00  0.00    +0.389 N 
ATOM      2  C   UNL     1      33.821 -15.353 -20.871  0.00  0.00    -0.073 C 
ATOM      3  C   UNL     1      34.807 -15.416 -23.121  0.00  0.00    -0.073 C 
ATOM      4  C   UNL     1      32.518 -14.610 -21.183  0.00  0.00    +0.003 C 
ATOM      5  C   UNL     1      33.710 -14.688 -23.903  0.00  0.00    +0.003 C 
ATOM      6  C   UNL     1      32.724 -13.349 -21.984  0.00  0.00    -0.025 C 
ATOM      7  C   UNL     1      33.288 -13.386 -23.271  0.00  0.00    -0.028 C 
ATOM      8  C   UNL     1      32.333 -12.115 -21.441  0.00  0.00    +0.033 C 
ATOM      9  C   UNL     1      33.447 -12.187 -23.987  0.00  0.00    -0.002 C 
ATOM     10  C   UNL     1      32.500 -10.931 -22.160  0.00  0.00    +0.147 C 
ATOM     11  C   UNL     1      33.057 -10.968 -23.433  0.00  0.00    +0.037 C 
ATOM     12  H   UNL     1      33.496 -16.731 -22.320  0.00  0.00    -0.080 HD
ENDROOT
BRANCH   1  13
ATOM     13  C   UNL     1      35.351 -17.039 -21.489  0.00  0.00    -0.058 C 
ATOM     14  C   UNL     1      34.824 -18.453 -21.175  0.00  0.00    -0.021 C 
ATOM     15  C   UNL     1      36.136 -17.673 -22.656  0.00  0.00    -0.021 C 
ATOM     16  C   UNL     1      36.093 -18.997 -21.864  0.00  0.00    -0.004 C 
ENDBRANCH   1  13
BRANCH  10  17
ATOM     17  O   UNL     1      32.117  -9.744 -21.618  0.00  0.00    -0.436 OA
BRANCH  17  20
ATOM     18  N   UNL     1      31.206  -8.419 -23.290  0.00  0.00    -0.209 NA
ATOM     19  C   UNL     1      32.353  -6.407 -23.987  0.00  0.00    +0.073 C 
ATOM     20  C   UNL     1      32.206  -8.614 -22.413  0.00  0.00    +0.230 C 
ATOM     21  C   UNL     1      33.361  -6.655 -23.063  0.00  0.00    +0.021 C 
ATOM     22  C   UNL     1      31.306  -7.312 -24.061  0.00  0.00    +0.117 C 
ATOM     23  C   UNL     1      33.295  -7.783 -22.253  0.00  0.00    +0.059 C 
BRANCH  19  25
ATOM     24  O   UNL     1      30.650  -3.871 -23.977  0.00  0.00    -0.275 OA
ATOM     25  N   UNL     1      32.394  -5.259 -24.831  0.00  0.00    -0.257 N 
ATOM     26  C   UNL     1      33.302  -3.689 -26.305  0.00  0.00    +0.031 C 
ATOM     27  C   UNL     1      33.292  -5.165 -25.966  0.00  0.00    +0.099 C 
ATOM     28  C   UNL     1      31.910  -3.230 -25.918  0.00  0.00    +0.087 C 
ATOM     29  C   UNL     1      31.556  -4.130 -24.756  0.00  0.00    +0.229 C 
ENDBRANCH  19  25
ENDBRANCH  17  20
ENDBRANCH  10  17
TORSDOF 4
ENDMDL
MODEL 8
REMARK VINA RESULT:     -12.1      4.283     11.029
REMARK  Name = 9976892
REMARK  4 active torsions:
REMARK  status: ('A' for Active; 'I' for Inactive)
REMARK    1  A    between atoms: N_1  and  C_13
REMARK    2  A    between atoms: C_10  and  O_17
REMARK    3  A    between atoms: O_17  and  C_20
REMARK    4  A    between atoms: C_19  and  N_25
REMARK                            x       y       z     vdW  Elec       q    Type
REMARK                         _______ _______ _______ _____ _____    ______ ____
ROOT
ATOM      1  N   UNL     1      31.919 -23.517 -15.763  0.00  0.00    +0.389 N 
ATOM      2  C   UNL     1      31.959 -23.156 -17.187  0.00  0.00    -0.073 C 
ATOM      3  C   UNL     1      33.004 -22.908 -14.977  0.00  0.00    -0.073 C 
ATOM      4  C   UNL     1      33.119 -23.807 -17.948  0.00  0.00    +0.003 C 
ATOM      5  C   UNL     1      34.381 -23.509 -15.274  0.00  0.00    +0.003 C 
ATOM      6  C   UNL     1      34.430 -23.082 -17.777  0.00  0.00    -0.025 C 
ATOM      7  C   UNL     1      35.027 -22.941 -16.512  0.00  0.00    -0.028 C 
ATOM      8  C   UNL     1      35.075 -22.549 -18.904  0.00  0.00    +0.033 C 
ATOM      9  C   UNL     1      36.257 -22.270 -16.403  0.00  0.00    -0.002 C 
ATOM     10  C   UNL     1      36.294 -21.881 -18.782  0.00  0.00    +0.147 C 
ATOM     11  C   UNL     1      36.885 -21.743 -17.531  0.00  0.00    +0.037 C 
ATOM     12  H   UNL     1      32.034 -24.529 -15.700  0.00  0.00    -0.080 HD
ENDROOT
BRANCH   1  13
ATOM     13  C   UNL     1      30.658 -23.078 -15.221  0.00  0.00    -0.058 C 
ATOM     14  C   UNL     1      29.742 -22.529 -16.333  0.00  0.00    -0.021 C 
ATOM     15  C   UNL     1      29.673 -24.258 -15.097  0.00  0.00    -0.021 C 
ATOM     16  C   UNL     1      28.593 -23.316 -15.669  0.00  0.00    -0.004 C 
ENDBRANCH   1  13
BRANCH  10  17
ATOM     17  O   UNL     1      36.904 -21.370 -19.885  0.00  0.00    -0.436 OA
BRANCH  17  20
ATOM     18  N   UNL     1      37.222 -19.159 -20.513  0.00  0.00    -0.209 NA
ATOM     19  C   UNL     1      35.393 -17.913 -21.488  0.00  0.00    +0.073 C 
ATOM     20  C   UNL     1      36.383 -20.207 -20.428  0.00  0.00    +0.230 C 
ATOM     21  C   UNL     1      34.567 -19.026 -21.378  0.00  0.00    +0.021 C 
ATOM     22  C   UNL     1      36.701 -18.030 -21.045  0.00  0.00    +0.117 C 
ATOM     23  C   UNL     1      35.066 -20.205 -20.836  0.00  0.00    +0.059 C 
BRANCH  19  25
ATOM     24  O   UNL     1      35.151 -17.001 -24.393  0.00  0.00    -0.275 OA
ATOM     25  N   UNL     1      34.909 -16.690 -22.039  0.00  0.00    -0.257 N 
ATOM     26  C   UNL     1      33.696 -14.695 -22.145  0.00  0.00    +0.031 C 
ATOM     27  C   UNL     1      34.493 -15.577 -21.206  0.00  0.00    +0.099 C 
ATOM     28  C   UNL     1      34.360 -14.922 -23.489  0.00  0.00    +0.087 C 
ATOM     29  C   UNL     1      34.841 -16.352 -23.404  0.00  0.00    +0.229 C 
ENDBRANCH  19  25
ENDBRANCH  17  20
ENDBRANCH  10  17
TORSDOF 4
ENDMDL
MODEL 9
REMARK VINA RESULT:     -12.0      2.506      4.472
REMARK  Name = 9976892
REMARK  4 active torsions:
REMARK  status: ('A' for Active; 'I' for Inactive)
REMARK    1  A    between atoms: N_1  and  C_13
REMARK    2  A    between atoms: C_10  and  O_17
REMARK    3  A    between atoms: O_17  and  C_20
REMARK    4  A    between atoms: C_19  and  N_25
REMARK                            x       y       z     vdW  Elec       q    Type
REMARK                         _______ _______ _______ _____ _____    ______ ____
ROOT
ATOM      1  N   UNL     1      32.127  -5.222 -23.348  0.00  0.00    +0.389 N 
ATOM      2  C   UNL     1      31.099  -6.046 -22.696  0.00  0.00    -0.073 C 
ATOM      3  C   UNL     1      32.990  -5.985 -24.264  0.00  0.00    -0.073 C 
ATOM      4  C   UNL     1      31.666  -7.009 -21.647  0.00  0.00    +0.003 C 
ATOM      5  C   UNL     1      33.953  -6.933 -23.543  0.00  0.00    +0.003 C 
ATOM      6  C   UNL     1      32.233  -8.274 -22.240  0.00  0.00    -0.025 C 
ATOM      7  C   UNL     1      33.315  -8.238 -23.137  0.00  0.00    -0.028 C 
ATOM      8  C   UNL     1      31.681  -9.513 -21.880  0.00  0.00    +0.033 C 
ATOM      9  C   UNL     1      33.821  -9.444 -23.653  0.00  0.00    -0.002 C 
ATOM     10  C   UNL     1      32.190 -10.702 -22.403  0.00  0.00    +0.147 C 
ATOM     11  C   UNL     1      33.260 -10.667 -23.288  0.00  0.00    +0.037 C 
ATOM     12  H   UNL     1      32.727  -4.844 -22.614  0.00  0.00    -0.080 HD
ENDROOT
BRANCH   1  13
ATOM     13  C   UNL     1      31.466  -4.185 -24.098  0.00  0.00    -0.058 C 
ATOM     14  C   UNL     1      31.925  -2.789 -23.630  0.00  0.00    -0.021 C 
ATOM     15  C   UNL     1      32.210  -3.903 -25.420  0.00  0.00    -0.021 C 
ATOM     16  C   UNL     1      32.012  -2.402 -25.121  0.00  0.00    -0.004 C 
ENDBRANCH   1  13
BRANCH  10  17
ATOM     17  O   UNL     1      31.641 -11.894 -22.043  0.00  0.00    -0.436 OA
BRANCH  17  20
ATOM     18  N   UNL     1      32.685 -13.355 -23.512  0.00  0.00    -0.209 NA
ATOM     19  C   UNL     1      33.883 -15.271 -22.652  0.00  0.00    +0.073 C 
ATOM     20  C   UNL     1      32.399 -13.037 -22.237  0.00  0.00    +0.230 C 
ATOM     21  C   UNL     1      33.560 -14.898 -21.352  0.00  0.00    +0.021 C 
ATOM     22  C   UNL     1      33.426 -14.473 -23.688  0.00  0.00    +0.117 C 
ATOM     23  C   UNL     1      32.800 -13.755 -21.131  0.00  0.00    +0.059 C 
BRANCH  19  25
ATOM     24  O   UNL     1      35.418 -17.099 -20.745  0.00  0.00    -0.275 OA
ATOM     25  N   UNL     1      34.661 -16.438 -22.910  0.00  0.00    -0.257 N 
ATOM     26  C   UNL     1      35.393 -18.340 -24.053  0.00  0.00    +0.031 C 
ATOM     27  C   UNL     1      34.911 -16.919 -24.256  0.00  0.00    +0.099 C 
ATOM     28  C   UNL     1      36.107 -18.283 -22.717  0.00  0.00    +0.087 C 
ATOM     29  C   UNL     1      35.345 -17.220 -21.959  0.00  0.00    +0.229 C 
ENDBRANCH  19  25
ENDBRANCH  17  20
ENDBRANCH  10  17
TORSDOF 4
ENDMDL
