MODEL 1
REMARK VINA RESULT:     -12.7      0.000      0.000
REMARK  Name = 6420159
REMARK  9 active torsions:
REMARK  status: ('A' for Active; 'I' for Inactive)
REMARK    1  A    between atoms: C_1  and  N_3
REMARK    2  A    between atoms: C_1  and  C_15
REMARK    3  A    between atoms: C_1  and  C_29
REMARK    4  A    between atoms: N_14  and  C_17
REMARK    5  A    between atoms: C_17  and  C_18
REMARK    6  A    between atoms: C_18  and  N_19
REMARK    7  A    between atoms: N_19  and  C_21
REMARK    8  A    between atoms: C_26  and  O_27
REMARK    9  A    between atoms: C_29  and  C_30
REMARK                            x       y       z     vdW  Elec       q    Type
REMARK                         _______ _______ _______ _____ _____    ______ ____
ROOT
ATOM      1  C   UNL     1      33.596 -23.382 -17.250  0.00  0.00    +0.151 C 
ENDROOT
BRANCH   1   3
ATOM      2  O   UNL     1      36.126 -22.885 -14.644  0.00  0.00    -0.414 OA
ATOM      3  N   UNL     1      34.508 -22.827 -16.273  0.00  0.00    -0.271 N 
ATOM      4  N   UNL     1      35.482 -24.885 -15.495  0.00  0.00    -0.356 NA
ATOM      5  C   UNL     1      35.355 -23.595 -15.494  0.00  0.00    +0.345 C 
ATOM      6  C   UNL     1      36.845 -23.861 -14.015  0.00  0.00    +0.175 C 
ATOM      7  C   UNL     1      36.449 -25.083 -14.539  0.00  0.00    +0.152 C 
ATOM      8  C   UNL     1      37.808 -23.699 -13.027  0.00  0.00    +0.040 C 
ATOM      9  C   UNL     1      37.046 -26.255 -14.053  0.00  0.00    +0.088 C 
ATOM     10  C   UNL     1      38.395 -24.877 -12.553  0.00  0.00    -0.001 C 
ATOM     11  C   UNL     1      38.023 -26.131 -13.054  0.00  0.00    -0.018 C 
ATOM     12  H   UNL     1      34.526 -21.850 -16.156  0.00  0.00    +0.153 HD
ENDBRANCH   1   3
BRANCH   1  15
ATOM     13  O   UNL     1      33.819 -23.700 -19.641  0.00  0.00    -0.273 OA
ATOM     14  N   UNL     1      34.947 -21.938 -18.642  0.00  0.00    -0.301 N 
ATOM     15  C   UNL     1      34.112 -23.046 -18.643  0.00  0.00    +0.240 C 
ATOM     16  H   UNL     1      35.125 -21.475 -17.792  0.00  0.00    +0.150 HD
BRANCH  14  17
ATOM     17  C   UNL     1      35.564 -21.443 -19.849  0.00  0.00    +0.111 C 
BRANCH  17  18
ATOM     18  C   UNL     1      34.672 -20.456 -20.587  0.00  0.00    +0.109 C 
BRANCH  18  19
ATOM     19  N   UNL     1      35.439 -19.314 -21.026  0.00  0.00    -0.331 N 
ATOM     20  H   UNL     1      36.147 -18.974 -20.432  0.00  0.00    +0.147 HD
BRANCH  19  21
ATOM     21  C   UNL     1      35.236 -18.670 -22.236  0.00  0.00    +0.045 C 
ATOM     22  C   UNL     1      35.387 -17.275 -22.345  0.00  0.00    +0.017 C 
ATOM     23  C   UNL     1      34.871 -19.392 -23.387  0.00  0.00    +0.017 C 
ATOM     24  C   UNL     1      35.181 -16.626 -23.563  0.00  0.00    +0.038 C 
ATOM     25  C   UNL     1      34.665 -18.743 -24.604  0.00  0.00    +0.038 C 
ATOM     26  C   UNL     1      34.819 -17.360 -24.692  0.00  0.00    +0.139 C 
BRANCH  26  27
ATOM     27  O   UNL     1      34.619 -16.727 -25.880  0.00  0.00    -0.471 OA
ATOM     28  C   UNL     1      33.700 -15.636 -25.889  0.00  0.00    +0.252 C 
ENDBRANCH  26  27
ENDBRANCH  19  21
ENDBRANCH  18  19
ENDBRANCH  17  18
ENDBRANCH  14  17
ENDBRANCH   1  15
BRANCH   1  29
ATOM     29  C   UNL     1      32.192 -22.805 -17.057  0.00  0.00    +0.029 C 
BRANCH  29  30
ATOM     30  C   UNL     1      31.177 -23.865 -16.636  0.00  0.00    +0.002 C 
ATOM     31  C   UNL     1      29.749 -23.310 -16.714  0.00  0.00    +0.000 C 
ATOM     32  C   UNL     1      31.485 -24.381 -15.223  0.00  0.00    +0.000 C 
ATOM     33  C   UNL     1      28.719 -24.336 -16.247  0.00  0.00    +0.000 C 
ATOM     34  C   UNL     1      30.453 -25.404 -14.758  0.00  0.00    +0.000 C 
ATOM     35  C   UNL     1      29.034 -24.851 -14.846  0.00  0.00    +0.000 C 
ENDBRANCH  29  30
ENDBRANCH   1  29
TORSDOF 9
ENDMDL
MODEL 2
REMARK VINA RESULT:     -12.1      1.356      5.138
REMARK  Name = 6420159
REMARK  9 active torsions:
REMARK  status: ('A' for Active; 'I' for Inactive)
REMARK    1  A    between atoms: C_1  and  N_3
REMARK    2  A    between atoms: C_1  and  C_15
REMARK    3  A    between atoms: C_1  and  C_29
REMARK    4  A    between atoms: N_14  and  C_17
REMARK    5  A    between atoms: C_17  and  C_18
REMARK    6  A    between atoms: C_18  and  N_19
REMARK    7  A    between atoms: N_19  and  C_21
REMARK    8  A    between atoms: C_26  and  O_27
REMARK    9  A    between atoms: C_29  and  C_30
REMARK                            x       y       z     vdW  Elec       q    Type
REMARK                         _______ _______ _______ _____ _____    ______ ____
ROOT
ATOM      1  C   UNL     1      35.770 -22.633 -16.272  0.00  0.00    +0.151 C 
ENDROOT
BRANCH   1   3
ATOM      2  O   UNL     1      32.282 -23.623 -16.815  0.00  0.00    -0.414 OA
ATOM      3  N   UNL     1      34.462 -22.900 -16.831  0.00  0.00    -0.271 N 
ATOM      4  N   UNL     1      33.424 -23.823 -14.867  0.00  0.00    -0.356 NA
ATOM      5  C   UNL     1      33.420 -23.456 -16.110  0.00  0.00    +0.345 C 
ATOM      6  C   UNL     1      31.442 -24.174 -15.890  0.00  0.00    +0.175 C 
ATOM      7  C   UNL     1      32.144 -24.294 -14.699  0.00  0.00    +0.152 C 
ATOM      8  C   UNL     1      30.119 -24.557 -16.070  0.00  0.00    +0.040 C 
ATOM      9  C   UNL     1      31.495 -24.838 -13.582  0.00  0.00    +0.088 C 
ATOM     10  C   UNL     1      29.485 -25.097 -14.946  0.00  0.00    -0.001 C 
ATOM     11  C   UNL     1      30.158 -25.236 -13.725  0.00  0.00    -0.018 C 
ATOM     12  H   UNL     1      34.305 -22.673 -17.776  0.00  0.00    +0.153 HD
ENDBRANCH   1   3
BRANCH   1  15
ATOM     13  O   UNL     1      37.629 -21.264 -17.004  0.00  0.00    -0.273 OA
ATOM     14  N   UNL     1      35.990 -21.830 -18.543  0.00  0.00    -0.301 N 
ATOM     15  C   UNL     1      36.580 -21.837 -17.287  0.00  0.00    +0.240 C 
ATOM     16  H   UNL     1      35.147 -22.319 -18.677  0.00  0.00    +0.150 HD
BRANCH  14  17
ATOM     17  C   UNL     1      36.574 -21.128 -19.660  0.00  0.00    +0.111 C 
BRANCH  17  18
ATOM     18  C   UNL     1      35.524 -20.639 -20.645  0.00  0.00    +0.109 C 
BRANCH  18  19
ATOM     19  N   UNL     1      35.724 -19.240 -20.941  0.00  0.00    -0.331 N 
ATOM     20  H   UNL     1      36.094 -18.663 -20.234  0.00  0.00    +0.147 HD
BRANCH  19  21
ATOM     21  C   UNL     1      35.424 -18.662 -22.165  0.00  0.00    +0.045 C 
ATOM     22  C   UNL     1      35.067 -19.456 -23.270  0.00  0.00    +0.017 C 
ATOM     23  C   UNL     1      35.469 -17.266 -22.334  0.00  0.00    +0.017 C 
ATOM     24  C   UNL     1      34.767 -18.874 -24.502  0.00  0.00    +0.038 C 
ATOM     25  C   UNL     1      35.169 -16.684 -23.566  0.00  0.00    +0.038 C 
ATOM     26  C   UNL     1      34.818 -17.488 -24.650  0.00  0.00    +0.139 C 
BRANCH  26  27
ATOM     27  O   UNL     1      34.523 -16.920 -25.851  0.00  0.00    -0.471 OA
ATOM     28  C   UNL     1      33.849 -15.663 -25.828  0.00  0.00    +0.252 C 
ENDBRANCH  26  27
ENDBRANCH  19  21
ENDBRANCH  18  19
ENDBRANCH  17  18
ENDBRANCH  14  17
ENDBRANCH   1  15
BRANCH   1  29
ATOM     29  C   UNL     1      36.485 -23.945 -15.943  0.00  0.00    +0.029 C 
BRANCH  29  30
ATOM     30  C   UNL     1      37.419 -23.816 -14.741  0.00  0.00    +0.002 C 
ATOM     31  C   UNL     1      38.100 -25.156 -14.437  0.00  0.00    +0.000 C 
ATOM     32  C   UNL     1      36.655 -23.301 -13.513  0.00  0.00    +0.000 C 
ATOM     33  C   UNL     1      38.999 -25.066 -13.206  0.00  0.00    +0.000 C 
ATOM     34  C   UNL     1      37.555 -23.215 -12.284  0.00  0.00    +0.000 C 
ATOM     35  C   UNL     1      38.238 -24.547 -11.991  0.00  0.00    +0.000 C 
ENDBRANCH  29  30
ENDBRANCH   1  29
TORSDOF 9
ENDMDL
MODEL 3
REMARK VINA RESULT:     -12.0      5.225     12.917
REMARK  Name = 6420159
REMARK  9 active torsions:
REMARK  status: ('A' for Active; 'I' for Inactive)
REMARK    1  A    between atoms: C_1  and  N_3
REMARK    2  A    between atoms: C_1  and  C_15
REMARK    3  A    between atoms: C_1  and  C_29
REMARK    4  A    between atoms: N_14  and  C_17
REMARK    5  A    between atoms: C_17  and  C_18
REMARK    6  A    between atoms: C_18  and  N_19
REMARK    7  A    between atoms: N_19  and  C_21
REMARK    8  A    between atoms: C_26  and  O_27
REMARK    9  A    between atoms: C_29  and  C_30
REMARK                            x       y       z     vdW  Elec       q    Type
REMARK                         _______ _______ _______ _____ _____    ______ ____
ROOT
ATOM      1  C   UNL     1      32.605 -13.611 -21.813  0.00  0.00    +0.151 C 
ENDROOT
BRANCH   1   3
ATOM      2  O   UNL     1      32.207 -10.235 -20.439  0.00  0.00    -0.414 OA
ATOM      3  N   UNL     1      32.503 -12.455 -20.947  0.00  0.00    -0.271 N 
ATOM      4  N   UNL     1      32.100 -10.789 -22.635  0.00  0.00    -0.356 NA
ATOM      5  C   UNL     1      32.265 -11.172 -21.408  0.00  0.00    +0.345 C 
ATOM      6  C   UNL     1      31.969  -9.093 -21.150  0.00  0.00    +0.175 C 
ATOM      7  C   UNL     1      31.904  -9.436 -22.493  0.00  0.00    +0.152 C 
ATOM      8  C   UNL     1      31.814  -7.805 -20.654  0.00  0.00    +0.040 C 
ATOM      9  C   UNL     1      31.666  -8.429 -23.438  0.00  0.00    +0.088 C 
ATOM     10  C   UNL     1      31.577  -6.812 -21.610  0.00  0.00    -0.001 C 
ATOM     11  C   UNL     1      31.504  -7.115 -22.975  0.00  0.00    -0.018 C 
ATOM     12  H   UNL     1      32.609 -12.589 -19.978  0.00  0.00    +0.153 HD
ENDBRANCH   1   3
BRANCH   1  15
ATOM     13  O   UNL     1      32.309 -15.192 -20.002  0.00  0.00    -0.273 OA
ATOM     14  N   UNL     1      34.141 -15.433 -21.402  0.00  0.00    -0.301 N 
ATOM     15  C   UNL     1      32.975 -14.821 -20.966  0.00  0.00    +0.240 C 
ATOM     16  H   UNL     1      34.609 -15.065 -22.186  0.00  0.00    +0.150 HD
BRANCH  14  17
ATOM     17  C   UNL     1      34.691 -16.593 -20.743  0.00  0.00    +0.111 C 
BRANCH  17  18
ATOM     18  C   UNL     1      35.490 -17.470 -21.694  0.00  0.00    +0.109 C 
BRANCH  18  19
ATOM     19  N   UNL     1      34.780 -18.697 -21.966  0.00  0.00    -0.331 N 
ATOM     20  H   UNL     1      34.287 -18.770 -22.816  0.00  0.00    +0.147 HD
BRANCH  19  21
ATOM     21  C   UNL     1      34.749 -19.778 -21.099  0.00  0.00    +0.045 C 
ATOM     22  C   UNL     1      35.942 -20.362 -20.632  0.00  0.00    +0.017 C 
ATOM     23  C   UNL     1      33.527 -20.321 -20.664  0.00  0.00    +0.017 C 
ATOM     24  C   UNL     1      35.911 -21.451 -19.761  0.00  0.00    +0.038 C 
ATOM     25  C   UNL     1      33.496 -21.410 -19.793  0.00  0.00    +0.038 C 
ATOM     26  C   UNL     1      34.688 -21.975 -19.342  0.00  0.00    +0.139 C 
BRANCH  26  27
ATOM     27  O   UNL     1      34.658 -23.037 -18.491  0.00  0.00    -0.471 OA
ATOM     28  C   UNL     1      33.531 -23.143 -17.624  0.00  0.00    +0.252 C 
ENDBRANCH  26  27
ENDBRANCH  19  21
ENDBRANCH  18  19
ENDBRANCH  17  18
ENDBRANCH  14  17
ENDBRANCH   1  15
BRANCH   1  29
ATOM     29  C   UNL     1      33.667 -13.378 -22.889  0.00  0.00    +0.029 C 
BRANCH  29  30
ATOM     30  C   UNL     1      33.170 -13.735 -24.288  0.00  0.00    +0.002 C 
ATOM     31  C   UNL     1      33.633 -15.142 -24.686  0.00  0.00    +0.000 C 
ATOM     32  C   UNL     1      33.642 -12.695 -25.313  0.00  0.00    +0.000 C 
ATOM     33  C   UNL     1      33.193 -15.502 -26.103  0.00  0.00    +0.000 C 
ATOM     34  C   UNL     1      33.202 -13.059 -26.729  0.00  0.00    +0.000 C 
ATOM     35  C   UNL     1      33.657 -14.462 -27.117  0.00  0.00    +0.000 C 
ENDBRANCH  29  30
ENDBRANCH   1  29
TORSDOF 9
ENDMDL
MODEL 4
REMARK VINA RESULT:     -11.4      2.051      6.271
REMARK  Name = 6420159
REMARK  9 active torsions:
REMARK  status: ('A' for Active; 'I' for Inactive)
REMARK    1  A    between atoms: C_1  and  N_3
REMARK    2  A    between atoms: C_1  and  C_15
REMARK    3  A    between atoms: C_1  and  C_29
REMARK    4  A    between atoms: N_14  and  C_17
REMARK    5  A    between atoms: C_17  and  C_18
REMARK    6  A    between atoms: C_18  and  N_19
REMARK    7  A    between atoms: N_19  and  C_21
REMARK    8  A    between atoms: C_26  and  O_27
REMARK    9  A    between atoms: C_29  and  C_30
REMARK                            x       y       z     vdW  Elec       q    Type
REMARK                         _______ _______ _______ _____ _____    ______ ____
ROOT
ATOM      1  C   UNL     1      35.091 -24.302 -13.718  0.00  0.00    +0.151 C 
ENDROOT
BRANCH   1   3
ATOM      2  O   UNL     1      31.605 -25.394 -14.026  0.00  0.00    -0.414 OA
ATOM      3  N   UNL     1      33.826 -24.994 -13.597  0.00  0.00    -0.271 N 
ATOM      4  N   UNL     1      32.537 -23.632 -15.105  0.00  0.00    -0.356 NA
ATOM      5  C   UNL     1      32.681 -24.619 -14.277  0.00  0.00    +0.345 C 
ATOM      6  C   UNL     1      30.641 -24.820 -14.804  0.00  0.00    +0.175 C 
ATOM      7  C   UNL     1      31.215 -23.742 -15.462  0.00  0.00    +0.152 C 
ATOM      8  C   UNL     1      29.316 -25.214 -14.938  0.00  0.00    +0.040 C 
ATOM      9  C   UNL     1      30.423 -22.979 -16.332  0.00  0.00    +0.088 C 
ATOM     10  C   UNL     1      28.539 -24.443 -15.809  0.00  0.00    -0.001 C 
ATOM     11  C   UNL     1      29.079 -23.346 -16.493  0.00  0.00    -0.018 C 
ATOM     12  H   UNL     1      33.777 -25.773 -12.997  0.00  0.00    +0.153 HD
ENDBRANCH   1   3
BRANCH   1  15
ATOM     13  O   UNL     1      35.502 -25.145 -15.951  0.00  0.00    -0.273 OA
ATOM     14  N   UNL     1      35.678 -22.864 -15.572  0.00  0.00    -0.301 N 
ATOM     15  C   UNL     1      35.437 -24.177 -15.196  0.00  0.00    +0.240 C 
ATOM     16  H   UNL     1      35.603 -22.153 -14.896  0.00  0.00    +0.150 HD
BRANCH  14  17
ATOM     17  C   UNL     1      36.036 -22.508 -16.924  0.00  0.00    +0.111 C 
BRANCH  17  18
ATOM     18  C   UNL     1      34.833 -22.501 -17.855  0.00  0.00    +0.109 C 
BRANCH  18  19
ATOM     19  N   UNL     1      35.261 -22.416 -19.231  0.00  0.00    -0.331 N 
ATOM     20  H   UNL     1      35.561 -23.242 -19.676  0.00  0.00    +0.147 HD
BRANCH  19  21
ATOM     21  C   UNL     1      35.276 -21.238 -19.961  0.00  0.00    +0.045 C 
ATOM     22  C   UNL     1      34.081 -20.676 -20.448  0.00  0.00    +0.017 C 
ATOM     23  C   UNL     1      36.485 -20.573 -20.236  0.00  0.00    +0.017 C 
ATOM     24  C   UNL     1      34.095 -19.491 -21.184  0.00  0.00    +0.038 C 
ATOM     25  C   UNL     1      36.499 -19.388 -20.972  0.00  0.00    +0.038 C 
ATOM     26  C   UNL     1      35.304 -18.848 -21.446  0.00  0.00    +0.139 C 
BRANCH  26  27
ATOM     27  O   UNL     1      35.319 -17.691 -22.163  0.00  0.00    -0.471 OA
ATOM     28  C   UNL     1      34.952 -16.495 -21.476  0.00  0.00    +0.252 C 
ENDBRANCH  26  27
ENDBRANCH  19  21
ENDBRANCH  18  19
ENDBRANCH  17  18
ENDBRANCH  14  17
ENDBRANCH   1  15
BRANCH   1  29
ATOM     29  C   UNL     1      36.191 -25.071 -12.984  0.00  0.00    +0.029 C 
BRANCH  29  30
ATOM     30  C   UNL     1      37.523 -25.043 -13.732  0.00  0.00    +0.002 C 
ATOM     31  C   UNL     1      37.853 -26.427 -14.305  0.00  0.00    +0.000 C 
ATOM     32  C   UNL     1      38.650 -24.549 -12.814  0.00  0.00    +0.000 C 
ATOM     33  C   UNL     1      39.206 -26.437 -15.012  0.00  0.00    +0.000 C 
ATOM     34  C   UNL     1      40.001 -24.562 -13.523  0.00  0.00    +0.000 C 
ATOM     35  C   UNL     1      40.322 -25.938 -14.100  0.00  0.00    +0.000 C 
ENDBRANCH  29  30
ENDBRANCH   1  29
TORSDOF 9
ENDMDL
MODEL 5
REMARK VINA RESULT:     -11.2      1.229      5.248
REMARK  Name = 6420159
REMARK  9 active torsions:
REMARK  status: ('A' for Active; 'I' for Inactive)
REMARK    1  A    between atoms: C_1  and  N_3
REMARK    2  A    between atoms: C_1  and  C_15
REMARK    3  A    between atoms: C_1  and  C_29
REMARK    4  A    between atoms: N_14  and  C_17
REMARK    5  A    between atoms: C_17  and  C_18
REMARK    6  A    between atoms: C_18  and  N_19
REMARK    7  A    between atoms: N_19  and  C_21
REMARK    8  A    between atoms: C_26  and  O_27
REMARK    9  A    between atoms: C_29  and  C_30
REMARK                            x       y       z     vdW  Elec       q    Type
REMARK                         _______ _______ _______ _____ _____    ______ ____
ROOT
ATOM      1  C   UNL     1      35.009 -22.800 -16.312  0.00  0.00    +0.151 C 
ENDROOT
BRANCH   1   3
ATOM      2  O   UNL     1      32.152 -24.798 -15.177  0.00  0.00    -0.414 OA
ATOM      3  N   UNL     1      34.150 -23.808 -15.726  0.00  0.00    -0.271 N 
ATOM      4  N   UNL     1      32.027 -22.859 -16.345  0.00  0.00    -0.356 NA
ATOM      5  C   UNL     1      32.769 -23.763 -15.785  0.00  0.00    +0.345 C 
ATOM      6  C   UNL     1      30.832 -24.513 -15.379  0.00  0.00    +0.175 C 
ATOM      7  C   UNL     1      30.760 -23.326 -16.094  0.00  0.00    +0.152 C 
ATOM      8  C   UNL     1      29.733 -25.252 -14.960  0.00  0.00    +0.040 C 
ATOM      9  C   UNL     1      29.499 -22.815 -16.432  0.00  0.00    +0.088 C 
ATOM     10  C   UNL     1      28.483 -24.729 -15.305  0.00  0.00    -0.001 C 
ATOM     11  C   UNL     1      28.365 -23.534 -16.026  0.00  0.00    -0.018 C 
ATOM     12  H   UNL     1      34.572 -24.565 -15.261  0.00  0.00    +0.153 HD
ENDBRANCH   1   3
BRANCH   1  15
ATOM     13  O   UNL     1      34.169 -23.692 -18.401  0.00  0.00    -0.273 OA
ATOM     14  N   UNL     1      35.553 -21.833 -18.461  0.00  0.00    -0.301 N 
ATOM     15  C   UNL     1      34.846 -22.843 -17.825  0.00  0.00    +0.240 C 
ATOM     16  H   UNL     1      36.069 -21.196 -17.916  0.00  0.00    +0.150 HD
BRANCH  14  17
ATOM     17  C   UNL     1      35.555 -21.685 -19.896  0.00  0.00    +0.111 C 
BRANCH  17  18
ATOM     18  C   UNL     1      36.438 -20.535 -20.355  0.00  0.00    +0.109 C 
BRANCH  18  19
ATOM     19  N   UNL     1      35.647 -19.346 -20.568  0.00  0.00    -0.331 N 
ATOM     20  H   UNL     1      35.283 -18.882 -19.779  0.00  0.00    +0.147 HD
BRANCH  19  21
ATOM     21  C   UNL     1      35.370 -18.820 -21.820  0.00  0.00    +0.045 C 
ATOM     22  C   UNL     1      35.302 -17.429 -22.020  0.00  0.00    +0.017 C 
ATOM     23  C   UNL     1      35.146 -19.663 -22.924  0.00  0.00    +0.017 C 
ATOM     24  C   UNL     1      35.022 -16.899 -23.280  0.00  0.00    +0.038 C 
ATOM     25  C   UNL     1      34.865 -19.134 -24.184  0.00  0.00    +0.038 C 
ATOM     26  C   UNL     1      34.803 -17.752 -24.361  0.00  0.00    +0.139 C 
BRANCH  26  27
ATOM     27  O   UNL     1      34.531 -17.236 -25.591  0.00  0.00    -0.471 OA
ATOM     28  C   UNL     1      34.109 -15.874 -25.646  0.00  0.00    +0.252 C 
ENDBRANCH  26  27
ENDBRANCH  19  21
ENDBRANCH  18  19
ENDBRANCH  17  18
ENDBRANCH  14  17
ENDBRANCH   1  15
BRANCH   1  29
ATOM     29  C   UNL     1      36.468 -23.059 -15.934  0.00  0.00    +0.029 C 
BRANCH  29  30
ATOM     30  C   UNL     1      36.604 -23.981 -14.724  0.00  0.00    +0.002 C 
ATOM     31  C   UNL     1      37.135 -23.208 -13.510  0.00  0.00    +0.000 C 
ATOM     32  C   UNL     1      37.512 -25.175 -15.051  0.00  0.00    +0.000 C 
ATOM     33  C   UNL     1      37.329 -24.121 -12.301  0.00  0.00    +0.000 C 
ATOM     34  C   UNL     1      37.706 -26.084 -13.840  0.00  0.00    +0.000 C 
ATOM     35  C   UNL     1      38.225 -25.310 -12.632  0.00  0.00    +0.000 C 
ENDBRANCH  29  30
ENDBRANCH   1  29
TORSDOF 9
ENDMDL
MODEL 6
REMARK VINA RESULT:     -10.8      6.881     13.123
REMARK  Name = 6420159
REMARK  9 active torsions:
REMARK  status: ('A' for Active; 'I' for Inactive)
REMARK    1  A    between atoms: C_1  and  N_3
REMARK    2  A    between atoms: C_1  and  C_15
REMARK    3  A    between atoms: C_1  and  C_29
REMARK    4  A    between atoms: N_14  and  C_17
REMARK    5  A    between atoms: C_17  and  C_18
REMARK    6  A    between atoms: C_18  and  N_19
REMARK    7  A    between atoms: N_19  and  C_21
REMARK    8  A    between atoms: C_26  and  O_27
REMARK    9  A    between atoms: C_29  and  C_30
REMARK                            x       y       z     vdW  Elec       q    Type
REMARK                         _______ _______ _______ _____ _____    ______ ____
ROOT
ATOM      1  C   UNL     1      33.279 -11.678 -23.435  0.00  0.00    +0.151 C 
ENDROOT
BRANCH   1   3
ATOM      2  O   UNL     1      31.733  -8.354 -23.487  0.00  0.00    -0.414 OA
ATOM      3  N   UNL     1      32.604 -10.454 -23.812  0.00  0.00    -0.271 N 
ATOM      4  N   UNL     1      32.713  -9.327 -21.689  0.00  0.00    -0.356 NA
ATOM      5  C   UNL     1      32.379  -9.405 -22.939  0.00  0.00    +0.345 C 
ATOM      6  C   UNL     1      31.644  -7.484 -22.438  0.00  0.00    +0.175 C 
ATOM      7  C   UNL     1      32.244  -8.083 -21.340  0.00  0.00    +0.152 C 
ATOM      8  C   UNL     1      31.065  -6.222 -22.432  0.00  0.00    +0.040 C 
ATOM      9  C   UNL     1      32.283  -7.386 -20.124  0.00  0.00    +0.088 C 
ATOM     10  C   UNL     1      31.112  -5.539 -21.212  0.00  0.00    -0.001 C 
ATOM     11  C   UNL     1      31.708  -6.107 -20.080  0.00  0.00    -0.018 C 
ATOM     12  H   UNL     1      32.287 -10.364 -24.740  0.00  0.00    +0.153 HD
ENDBRANCH   1   3
BRANCH   1  15
ATOM     13  O   UNL     1      34.813 -11.942 -25.291  0.00  0.00    -0.273 OA
ATOM     14  N   UNL     1      33.049 -13.432 -25.084  0.00  0.00    -0.301 N 
ATOM     15  C   UNL     1      33.816 -12.345 -24.694  0.00  0.00    +0.240 C 
ATOM     16  H   UNL     1      32.266 -13.683 -24.543  0.00  0.00    +0.150 HD
BRANCH  14  17
ATOM     17  C   UNL     1      33.363 -14.211 -26.258  0.00  0.00    +0.111 C 
BRANCH  17  18
ATOM     18  C   UNL     1      33.326 -15.706 -25.984  0.00  0.00    +0.109 C 
BRANCH  18  19
ATOM     19  N   UNL     1      34.630 -16.177 -25.580  0.00  0.00    -0.331 N 
ATOM     20  H   UNL     1      35.422 -15.784 -26.016  0.00  0.00    +0.147 HD
BRANCH  19  21
ATOM     21  C   UNL     1      34.832 -17.151 -24.615  0.00  0.00    +0.045 C 
ATOM     22  C   UNL     1      35.647 -16.899 -23.495  0.00  0.00    +0.017 C 
ATOM     23  C   UNL     1      34.229 -18.417 -24.729  0.00  0.00    +0.017 C 
ATOM     24  C   UNL     1      35.851 -17.880 -22.524  0.00  0.00    +0.038 C 
ATOM     25  C   UNL     1      34.434 -19.398 -23.758  0.00  0.00    +0.038 C 
ATOM     26  C   UNL     1      35.245 -19.129 -22.656  0.00  0.00    +0.139 C 
BRANCH  26  27
ATOM     27  O   UNL     1      35.443 -20.086 -21.709  0.00  0.00    -0.471 OA
ATOM     28  C   UNL     1      34.388 -20.302 -20.773  0.00  0.00    +0.252 C 
ENDBRANCH  26  27
ENDBRANCH  19  21
ENDBRANCH  18  19
ENDBRANCH  17  18
ENDBRANCH  14  17
ENDBRANCH   1  15
BRANCH   1  29
ATOM     29  C   UNL     1      32.311 -12.620 -22.715  0.00  0.00    +0.029 C 
BRANCH  29  30
ATOM     30  C   UNL     1      32.967 -13.348 -21.544  0.00  0.00    +0.002 C 
ATOM     31  C   UNL     1      34.339 -13.901 -21.949  0.00  0.00    +0.000 C 
ATOM     32  C   UNL     1      32.058 -14.471 -21.026  0.00  0.00    +0.000 C 
ATOM     33  C   UNL     1      34.993 -14.679 -20.810  0.00  0.00    +0.000 C 
ATOM     34  C   UNL     1      32.714 -15.249 -19.889  0.00  0.00    +0.000 C 
ATOM     35  C   UNL     1      34.083 -15.789 -20.293  0.00  0.00    +0.000 C 
ENDBRANCH  29  30
ENDBRANCH   1  29
TORSDOF 9
ENDMDL
MODEL 7
REMARK VINA RESULT:     -10.5      5.355     10.265
REMARK  Name = 6420159
REMARK  9 active torsions:
REMARK  status: ('A' for Active; 'I' for Inactive)
REMARK    1  A    between atoms: C_1  and  N_3
REMARK    2  A    between atoms: C_1  and  C_15
REMARK    3  A    between atoms: C_1  and  C_29
REMARK    4  A    between atoms: N_14  and  C_17
REMARK    5  A    between atoms: C_17  and  C_18
REMARK    6  A    between atoms: C_18  and  N_19
REMARK    7  A    between atoms: N_19  and  C_21
REMARK    8  A    between atoms: C_26  and  O_27
REMARK    9  A    between atoms: C_29  and  C_30
REMARK                            x       y       z     vdW  Elec       q    Type
REMARK                         _______ _______ _______ _____ _____    ______ ____
ROOT
ATOM      1  C   UNL     1      35.180 -16.133 -22.326  0.00  0.00    +0.151 C 
ENDROOT
BRANCH   1   3
ATOM      2  O   UNL     1      33.783 -19.305 -21.132  0.00  0.00    -0.414 OA
ATOM      3  N   UNL     1      34.311 -17.240 -21.986  0.00  0.00    -0.271 N 
ATOM      4  N   UNL     1      35.958 -18.681 -20.985  0.00  0.00    -0.356 NA
ATOM      5  C   UNL     1      34.751 -18.393 -21.361  0.00  0.00    +0.345 C 
ATOM      6  C   UNL     1      34.471 -20.316 -20.523  0.00  0.00    +0.175 C 
ATOM      7  C   UNL     1      35.801 -19.931 -20.435  0.00  0.00    +0.152 C 
ATOM      8  C   UNL     1      33.966 -21.526 -20.063  0.00  0.00    +0.040 C 
ATOM      9  C   UNL     1      36.722 -20.805 -19.843  0.00  0.00    +0.088 C 
ATOM     10  C   UNL     1      34.897 -22.387 -19.474  0.00  0.00    -0.001 C 
ATOM     11  C   UNL     1      36.249 -22.036 -19.365  0.00  0.00    -0.018 C 
ATOM     12  H   UNL     1      33.356 -17.168 -22.212  0.00  0.00    +0.153 HD
ENDBRANCH   1   3
BRANCH   1  15
ATOM     13  O   UNL     1      35.203 -13.836 -21.557  0.00  0.00    -0.273 OA
ATOM     14  N   UNL     1      33.175 -14.955 -21.662  0.00  0.00    -0.301 N 
ATOM     15  C   UNL     1      34.549 -14.845 -21.813  0.00  0.00    +0.240 C 
ATOM     16  H   UNL     1      32.736 -15.805 -21.893  0.00  0.00    +0.150 HD
BRANCH  14  17
ATOM     17  C   UNL     1      32.367 -13.861 -21.177  0.00  0.00    +0.111 C 
BRANCH  17  18
ATOM     18  C   UNL     1      31.997 -12.885 -22.283  0.00  0.00    +0.109 C 
BRANCH  18  19
ATOM     19  N   UNL     1      31.147 -11.838 -21.767  0.00  0.00    -0.331 N 
ATOM     20  H   UNL     1      30.173 -11.978 -21.786  0.00  0.00    +0.147 HD
BRANCH  19  21
ATOM     21  C   UNL     1      31.625 -10.646 -21.246  0.00  0.00    +0.045 C 
ATOM     22  C   UNL     1      31.595 -10.399 -19.861  0.00  0.00    +0.017 C 
ATOM     23  C   UNL     1      32.152  -9.650 -22.089  0.00  0.00    +0.017 C 
ATOM     24  C   UNL     1      32.074  -9.198 -19.337  0.00  0.00    +0.038 C 
ATOM     25  C   UNL     1      32.632  -8.449 -21.565  0.00  0.00    +0.038 C 
ATOM     26  C   UNL     1      32.592  -8.223 -20.190  0.00  0.00    +0.139 C 
BRANCH  26  27
ATOM     27  O   UNL     1      33.062  -7.052 -19.679  0.00  0.00    -0.471 OA
ATOM     28  C   UNL     1      32.194  -5.921 -19.741  0.00  0.00    +0.252 C 
ENDBRANCH  26  27
ENDBRANCH  19  21
ENDBRANCH  18  19
ENDBRANCH  17  18
ENDBRANCH  14  17
ENDBRANCH   1  15
BRANCH   1  29
ATOM     29  C   UNL     1      35.375 -16.055 -23.841  0.00  0.00    +0.029 C 
BRANCH  29  30
ATOM     30  C   UNL     1      34.224 -15.336 -24.542  0.00  0.00    +0.002 C 
ATOM     31  C   UNL     1      33.830 -16.071 -25.830  0.00  0.00    +0.000 C 
ATOM     32  C   UNL     1      34.597 -13.876 -24.839  0.00  0.00    +0.000 C 
ATOM     33  C   UNL     1      32.716 -15.341 -26.577  0.00  0.00    +0.000 C 
ATOM     34  C   UNL     1      33.482 -13.151 -25.588  0.00  0.00    +0.000 C 
ATOM     35  C   UNL     1      33.087 -13.889 -26.863  0.00  0.00    +0.000 C 
ENDBRANCH  29  30
ENDBRANCH   1  29
TORSDOF 9
ENDMDL
MODEL 8
REMARK VINA RESULT:     -10.1      3.294      7.207
REMARK  Name = 6420159
REMARK  9 active torsions:
REMARK  status: ('A' for Active; 'I' for Inactive)
REMARK    1  A    between atoms: C_1  and  N_3
REMARK    2  A    between atoms: C_1  and  C_15
REMARK    3  A    between atoms: C_1  and  C_29
REMARK    4  A    between atoms: N_14  and  C_17
REMARK    5  A    between atoms: C_17  and  C_18
REMARK    6  A    between atoms: C_18  and  N_19
REMARK    7  A    between atoms: N_19  and  C_21
REMARK    8  A    between atoms: C_26  and  O_27
REMARK    9  A    between atoms: C_29  and  C_30
REMARK                            x       y       z     vdW  Elec       q    Type
REMARK                         _______ _______ _______ _____ _____    ______ ____
ROOT
ATOM      1  C   UNL     1      34.210 -22.565 -16.999  0.00  0.00    +0.151 C 
ENDROOT
BRANCH   1   3
ATOM      2  O   UNL     1      37.335 -23.135 -15.167  0.00  0.00    -0.414 OA
ATOM      3  N   UNL     1      35.469 -22.419 -16.299  0.00  0.00    -0.271 N 
ATOM      4  N   UNL     1      35.880 -24.743 -15.831  0.00  0.00    -0.356 NA
ATOM      5  C   UNL     1      36.186 -23.484 -15.785  0.00  0.00    +0.345 C 
ATOM      6  C   UNL     1      37.830 -24.343 -14.765  0.00  0.00    +0.175 C 
ATOM      7  C   UNL     1      36.938 -25.324 -15.173  0.00  0.00    +0.152 C 
ATOM      8  C   UNL     1      39.009 -24.585 -14.071  0.00  0.00    +0.040 C 
ATOM      9  C   UNL     1      37.222 -26.664 -14.877  0.00  0.00    +0.088 C 
ATOM     10  C   UNL     1      39.279 -25.927 -13.784  0.00  0.00    -0.001 C 
ATOM     11  C   UNL     1      38.404 -26.948 -14.177  0.00  0.00    -0.018 C 
ATOM     12  H   UNL     1      35.834 -21.512 -16.183  0.00  0.00    +0.153 HD
ENDBRANCH   1   3
BRANCH   1  15
ATOM     13  O   UNL     1      32.393 -24.097 -16.534  0.00  0.00    -0.273 OA
ATOM     14  N   UNL     1      33.417 -23.013 -14.759  0.00  0.00    -0.301 N 
ATOM     15  C   UNL     1      33.239 -23.319 -16.100  0.00  0.00    +0.240 C 
ATOM     16  H   UNL     1      34.123 -22.376 -14.504  0.00  0.00    +0.150 HD
BRANCH  14  17
ATOM     17  C   UNL     1      32.600 -23.600 -13.724  0.00  0.00    +0.111 C 
BRANCH  17  18
ATOM     18  C   UNL     1      31.907 -24.871 -14.189  0.00  0.00    +0.109 C 
BRANCH  18  19
ATOM     19  N   UNL     1      30.474 -24.727 -14.097  0.00  0.00    -0.331 N 
ATOM     20  H   UNL     1      30.030 -25.015 -13.266  0.00  0.00    +0.147 HD
BRANCH  19  21
ATOM     21  C   UNL     1      29.686 -24.206 -15.111  0.00  0.00    +0.045 C 
ATOM     22  C   UNL     1      29.488 -22.818 -15.231  0.00  0.00    +0.017 C 
ATOM     23  C   UNL     1      29.060 -25.051 -16.045  0.00  0.00    +0.017 C 
ATOM     24  C   UNL     1      28.693 -22.294 -16.251  0.00  0.00    +0.038 C 
ATOM     25  C   UNL     1      28.266 -24.527 -17.065  0.00  0.00    +0.038 C 
ATOM     26  C   UNL     1      28.082 -23.149 -17.168  0.00  0.00    +0.139 C 
BRANCH  26  27
ATOM     27  O   UNL     1      27.308 -22.638 -18.164  0.00  0.00    -0.471 OA
ATOM     28  C   UNL     1      26.358 -21.637 -17.801  0.00  0.00    +0.252 C 
ENDBRANCH  26  27
ENDBRANCH  19  21
ENDBRANCH  18  19
ENDBRANCH  17  18
ENDBRANCH  14  17
ENDBRANCH   1  15
BRANCH   1  29
ATOM     29  C   UNL     1      34.414 -23.330 -18.308  0.00  0.00    +0.029 C 
BRANCH  29  30
ATOM     30  C   UNL     1      34.354 -22.419 -19.532  0.00  0.00    +0.002 C 
ATOM     31  C   UNL     1      35.656 -21.622 -19.681  0.00  0.00    +0.000 C 
ATOM     32  C   UNL     1      33.144 -21.478 -19.449  0.00  0.00    +0.000 C 
ATOM     33  C   UNL     1      35.599 -20.665 -20.869  0.00  0.00    +0.000 C 
ATOM     34  C   UNL     1      33.092 -20.520 -20.636  0.00  0.00    +0.000 C 
ATOM     35  C   UNL     1      34.392 -19.737 -20.786  0.00  0.00    +0.000 C 
ENDBRANCH  29  30
ENDBRANCH   1  29
TORSDOF 9
ENDMDL
MODEL 9
REMARK VINA RESULT:     -10.0      4.630     12.210
REMARK  Name = 6420159
REMARK  9 active torsions:
REMARK  status: ('A' for Active; 'I' for Inactive)
REMARK    1  A    between atoms: C_1  and  N_3
REMARK    2  A    between atoms: C_1  and  C_15
REMARK    3  A    between atoms: C_1  and  C_29
REMARK    4  A    between atoms: N_14  and  C_17
REMARK    5  A    between atoms: C_17  and  C_18
REMARK    6  A    between atoms: C_18  and  N_19
REMARK    7  A    between atoms: N_19  and  C_21
REMARK    8  A    between atoms: C_26  and  O_27
REMARK    9  A    between atoms: C_29  and  C_30
REMARK                            x       y       z     vdW  Elec       q    Type
REMARK                         _______ _______ _______ _____ _____    ______ ____
ROOT
ATOM      1  C   UNL     1      33.514 -14.738 -22.271  0.00  0.00    +0.151 C 
ENDROOT
BRANCH   1   3
ATOM      2  O   UNL     1      32.161 -12.116 -20.094  0.00  0.00    -0.414 OA
ATOM      3  N   UNL     1      32.952 -13.985 -21.169  0.00  0.00    -0.271 N 
ATOM      4  N   UNL     1      32.874 -11.825 -22.227  0.00  0.00    -0.356 NA
ATOM      5  C   UNL     1      32.683 -12.629 -21.228  0.00  0.00    +0.345 C 
ATOM      6  C   UNL     1      31.996 -10.799 -20.417  0.00  0.00    +0.175 C 
ATOM      7  C   UNL     1      32.433 -10.625 -21.723  0.00  0.00    +0.152 C 
ATOM      8  C   UNL     1      31.486  -9.788 -19.612  0.00  0.00    +0.040 C 
ATOM      9  C   UNL     1      32.366  -9.347 -22.295  0.00  0.00    +0.088 C 
ATOM     10  C   UNL     1      31.426  -8.519 -20.198  0.00  0.00    -0.001 C 
ATOM     11  C   UNL     1      31.857  -8.301 -21.512  0.00  0.00    -0.018 C 
ATOM     12  H   UNL     1      32.752 -14.464 -20.333  0.00  0.00    +0.153 HD
ENDBRANCH   1   3
BRANCH   1  15
ATOM     13  O   UNL     1      34.119 -16.345 -20.563  0.00  0.00    -0.273 OA
ATOM     14  N   UNL     1      35.184 -16.452 -22.620  0.00  0.00    -0.301 N 
ATOM     15  C   UNL     1      34.284 -15.924 -21.706  0.00  0.00    +0.240 C 
ATOM     16  H   UNL     1      35.246 -16.049 -23.515  0.00  0.00    +0.150 HD
BRANCH  14  17
ATOM     17  C   UNL     1      36.031 -17.575 -22.299  0.00  0.00    +0.111 C 
BRANCH  17  18
ATOM     18  C   UNL     1      35.479 -18.885 -22.839  0.00  0.00    +0.109 C 
BRANCH  18  19
ATOM     19  N   UNL     1      34.415 -19.371 -21.993  0.00  0.00    -0.331 N 
ATOM     20  H   UNL     1      33.499 -19.053 -22.169  0.00  0.00    +0.147 HD
BRANCH  19  21
ATOM     21  C   UNL     1      34.607 -20.258 -20.945  0.00  0.00    +0.045 C 
ATOM     22  C   UNL     1      35.904 -20.590 -20.510  0.00  0.00    +0.017 C 
ATOM     23  C   UNL     1      33.513 -20.851 -20.291  0.00  0.00    +0.017 C 
ATOM     24  C   UNL     1      36.098 -21.484 -19.457  0.00  0.00    +0.038 C 
ATOM     25  C   UNL     1      33.707 -21.745 -19.238  0.00  0.00    +0.038 C 
ATOM     26  C   UNL     1      34.999 -22.062 -18.821  0.00  0.00    +0.139 C 
BRANCH  26  27
ATOM     27  O   UNL     1      35.188 -22.933 -17.793  0.00  0.00    -0.471 OA
ATOM     28  C   UNL     1      36.126 -22.557 -16.786  0.00  0.00    +0.252 C 
ENDBRANCH  26  27
ENDBRANCH  19  21
ENDBRANCH  18  19
ENDBRANCH  17  18
ENDBRANCH  14  17
ENDBRANCH   1  15
BRANCH   1  29
ATOM     29  C   UNL     1      34.447 -13.853 -23.099  0.00  0.00    +0.029 C 
BRANCH  29  30
ATOM     30  C   UNL     1      34.300 -14.092 -24.600  0.00  0.00    +0.002 C 
ATOM     31  C   UNL     1      33.857 -12.807 -25.313  0.00  0.00    +0.000 C 
ATOM     32  C   UNL     1      33.313 -15.235 -24.873  0.00  0.00    +0.000 C 
ATOM     33  C   UNL     1      33.651 -13.034 -26.809  0.00  0.00    +0.000 C 
ATOM     34  C   UNL     1      33.107 -15.458 -26.369  0.00  0.00    +0.000 C 
ATOM     35  C   UNL     1      32.676 -14.177 -27.076  0.00  0.00    +0.000 C 
ENDBRANCH  29  30
ENDBRANCH   1  29
TORSDOF 9
ENDMDL
