MODEL 1
REMARK VINA RESULT:     -12.7      0.000      0.000
REMARK  Name = 11740318
REMARK  5 active torsions:
REMARK  status: ('A' for Active; 'I' for Inactive)
REMARK    1  A    between atoms: N_1  and  C_20
REMARK    2  A    between atoms: C_2  and  O_8
REMARK    3  A    between atoms: O_8  and  C_9
REMARK    4  A    between atoms: C_14  and  N_15
REMARK    5  A    between atoms: C_20  and  C_23
REMARK                            x       y       z     vdW  Elec       q    Type
REMARK                         _______ _______ _______ _____ _____    ______ ____
ROOT
ATOM      1  N   UNL     1      35.254 -18.414 -22.697  0.00  0.00    +0.392 N 
ATOM      2  C   UNL     1      34.325 -16.654 -24.170  0.00  0.00    +0.145 C 
ATOM      3  C   UNL     1      35.440 -17.045 -23.196  0.00  0.00    -0.032 C 
ATOM      4  C   UNL     1      34.228 -17.649 -25.323  0.00  0.00    +0.039 C 
ATOM      5  C   UNL     1      34.113 -19.071 -24.793  0.00  0.00    -0.019 C 
ATOM      6  C   UNL     1      35.235 -19.384 -23.800  0.00  0.00    -0.077 C 
ATOM      7  H   UNL     1      34.350 -18.455 -22.226  0.00  0.00    -0.079 HD
ENDROOT
BRANCH   2   8
ATOM      8  O   UNL     1      34.588 -15.363 -24.708  0.00  0.00    -0.481 OA
BRANCH   8   9
ATOM      9  C   UNL     1      34.029 -14.298 -24.053  0.00  0.00    +0.138 C 
ATOM     10  C   UNL     1      34.181 -13.015 -24.569  0.00  0.00    +0.038 C 
ATOM     11  C   UNL     1      33.315 -14.508 -22.878  0.00  0.00    +0.038 C 
ATOM     12  C   UNL     1      33.611 -11.929 -23.901  0.00  0.00    +0.018 C 
ATOM     13  C   UNL     1      32.746 -13.424 -22.212  0.00  0.00    +0.018 C 
ATOM     14  C   UNL     1      32.894 -12.134 -22.723  0.00  0.00    +0.057 C 
BRANCH  14  15
ATOM     15  N   UNL     1      32.328 -11.059 -22.062  0.00  0.00    -0.246 N 
ATOM     16  N   UNL     1      31.248  -9.905 -20.490  0.00  0.00    -0.224 NA
ATOM     17  C   UNL     1      32.321  -9.753 -22.481  0.00  0.00    +0.092 C 
ATOM     18  C   UNL     1      31.670 -11.094 -20.858  0.00  0.00    +0.172 C 
ATOM     19  C   UNL     1      31.652  -9.065 -21.498  0.00  0.00    +0.117 C 
ENDBRANCH  14  15
ENDBRANCH   8   9
ENDBRANCH   2   8
BRANCH   1  20
ATOM     20  C   UNL     1      36.300 -18.754 -21.733  0.00  0.00    -0.050 C 
BRANCH  20  23
ATOM     21  O   UNL     1      32.929 -21.674 -19.615  0.00  0.00    -0.435 OA
ATOM     22  O   UNL     1      34.595 -22.887 -18.366  0.00  0.00    -0.435 OA
ATOM     23  C   UNL     1      35.876 -19.872 -20.817  0.00  0.00    -0.040 C 
ATOM     24  C   UNL     1      34.527 -20.188 -20.709  0.00  0.00    +0.034 C 
ATOM     25  C   UNL     1      36.852 -20.570 -20.096  0.00  0.00    -0.003 C 
ATOM     26  C   UNL     1      34.188 -21.220 -19.858  0.00  0.00    +0.176 C 
ATOM     27  C   UNL     1      36.483 -21.611 -19.242  0.00  0.00    +0.040 C 
ATOM     28  C   UNL     1      35.140 -21.912 -19.144  0.00  0.00    +0.176 C 
ATOM     29  C   UNL     1      33.194 -22.731 -18.670  0.00  0.00    +0.429 C 
ENDBRANCH  20  23
ENDBRANCH   1  20
TORSDOF 5
ENDMDL
MODEL 2
REMARK VINA RESULT:     -12.6      4.742      9.132
REMARK  Name = 11740318
REMARK  5 active torsions:
REMARK  status: ('A' for Active; 'I' for Inactive)
REMARK    1  A    between atoms: N_1  and  C_20
REMARK    2  A    between atoms: C_2  and  O_8
REMARK    3  A    between atoms: O_8  and  C_9
REMARK    4  A    between atoms: C_14  and  N_15
REMARK    5  A    between atoms: C_20  and  C_23
REMARK                            x       y       z     vdW  Elec       q    Type
REMARK                         _______ _______ _______ _____ _____    ______ ____
ROOT
ATOM      1  N   UNL     1      33.742 -23.765 -14.442  0.00  0.00    +0.392 N 
ATOM      2  C   UNL     1      33.720 -23.041 -16.809  0.00  0.00    +0.145 C 
ATOM      3  C   UNL     1      34.285 -24.026 -15.781  0.00  0.00    -0.032 C 
ATOM      4  C   UNL     1      32.195 -23.073 -16.821  0.00  0.00    +0.039 C 
ATOM      5  C   UNL     1      31.646 -22.879 -15.414  0.00  0.00    -0.019 C 
ATOM      6  C   UNL     1      32.277 -23.869 -14.433  0.00  0.00    -0.077 C 
ATOM      7  H   UNL     1      33.991 -22.811 -14.183  0.00  0.00    -0.079 HD
ENDROOT
BRANCH   2   8
ATOM      8  O   UNL     1      34.190 -23.381 -18.109  0.00  0.00    -0.481 OA
BRANCH   8   9
ATOM      9  C   UNL     1      34.386 -22.345 -18.984  0.00  0.00    +0.138 C 
ATOM     10  C   UNL     1      33.289 -21.682 -19.523  0.00  0.00    +0.038 C 
ATOM     11  C   UNL     1      35.680 -21.965 -19.324  0.00  0.00    +0.038 C 
ATOM     12  C   UNL     1      33.488 -20.627 -20.414  0.00  0.00    +0.018 C 
ATOM     13  C   UNL     1      35.879 -20.911 -20.214  0.00  0.00    +0.018 C 
ATOM     14  C   UNL     1      34.783 -20.241 -20.759  0.00  0.00    +0.057 C 
BRANCH  14  15
ATOM     15  N   UNL     1      34.981 -19.195 -21.641  0.00  0.00    -0.246 N 
ATOM     16  N   UNL     1      35.166 -18.095 -23.571  0.00  0.00    -0.224 NA
ATOM     17  C   UNL     1      35.253 -17.891 -21.316  0.00  0.00    +0.092 C 
ATOM     18  C   UNL     1      34.940 -19.262 -23.012  0.00  0.00    +0.172 C 
ATOM     19  C   UNL     1      35.362 -17.235 -22.519  0.00  0.00    +0.117 C 
ENDBRANCH  14  15
ENDBRANCH   8   9
ENDBRANCH   2   8
BRANCH   1  20
ATOM     20  C   UNL     1      34.327 -24.683 -13.465  0.00  0.00    -0.050 C 
BRANCH  20  23
ATOM     21  O   UNL     1      38.732 -26.563 -14.668  0.00  0.00    -0.435 OA
ATOM     22  O   UNL     1      39.920 -24.715 -13.679  0.00  0.00    -0.435 OA
ATOM     23  C   UNL     1      35.832 -24.659 -13.504  0.00  0.00    -0.040 C 
ATOM     24  C   UNL     1      36.513 -25.707 -14.114  0.00  0.00    +0.034 C 
ATOM     25  C   UNL     1      36.513 -23.581 -12.927  0.00  0.00    -0.003 C 
ATOM     26  C   UNL     1      37.891 -25.640 -14.125  0.00  0.00    +0.176 C 
ATOM     27  C   UNL     1      37.908 -23.538 -12.953  0.00  0.00    +0.040 C 
ATOM     28  C   UNL     1      38.570 -24.585 -13.560  0.00  0.00    +0.176 C 
ATOM     29  C   UNL     1      40.015 -25.970 -14.383  0.00  0.00    +0.429 C 
ENDBRANCH  20  23
ENDBRANCH   1  20
TORSDOF 5
ENDMDL
MODEL 3
REMARK VINA RESULT:     -12.4      0.811      1.219
REMARK  Name = 11740318
REMARK  5 active torsions:
REMARK  status: ('A' for Active; 'I' for Inactive)
REMARK    1  A    between atoms: N_1  and  C_20
REMARK    2  A    between atoms: C_2  and  O_8
REMARK    3  A    between atoms: O_8  and  C_9
REMARK    4  A    between atoms: C_14  and  N_15
REMARK    5  A    between atoms: C_20  and  C_23
REMARK                            x       y       z     vdW  Elec       q    Type
REMARK                         _______ _______ _______ _____ _____    ______ ____
ROOT
ATOM      1  N   UNL     1      34.969 -17.616 -22.956  0.00  0.00    +0.392 N 
ATOM      2  C   UNL     1      33.897 -15.907 -24.392  0.00  0.00    +0.145 C 
ATOM      3  C   UNL     1      35.035 -16.223 -23.417  0.00  0.00    -0.032 C 
ATOM      4  C   UNL     1      33.897 -16.875 -25.572  0.00  0.00    +0.039 C 
ATOM      5  C   UNL     1      33.907 -18.316 -25.079  0.00  0.00    -0.019 C 
ATOM      6  C   UNL     1      35.045 -18.554 -24.084  0.00  0.00    -0.077 C 
ATOM      7  H   UNL     1      34.069 -17.751 -22.496  0.00  0.00    -0.079 HD
ENDROOT
BRANCH   2   8
ATOM      8  O   UNL     1      34.047 -14.583 -24.893  0.00  0.00    -0.481 OA
BRANCH   8   9
ATOM      9  C   UNL     1      33.613 -13.566 -24.086  0.00  0.00    +0.138 C 
ATOM     10  C   UNL     1      32.707 -13.835 -23.066  0.00  0.00    +0.038 C 
ATOM     11  C   UNL     1      34.083 -12.273 -24.293  0.00  0.00    +0.038 C 
ATOM     12  C   UNL     1      32.265 -12.798 -22.242  0.00  0.00    +0.018 C 
ATOM     13  C   UNL     1      33.641 -11.238 -23.470  0.00  0.00    +0.018 C 
ATOM     14  C   UNL     1      32.732 -11.500 -22.445  0.00  0.00    +0.057 C 
BRANCH  14  15
ATOM     15  N   UNL     1      32.295 -10.473 -21.628  0.00  0.00    -0.246 N 
ATOM     16  N   UNL     1      31.368  -9.439 -19.884  0.00  0.00    -0.224 NA
ATOM     17  C   UNL     1      32.421  -9.128 -21.867  0.00  0.00    +0.092 C 
ATOM     18  C   UNL     1      31.654 -10.604 -20.421  0.00  0.00    +0.172 C 
ATOM     19  C   UNL     1      31.844  -8.515 -20.781  0.00  0.00    +0.117 C 
ENDBRANCH  14  15
ENDBRANCH   8   9
ENDBRANCH   2   8
BRANCH   1  20
ATOM     20  C   UNL     1      36.034 -17.887 -21.991  0.00  0.00    -0.050 C 
BRANCH  20  23
ATOM     21  O   UNL     1      33.063 -21.313 -20.038  0.00  0.00    -0.435 OA
ATOM     22  O   UNL     1      34.907 -22.525 -19.069  0.00  0.00    -0.435 OA
ATOM     23  C   UNL     1      35.767 -19.139 -21.199  0.00  0.00    -0.040 C 
ATOM     24  C   UNL     1      34.457 -19.577 -21.040  0.00  0.00    +0.034 C 
ATOM     25  C   UNL     1      36.845 -19.836 -20.640  0.00  0.00    -0.003 C 
ATOM     26  C   UNL     1      34.263 -20.729 -20.306  0.00  0.00    +0.176 C 
ATOM     27  C   UNL     1      36.621 -21.000 -19.902  0.00  0.00    +0.040 C 
ATOM     28  C   UNL     1      35.316 -21.421 -19.752  0.00  0.00    +0.176 C 
ATOM     29  C   UNL     1      33.479 -22.451 -19.255  0.00  0.00    +0.429 C 
ENDBRANCH  20  23
ENDBRANCH   1  20
TORSDOF 5
ENDMDL
MODEL 4
REMARK VINA RESULT:     -11.9      3.538      9.922
REMARK  Name = 11740318
REMARK  5 active torsions:
REMARK  status: ('A' for Active; 'I' for Inactive)
REMARK    1  A    between atoms: N_1  and  C_20
REMARK    2  A    between atoms: C_2  and  O_8
REMARK    3  A    between atoms: O_8  and  C_9
REMARK    4  A    between atoms: C_14  and  N_15
REMARK    5  A    between atoms: C_20  and  C_23
REMARK                            x       y       z     vdW  Elec       q    Type
REMARK                         _______ _______ _______ _____ _____    ______ ____
ROOT
ATOM      1  N   UNL     1      35.359 -19.066 -22.302  0.00  0.00    +0.392 N 
ATOM      2  C   UNL     1      35.656 -20.662 -20.432  0.00  0.00    +0.145 C 
ATOM      3  C   UNL     1      35.214 -20.467 -21.885  0.00  0.00    -0.032 C 
ATOM      4  C   UNL     1      37.086 -20.174 -20.221  0.00  0.00    +0.039 C 
ATOM      5  C   UNL     1      37.243 -18.747 -20.728  0.00  0.00    -0.019 C 
ATOM      6  C   UNL     1      36.751 -18.614 -22.171  0.00  0.00    -0.077 C 
ATOM      7  H   UNL     1      34.784 -18.494 -21.683  0.00  0.00    -0.079 HD
ENDROOT
BRANCH   2   8
ATOM      8  O   UNL     1      35.594 -22.043 -20.092  0.00  0.00    -0.481 OA
BRANCH   8   9
ATOM      9  C   UNL     1      34.956 -22.362 -18.923  0.00  0.00    +0.138 C 
ATOM     10  C   UNL     1      35.686 -22.457 -17.743  0.00  0.00    +0.038 C 
ATOM     11  C   UNL     1      33.584 -22.586 -18.927  0.00  0.00    +0.038 C 
ATOM     12  C   UNL     1      35.035 -22.782 -16.552  0.00  0.00    +0.018 C 
ATOM     13  C   UNL     1      32.933 -22.911 -17.736  0.00  0.00    +0.018 C 
ATOM     14  C   UNL     1      33.659 -23.008 -16.549  0.00  0.00    +0.057 C 
BRANCH  14  15
ATOM     15  N   UNL     1      33.014 -23.329 -15.369  0.00  0.00    -0.246 N 
ATOM     16  N   UNL     1      32.648 -24.242 -13.368  0.00  0.00    -0.224 NA
ATOM     17  C   UNL     1      31.771 -22.906 -14.975  0.00  0.00    +0.092 C 
ATOM     18  C   UNL     1      33.498 -24.131 -14.364  0.00  0.00    +0.172 C 
ATOM     19  C   UNL     1      31.569 -23.480 -13.742  0.00  0.00    +0.117 C 
ENDBRANCH  14  15
ENDBRANCH   8   9
ENDBRANCH   2   8
BRANCH   1  20
ATOM     20  C   UNL     1      34.889 -18.889 -23.675  0.00  0.00    -0.050 C 
BRANCH  20  23
ATOM     21  O   UNL     1      33.710 -15.194 -26.731  0.00  0.00    -0.435 OA
ATOM     22  O   UNL     1      33.807 -13.552 -24.969  0.00  0.00    -0.435 OA
ATOM     23  C   UNL     1      34.604 -17.444 -23.988  0.00  0.00    -0.040 C 
ATOM     24  C   UNL     1      34.286 -17.080 -25.292  0.00  0.00    +0.034 C 
ATOM     25  C   UNL     1      34.663 -16.498 -22.957  0.00  0.00    -0.003 C 
ATOM     26  C   UNL     1      34.033 -15.745 -25.529  0.00  0.00    +0.176 C 
ATOM     27  C   UNL     1      34.401 -15.153 -23.224  0.00  0.00    +0.040 C 
ATOM     28  C   UNL     1      34.089 -14.807 -24.523  0.00  0.00    +0.176 C 
ATOM     29  C   UNL     1      33.567 -13.805 -26.369  0.00  0.00    +0.429 C 
ENDBRANCH  20  23
ENDBRANCH   1  20
TORSDOF 5
ENDMDL
MODEL 5
REMARK VINA RESULT:     -11.8      1.568      2.471
REMARK  Name = 11740318
REMARK  5 active torsions:
REMARK  status: ('A' for Active; 'I' for Inactive)
REMARK    1  A    between atoms: N_1  and  C_20
REMARK    2  A    between atoms: C_2  and  O_8
REMARK    3  A    between atoms: O_8  and  C_9
REMARK    4  A    between atoms: C_14  and  N_15
REMARK    5  A    between atoms: C_20  and  C_23
REMARK                            x       y       z     vdW  Elec       q    Type
REMARK                         _______ _______ _______ _____ _____    ______ ____
ROOT
ATOM      1  N   UNL     1      35.400 -16.811 -22.468  0.00  0.00    +0.392 N 
ATOM      2  C   UNL     1      34.265 -14.641 -22.834  0.00  0.00    +0.145 C 
ATOM      3  C   UNL     1      34.452 -16.081 -23.320  0.00  0.00    -0.032 C 
ATOM      4  C   UNL     1      33.827 -14.606 -21.372  0.00  0.00    +0.039 C 
ATOM      5  C   UNL     1      34.775 -15.430 -20.511  0.00  0.00    -0.019 C 
ATOM      6  C   UNL     1      34.944 -16.844 -21.072  0.00  0.00    -0.077 C 
ATOM      7  H   UNL     1      36.291 -16.316 -22.496  0.00  0.00    -0.079 HD
ENDROOT
BRANCH   2   8
ATOM      8  O   UNL     1      33.271 -13.993 -23.619  0.00  0.00    -0.481 OA
BRANCH   8   9
ATOM      9  C   UNL     1      32.968 -12.700 -23.286  0.00  0.00    +0.138 C 
ATOM     10  C   UNL     1      33.662 -11.654 -23.885  0.00  0.00    +0.038 C 
ATOM     11  C   UNL     1      31.970 -12.444 -22.352  0.00  0.00    +0.038 C 
ATOM     12  C   UNL     1      33.353 -10.335 -23.545  0.00  0.00    +0.018 C 
ATOM     13  C   UNL     1      31.661 -11.127 -22.013  0.00  0.00    +0.018 C 
ATOM     14  C   UNL     1      32.353 -10.073 -22.610  0.00  0.00    +0.057 C 
BRANCH  14  15
ATOM     15  N   UNL     1      32.047  -8.767 -22.274  0.00  0.00    -0.246 N 
ATOM     16  N   UNL     1      31.175  -6.720 -22.421  0.00  0.00    -0.224 NA
ATOM     17  C   UNL     1      32.438  -8.100 -21.141  0.00  0.00    +0.092 C 
ATOM     18  C   UNL     1      31.289  -7.889 -23.009  0.00  0.00    +0.172 C 
ATOM     19  C   UNL     1      31.889  -6.845 -21.255  0.00  0.00    +0.117 C 
ENDBRANCH  14  15
ENDBRANCH   8   9
ENDBRANCH   2   8
BRANCH   1  20
ATOM     20  C   UNL     1      35.602 -18.168 -22.974  0.00  0.00    -0.050 C 
BRANCH  20  23
ATOM     21  O   UNL     1      33.008 -21.299 -20.174  0.00  0.00    -0.435 OA
ATOM     22  O   UNL     1      34.960 -22.004 -18.950  0.00  0.00    -0.435 OA
ATOM     23  C   UNL     1      35.466 -19.199 -21.885  0.00  0.00    -0.040 C 
ATOM     24  C   UNL     1      34.212 -19.729 -21.603  0.00  0.00    +0.034 C 
ATOM     25  C   UNL     1      36.606 -19.601 -21.180  0.00  0.00    -0.003 C 
ATOM     26  C   UNL     1      34.138 -20.670 -20.597  0.00  0.00    +0.176 C 
ATOM     27  C   UNL     1      36.504 -20.556 -20.166  0.00  0.00    +0.040 C 
ATOM     28  C   UNL     1      35.253 -21.072 -19.897  0.00  0.00    +0.176 C 
ATOM     29  C   UNL     1      33.536 -22.144 -19.131  0.00  0.00    +0.429 C 
ENDBRANCH  20  23
ENDBRANCH   1  20
TORSDOF 5
ENDMDL
MODEL 6
REMARK VINA RESULT:     -11.8      2.947      4.631
REMARK  Name = 11740318
REMARK  5 active torsions:
REMARK  status: ('A' for Active; 'I' for Inactive)
REMARK    1  A    between atoms: N_1  and  C_20
REMARK    2  A    between atoms: C_2  and  O_8
REMARK    3  A    between atoms: O_8  and  C_9
REMARK    4  A    between atoms: C_14  and  N_15
REMARK    5  A    between atoms: C_20  and  C_23
REMARK                            x       y       z     vdW  Elec       q    Type
REMARK                         _______ _______ _______ _____ _____    ______ ____
ROOT
ATOM      1  N   UNL     1      35.702 -21.082 -19.211  0.00  0.00    +0.392 N 
ATOM      2  C   UNL     1      35.154 -19.363 -20.907  0.00  0.00    +0.145 C 
ATOM      3  C   UNL     1      36.223 -20.302 -20.341  0.00  0.00    -0.032 C 
ATOM      4  C   UNL     1      33.899 -20.134 -21.306  0.00  0.00    +0.039 C 
ATOM      5  C   UNL     1      33.414 -20.998 -20.151  0.00  0.00    -0.019 C 
ATOM      6  C   UNL     1      34.538 -21.885 -19.611  0.00  0.00    -0.077 C 
ATOM      7  H   UNL     1      35.398 -20.426 -18.491  0.00  0.00    -0.079 HD
ENDROOT
BRANCH   2   8
ATOM      8  O   UNL     1      35.660 -18.695 -22.057  0.00  0.00    -0.481 OA
BRANCH   8   9
ATOM      9  C   UNL     1      35.188 -17.432 -22.294  0.00  0.00    +0.138 C 
ATOM     10  C   UNL     1      34.959 -16.571 -21.226  0.00  0.00    +0.038 C 
ATOM     11  C   UNL     1      34.943 -17.021 -23.600  0.00  0.00    +0.038 C 
ATOM     12  C   UNL     1      34.479 -15.283 -21.467  0.00  0.00    +0.018 C 
ATOM     13  C   UNL     1      34.462 -15.734 -23.841  0.00  0.00    +0.018 C 
ATOM     14  C   UNL     1      34.231 -14.865 -22.774  0.00  0.00    +0.057 C 
BRANCH  14  15
ATOM     15  N   UNL     1      33.755 -13.588 -23.013  0.00  0.00    -0.246 N 
ATOM     16  N   UNL     1      33.562 -11.569 -23.938  0.00  0.00    -0.224 NA
ATOM     17  C   UNL     1      32.722 -12.965 -22.361  0.00  0.00    +0.092 C 
ATOM     18  C   UNL     1      34.225 -12.704 -23.953  0.00  0.00    +0.172 C 
ATOM     19  C   UNL     1      32.624 -11.725 -22.948  0.00  0.00    +0.117 C 
ENDBRANCH  14  15
ENDBRANCH   8   9
ENDBRANCH   2   8
BRANCH   1  20
ATOM     20  C   UNL     1      36.748 -21.938 -18.653  0.00  0.00    -0.050 C 
BRANCH  20  23
ATOM     21  O   UNL     1      37.920 -22.945 -13.964  0.00  0.00    -0.435 OA
ATOM     22  O   UNL     1      35.661 -23.579 -13.414  0.00  0.00    -0.435 OA
ATOM     23  C   UNL     1      36.420 -22.385 -17.253  0.00  0.00    -0.040 C 
ATOM     24  C   UNL     1      37.429 -22.422 -16.297  0.00  0.00    +0.034 C 
ATOM     25  C   UNL     1      35.105 -22.751 -16.945  0.00  0.00    -0.003 C 
ATOM     26  C   UNL     1      37.080 -22.838 -15.029  0.00  0.00    +0.176 C 
ATOM     27  C   UNL     1      34.778 -23.168 -15.653  0.00  0.00    +0.040 C 
ATOM     28  C   UNL     1      35.790 -23.201 -14.716  0.00  0.00    +0.176 C 
ATOM     29  C   UNL     1      37.014 -23.414 -12.944  0.00  0.00    +0.429 C 
ENDBRANCH  20  23
ENDBRANCH   1  20
TORSDOF 5
ENDMDL
MODEL 7
REMARK VINA RESULT:     -11.7      3.832     10.197
REMARK  Name = 11740318
REMARK  5 active torsions:
REMARK  status: ('A' for Active; 'I' for Inactive)
REMARK    1  A    between atoms: N_1  and  C_20
REMARK    2  A    between atoms: C_2  and  O_8
REMARK    3  A    between atoms: O_8  and  C_9
REMARK    4  A    between atoms: C_14  and  N_15
REMARK    5  A    between atoms: C_20  and  C_23
REMARK                            x       y       z     vdW  Elec       q    Type
REMARK                         _______ _______ _______ _____ _____    ______ ____
ROOT
ATOM      1  N   UNL     1      35.289 -19.854 -21.404  0.00  0.00    +0.392 N 
ATOM      2  C   UNL     1      35.096 -21.779 -19.860  0.00  0.00    +0.145 C 
ATOM      3  C   UNL     1      35.918 -20.557 -20.280  0.00  0.00    -0.032 C 
ATOM      4  C   UNL     1      33.660 -21.389 -19.526  0.00  0.00    +0.039 C 
ATOM      5  C   UNL     1      33.044 -20.593 -20.669  0.00  0.00    -0.019 C 
ATOM      6  C   UNL     1      33.931 -19.409 -21.061  0.00  0.00    -0.077 C 
ATOM      7  H   UNL     1      35.217 -20.509 -22.183  0.00  0.00    -0.079 HD
ENDROOT
BRANCH   2   8
ATOM      8  O   UNL     1      35.681 -22.380 -18.709  0.00  0.00    -0.481 OA
BRANCH   8   9
ATOM      9  C   UNL     1      34.824 -22.765 -17.713  0.00  0.00    +0.138 C 
ATOM     10  C   UNL     1      33.546 -23.207 -18.037  0.00  0.00    +0.038 C 
ATOM     11  C   UNL     1      35.240 -22.712 -16.387  0.00  0.00    +0.038 C 
ATOM     12  C   UNL     1      32.672 -23.601 -17.021  0.00  0.00    +0.018 C 
ATOM     13  C   UNL     1      34.368 -23.105 -15.373  0.00  0.00    +0.018 C 
ATOM     14  C   UNL     1      33.084 -23.550 -15.690  0.00  0.00    +0.057 C 
BRANCH  14  15
ATOM     15  N   UNL     1      32.219 -23.940 -14.684  0.00  0.00    -0.246 N 
ATOM     16  N   UNL     1      31.044 -23.864 -12.791  0.00  0.00    -0.224 NA
ATOM     17  C   UNL     1      31.514 -25.115 -14.621  0.00  0.00    +0.092 C 
ATOM     18  C   UNL     1      31.899 -23.224 -13.557  0.00  0.00    +0.172 C 
ATOM     19  C   UNL     1      30.800 -25.043 -13.449  0.00  0.00    +0.117 C 
ENDBRANCH  14  15
ENDBRANCH   8   9
ENDBRANCH   2   8
BRANCH   1  20
ATOM     20  C   UNL     1      36.109 -18.718 -21.823  0.00  0.00    -0.050 C 
BRANCH  20  23
ATOM     21  O   UNL     1      34.420 -14.741 -24.212  0.00  0.00    -0.435 OA
ATOM     22  O   UNL     1      33.953 -15.999 -26.213  0.00  0.00    -0.435 OA
ATOM     23  C   UNL     1      35.529 -18.018 -23.023  0.00  0.00    -0.040 C 
ATOM     24  C   UNL     1      35.273 -16.653 -22.956  0.00  0.00    +0.034 C 
ATOM     25  C   UNL     1      35.261 -18.758 -24.181  0.00  0.00    -0.003 C 
ATOM     26  C   UNL     1      34.741 -16.057 -24.081  0.00  0.00    +0.176 C 
ATOM     27  C   UNL     1      34.724 -18.130 -25.306  0.00  0.00    +0.040 C 
ATOM     28  C   UNL     1      34.474 -16.775 -25.224  0.00  0.00    +0.176 C 
ATOM     29  C   UNL     1      33.923 -14.711 -25.565  0.00  0.00    +0.429 C 
ENDBRANCH  20  23
ENDBRANCH   1  20
TORSDOF 5
ENDMDL
MODEL 8
REMARK VINA RESULT:     -11.4      3.457     10.061
REMARK  Name = 11740318
REMARK  5 active torsions:
REMARK  status: ('A' for Active; 'I' for Inactive)
REMARK    1  A    between atoms: N_1  and  C_20
REMARK    2  A    between atoms: C_2  and  O_8
REMARK    3  A    between atoms: O_8  and  C_9
REMARK    4  A    between atoms: C_14  and  N_15
REMARK    5  A    between atoms: C_20  and  C_23
REMARK                            x       y       z     vdW  Elec       q    Type
REMARK                         _______ _______ _______ _____ _____    ______ ____
ROOT
ATOM      1  N   UNL     1      35.401 -18.715 -22.662  0.00  0.00    +0.392 N 
ATOM      2  C   UNL     1      35.241 -20.282 -20.751  0.00  0.00    +0.145 C 
ATOM      3  C   UNL     1      34.894 -20.021 -22.220  0.00  0.00    -0.032 C 
ATOM      4  C   UNL     1      36.744 -20.168 -20.512  0.00  0.00    +0.039 C 
ATOM      5  C   UNL     1      37.270 -18.842 -21.044  0.00  0.00    -0.019 C 
ATOM      6  C   UNL     1      36.859 -18.629 -22.503  0.00  0.00    -0.077 C 
ATOM      7  H   UNL     1      34.978 -17.999 -22.071  0.00  0.00    -0.079 HD
ENDROOT
BRANCH   2   8
ATOM      8  O   UNL     1      34.823 -21.592 -20.384  0.00  0.00    -0.481 OA
BRANCH   8   9
ATOM      9  C   UNL     1      35.087 -21.986 -19.099  0.00  0.00    +0.138 C 
ATOM     10  C   UNL     1      34.090 -22.596 -18.346  0.00  0.00    +0.038 C 
ATOM     11  C   UNL     1      36.351 -21.773 -18.560  0.00  0.00    +0.038 C 
ATOM     12  C   UNL     1      34.360 -22.997 -17.037  0.00  0.00    +0.018 C 
ATOM     13  C   UNL     1      36.621 -22.174 -17.252  0.00  0.00    +0.018 C 
ATOM     14  C   UNL     1      35.626 -22.786 -16.490  0.00  0.00    +0.057 C 
BRANCH  14  15
ATOM     15  N   UNL     1      35.894 -23.185 -15.193  0.00  0.00    -0.246 N 
ATOM     16  N   UNL     1      37.040 -23.577 -13.322  0.00  0.00    -0.224 NA
ATOM     17  C   UNL     1      34.999 -23.711 -14.298  0.00  0.00    +0.092 C 
ATOM     18  C   UNL     1      37.108 -23.126 -14.555  0.00  0.00    +0.172 C 
ATOM     19  C   UNL     1      35.727 -23.943 -13.156  0.00  0.00    +0.117 C 
ENDBRANCH  14  15
ENDBRANCH   8   9
ENDBRANCH   2   8
BRANCH   1  20
ATOM     20  C   UNL     1      35.021 -18.462 -24.051  0.00  0.00    -0.050 C 
BRANCH  20  23
ATOM     21  O   UNL     1      34.240 -13.826 -22.543  0.00  0.00    -0.435 OA
ATOM     22  O   UNL     1      33.414 -13.140 -24.701  0.00  0.00    -0.435 OA
ATOM     23  C   UNL     1      34.580 -17.038 -24.261  0.00  0.00    -0.040 C 
ATOM     24  C   UNL     1      34.658 -16.138 -23.204  0.00  0.00    +0.034 C 
ATOM     25  C   UNL     1      34.102 -16.650 -25.518  0.00  0.00    -0.003 C 
ATOM     26  C   UNL     1      34.243 -14.845 -23.445  0.00  0.00    +0.176 C 
ATOM     27  C   UNL     1      33.688 -15.334 -25.736  0.00  0.00    +0.040 C 
ATOM     28  C   UNL     1      33.771 -14.454 -24.677  0.00  0.00    +0.176 C 
ATOM     29  C   UNL     1      33.715 -12.749 -23.346  0.00  0.00    +0.429 C 
ENDBRANCH  20  23
ENDBRANCH   1  20
TORSDOF 5
ENDMDL
MODEL 9
REMARK VINA RESULT:     -11.3      4.894      8.913
REMARK  Name = 11740318
REMARK  5 active torsions:
REMARK  status: ('A' for Active; 'I' for Inactive)
REMARK    1  A    between atoms: N_1  and  C_20
REMARK    2  A    between atoms: C_2  and  O_8
REMARK    3  A    between atoms: O_8  and  C_9
REMARK    4  A    between atoms: C_14  and  N_15
REMARK    5  A    between atoms: C_20  and  C_23
REMARK                            x       y       z     vdW  Elec       q    Type
REMARK                         _______ _______ _______ _____ _____    ______ ____
ROOT
ATOM      1  N   UNL     1      32.064 -10.198 -21.734  0.00  0.00    +0.392 N 
ATOM      2  C   UNL     1      32.409  -7.790 -22.193  0.00  0.00    +0.145 C 
ATOM      3  C   UNL     1      31.623  -9.056 -22.545  0.00  0.00    -0.032 C 
ATOM      4  C   UNL     1      32.309  -7.475 -20.704  0.00  0.00    +0.039 C 
ATOM      5  C   UNL     1      32.695  -8.692 -19.874  0.00  0.00    -0.019 C 
ATOM      6  C   UNL     1      31.899  -9.927 -20.299  0.00  0.00    -0.077 C 
ATOM      7  H   UNL     1      33.058 -10.344 -21.913  0.00  0.00    -0.079 HD
ENDROOT
BRANCH   2   8
ATOM      8  O   UNL     1      31.892  -6.684 -22.925  0.00  0.00    -0.481 OA
BRANCH   8   9
ATOM      9  C   UNL     1      32.666  -6.208 -23.950  0.00  0.00    +0.138 C 
ATOM     10  C   UNL     1      32.149  -5.249 -24.815  0.00  0.00    +0.038 C 
ATOM     11  C   UNL     1      33.961  -6.687 -24.117  0.00  0.00    +0.038 C 
ATOM     12  C   UNL     1      32.938  -4.764 -25.860  0.00  0.00    +0.018 C 
ATOM     13  C   UNL     1      34.748  -6.202 -25.160  0.00  0.00    +0.018 C 
ATOM     14  C   UNL     1      34.237  -5.240 -26.032  0.00  0.00    +0.057 C 
BRANCH  14  15
ATOM     15  N   UNL     1      35.018  -4.759 -27.066  0.00  0.00    -0.246 N 
ATOM     16  N   UNL     1      36.835  -4.296 -28.272  0.00  0.00    -0.224 NA
ATOM     17  C   UNL     1      34.578  -4.106 -28.189  0.00  0.00    +0.092 C 
ATOM     18  C   UNL     1      36.385  -4.847 -27.168  0.00  0.00    +0.172 C 
ATOM     19  C   UNL     1      35.713  -3.832 -28.914  0.00  0.00    +0.117 C 
ENDBRANCH  14  15
ENDBRANCH   8   9
ENDBRANCH   2   8
BRANCH   1  20
ATOM     20  C   UNL     1      31.337 -11.408 -22.114  0.00  0.00    -0.050 C 
BRANCH  20  23
ATOM     21  O   UNL     1      34.563 -14.555 -24.130  0.00  0.00    -0.435 OA
ATOM     22  O   UNL     1      34.662 -15.910 -22.139  0.00  0.00    -0.435 OA
ATOM     23  C   UNL     1      32.221 -12.626 -22.086  0.00  0.00    -0.040 C 
ATOM     24  C   UNL     1      32.969 -12.950 -23.212  0.00  0.00    +0.034 C 
ATOM     25  C   UNL     1      32.271 -13.407 -20.925  0.00  0.00    -0.003 C 
ATOM     26  C   UNL     1      33.764 -14.075 -23.138  0.00  0.00    +0.176 C 
ATOM     27  C   UNL     1      33.084 -14.540 -20.876  0.00  0.00    +0.040 C 
ATOM     28  C   UNL     1      33.820 -14.849 -22.002  0.00  0.00    +0.176 C 
ATOM     29  C   UNL     1      35.130 -15.717 -23.489  0.00  0.00    +0.429 C 
ENDBRANCH  20  23
ENDBRANCH   1  20
TORSDOF 5
ENDMDL
