MODEL 1
REMARK VINA RESULT:     -13.0      0.000      0.000
REMARK  Name = 60795
REMARK  7 active torsions:
REMARK  status: ('A' for Active; 'I' for Inactive)
REMARK    1  A    between atoms: C_1  and  N_2
REMARK    2  A    between atoms: C_1  and  C_17
REMARK    3  A    between atoms: N_3  and  C_11
REMARK    4  A    between atoms: C_17  and  C_18
REMARK    5  A    between atoms: C_18  and  C_19
REMARK    6  A    between atoms: C_19  and  O_20
REMARK    7  A    between atoms: O_20  and  C_26
REMARK                            x       y       z     vdW  Elec       q    Type
REMARK                         _______ _______ _______ _____ _____    ______ ____
ROOT
ATOM      1  C   UNL     1      35.031 -16.161 -25.476  0.00  0.00    -0.077 C 
ENDROOT
BRANCH   1   2
ATOM      2  N   UNL     1      35.346 -17.160 -24.456  0.00  0.00    +0.389 N 
ATOM      3  N   UNL     1      34.781 -18.997 -22.342  0.00  0.00    -0.311 N 
ATOM      4  C   UNL     1      34.982 -16.668 -23.122  0.00  0.00    -0.055 C 
ATOM      5  C   UNL     1      34.642 -18.418 -24.734  0.00  0.00    -0.055 C 
ATOM      6  C   UNL     1      35.359 -17.682 -22.040  0.00  0.00    +0.068 C 
ATOM      7  C   UNL     1      35.007 -19.492 -23.704  0.00  0.00    +0.068 C 
ATOM      8  H   UNL     1      36.350 -17.334 -24.481  0.00  0.00    -0.080 HD
BRANCH   3  11
ATOM      9 CL   UNL     1      37.302 -19.756 -20.884  0.00  0.00    -0.080 Cl
ATOM     10 CL   UNL     1      36.833 -21.851 -18.497  0.00  0.00    -0.081 Cl
ATOM     11  C   UNL     1      34.630 -19.907 -21.291  0.00  0.00    +0.059 C 
ATOM     12  C   UNL     1      35.717 -20.361 -20.513  0.00  0.00    +0.081 C 
ATOM     13  C   UNL     1      33.347 -20.404 -20.980  0.00  0.00    +0.015 C 
ATOM     14  C   UNL     1      35.528 -21.272 -19.472  0.00  0.00    +0.069 C 
ATOM     15  C   UNL     1      33.158 -21.312 -19.939  0.00  0.00    +0.002 C 
ATOM     16  C   UNL     1      34.249 -21.746 -19.185  0.00  0.00    +0.012 C 
ENDBRANCH   3  11
ENDBRANCH   1   2
BRANCH   1  17
ATOM     17  C   UNL     1      33.524 -16.113 -25.724  0.00  0.00    -0.019 C 
BRANCH  17  18
ATOM     18  C   UNL     1      33.095 -14.746 -26.257  0.00  0.00    +0.045 C 
BRANCH  18  19
ATOM     19  C   UNL     1      33.172 -13.673 -25.179  0.00  0.00    +0.205 C 
BRANCH  19  20
ATOM     20  O   UNL     1      32.949 -14.258 -23.897  0.00  0.00    -0.475 OA
BRANCH  20  26
ATOM     21  O   UNL     1      32.046  -7.634 -21.497  0.00  0.00    -0.275 OA
ATOM     22  N   UNL     1      32.387  -9.776 -22.250  0.00  0.00    -0.284 N 
ATOM     23  C   UNL     1      32.208 -11.665 -20.729  0.00  0.00    -0.008 C 
ATOM     24  C   UNL     1      32.047 -10.706 -19.585  0.00  0.00    +0.037 C 
ATOM     25  C   UNL     1      32.412 -11.164 -22.021  0.00  0.00    +0.049 C 
ATOM     26  C   UNL     1      32.707 -13.408 -22.862  0.00  0.00    +0.140 C 
ATOM     27  C   UNL     1      31.375  -9.421 -20.044  0.00  0.00    +0.090 C 
ATOM     28  C   UNL     1      32.672 -12.032 -23.085  0.00  0.00    +0.051 C 
ATOM     29  C   UNL     1      32.259 -13.046 -20.514  0.00  0.00    +0.000 C 
ATOM     30  C   UNL     1      32.498 -13.915 -21.580  0.00  0.00    +0.037 C 
ATOM     31  C   UNL     1      31.994  -8.849 -21.305  0.00  0.00    +0.226 C 
ATOM     32  H   UNL     1      32.666  -9.448 -23.136  0.00  0.00    +0.155 HD
ENDBRANCH  20  26
ENDBRANCH  19  20
ENDBRANCH  18  19
ENDBRANCH  17  18
ENDBRANCH   1  17
TORSDOF 7
ENDMDL
MODEL 2
REMARK VINA RESULT:     -12.9      5.439     10.385
REMARK  Name = 60795
REMARK  7 active torsions:
REMARK  status: ('A' for Active; 'I' for Inactive)
REMARK    1  A    between atoms: C_1  and  N_2
REMARK    2  A    between atoms: C_1  and  C_17
REMARK    3  A    between atoms: N_3  and  C_11
REMARK    4  A    between atoms: C_17  and  C_18
REMARK    5  A    between atoms: C_18  and  C_19
REMARK    6  A    between atoms: C_19  and  O_20
REMARK    7  A    between atoms: O_20  and  C_26
REMARK                            x       y       z     vdW  Elec       q    Type
REMARK                         _______ _______ _______ _____ _____    ______ ____
ROOT
ATOM      1  C   UNL     1      36.542 -21.723 -18.753  0.00  0.00    -0.077 C 
ENDROOT
BRANCH   1   2
ATOM      2  N   UNL     1      36.078 -20.557 -19.504  0.00  0.00    +0.389 N 
ATOM      3  N   UNL     1      35.438 -19.048 -21.845  0.00  0.00    -0.311 N 
ATOM      4  C   UNL     1      37.145 -20.048 -20.375  0.00  0.00    -0.055 C 
ATOM      5  C   UNL     1      34.898 -20.898 -20.308  0.00  0.00    -0.055 C 
ATOM      6  C   UNL     1      36.692 -18.793 -21.124  0.00  0.00    +0.068 C 
ATOM      7  C   UNL     1      34.369 -19.671 -21.057  0.00  0.00    +0.068 C 
ATOM      8  H   UNL     1      35.823 -19.830 -18.837  0.00  0.00    -0.080 HD
BRANCH   3  11
ATOM      9 CL   UNL     1      34.975 -16.155 -21.156  0.00  0.00    -0.080 Cl
ATOM     10 CL   UNL     1      34.228 -14.327 -23.687  0.00  0.00    -0.081 Cl
ATOM     11  C   UNL     1      35.111 -18.209 -22.915  0.00  0.00    +0.059 C 
ATOM     12  C   UNL     1      34.863 -16.828 -22.752  0.00  0.00    +0.081 C 
ATOM     13  C   UNL     1      35.019 -18.745 -24.216  0.00  0.00    +0.015 C 
ATOM     14  C   UNL     1      34.538 -16.022 -23.844  0.00  0.00    +0.069 C 
ATOM     15  C   UNL     1      34.695 -17.938 -25.307  0.00  0.00    +0.002 C 
ATOM     16  C   UNL     1      34.454 -16.577 -25.121  0.00  0.00    +0.012 C 
ENDBRANCH   3  11
ENDBRANCH   1   2
BRANCH   1  17
ATOM     17  C   UNL     1      37.120 -21.291 -17.407  0.00  0.00    -0.019 C 
BRANCH  17  18
ATOM     18  C   UNL     1      37.750 -22.473 -16.671  0.00  0.00    +0.045 C 
BRANCH  18  19
ATOM     19  C   UNL     1      36.815 -23.038 -15.610  0.00  0.00    +0.205 C 
BRANCH  19  20
ATOM     20  O   UNL     1      35.869 -23.916 -16.217  0.00  0.00    -0.475 OA
BRANCH  20  26
ATOM     21  O   UNL     1      29.021 -22.397 -17.338  0.00  0.00    -0.275 OA
ATOM     22  N   UNL     1      31.240 -22.843 -16.945  0.00  0.00    -0.284 N 
ATOM     23  C   UNL     1      31.959 -23.749 -14.806  0.00  0.00    -0.008 C 
ATOM     24  C   UNL     1      30.561 -23.581 -14.285  0.00  0.00    +0.037 C 
ATOM     25  C   UNL     1      32.259 -23.336 -16.111  0.00  0.00    +0.049 C 
ATOM     26  C   UNL     1      34.589 -23.860 -15.757  0.00  0.00    +0.140 C 
ATOM     27  C   UNL     1      29.543 -23.720 -15.407  0.00  0.00    +0.090 C 
ATOM     28  C   UNL     1      33.573 -23.381 -16.584  0.00  0.00    +0.051 C 
ATOM     29  C   UNL     1      32.987 -24.215 -13.981  0.00  0.00    +0.000 C 
ATOM     30  C   UNL     1      34.297 -24.279 -14.459  0.00  0.00    +0.037 C 
ATOM     31  C   UNL     1      29.896 -22.897 -16.631  0.00  0.00    +0.226 C 
ATOM     32  H   UNL     1      31.500 -22.437 -17.804  0.00  0.00    +0.155 HD
ENDBRANCH  20  26
ENDBRANCH  19  20
ENDBRANCH  18  19
ENDBRANCH  17  18
ENDBRANCH   1  17
TORSDOF 7
ENDMDL
MODEL 3
REMARK VINA RESULT:     -12.8      4.114     10.008
REMARK  Name = 60795
REMARK  7 active torsions:
REMARK  status: ('A' for Active; 'I' for Inactive)
REMARK    1  A    between atoms: C_1  and  N_2
REMARK    2  A    between atoms: C_1  and  C_17
REMARK    3  A    between atoms: N_3  and  C_11
REMARK    4  A    between atoms: C_17  and  C_18
REMARK    5  A    between atoms: C_18  and  C_19
REMARK    6  A    between atoms: C_19  and  O_20
REMARK    7  A    between atoms: O_20  and  C_26
REMARK                            x       y       z     vdW  Elec       q    Type
REMARK                         _______ _______ _______ _____ _____    ______ ____
ROOT
ATOM      1  C   UNL     1      33.462 -14.680 -22.773  0.00  0.00    -0.077 C 
ENDROOT
BRANCH   1   2
ATOM      2  N   UNL     1      32.816 -13.381 -22.955  0.00  0.00    +0.389 N 
ATOM      3  N   UNL     1      32.395 -10.591 -22.505  0.00  0.00    -0.311 N 
ATOM      4  C   UNL     1      32.238 -12.911 -21.690  0.00  0.00    -0.055 C 
ATOM      5  C   UNL     1      33.776 -12.394 -23.462  0.00  0.00    -0.055 C 
ATOM      6  C   UNL     1      31.509 -11.580 -21.879  0.00  0.00    +0.068 C 
ATOM      7  C   UNL     1      33.099 -11.043 -23.710  0.00  0.00    +0.068 C 
ATOM      8  H   UNL     1      32.067 -13.491 -23.638  0.00  0.00    -0.080 HD
BRANCH   3  11
ATOM      9 CL   UNL     1      32.526  -9.516 -19.696  0.00  0.00    -0.080 Cl
ATOM     10 CL   UNL     1      31.785  -6.402 -19.469  0.00  0.00    -0.081 Cl
ATOM     11  C   UNL     1      32.083  -9.236 -22.353  0.00  0.00    +0.059 C 
ATOM     12  C   UNL     1      32.097  -8.587 -21.099  0.00  0.00    +0.081 C 
ATOM     13  C   UNL     1      31.735  -8.471 -23.485  0.00  0.00    +0.015 C 
ATOM     14  C   UNL     1      31.777  -7.233 -20.985  0.00  0.00    +0.069 C 
ATOM     15  C   UNL     1      31.417  -7.118 -23.371  0.00  0.00    +0.002 C 
ATOM     16  C   UNL     1      31.438  -6.499 -22.121  0.00  0.00    +0.012 C 
ENDBRANCH   3  11
ENDBRANCH   1   2
BRANCH   1  17
ATOM     17  C   UNL     1      34.562 -14.876 -23.814  0.00  0.00    -0.019 C 
BRANCH  17  18
ATOM     18  C   UNL     1      34.175 -15.946 -24.834  0.00  0.00    +0.045 C 
BRANCH  18  19
ATOM     19  C   UNL     1      34.630 -17.332 -24.395  0.00  0.00    +0.205 C 
BRANCH  19  20
ATOM     20  O   UNL     1      35.714 -17.216 -23.475  0.00  0.00    -0.475 OA
BRANCH  20  26
ATOM     21  O   UNL     1      32.655 -22.023 -19.233  0.00  0.00    -0.275 OA
ATOM     22  N   UNL     1      33.652 -20.437 -20.561  0.00  0.00    -0.284 N 
ATOM     23  C   UNL     1      36.071 -20.182 -20.579  0.00  0.00    -0.008 C 
ATOM     24  C   UNL     1      36.166 -21.178 -19.460  0.00  0.00    +0.037 C 
ATOM     25  C   UNL     1      34.809 -19.815 -21.065  0.00  0.00    +0.049 C 
ATOM     26  C   UNL     1      35.828 -18.187 -22.527  0.00  0.00    +0.140 C 
ATOM     27  C   UNL     1      35.029 -22.186 -19.533  0.00  0.00    +0.090 C 
ATOM     28  C   UNL     1      34.685 -18.812 -22.031  0.00  0.00    +0.051 C 
ATOM     29  C   UNL     1      37.209 -19.538 -21.074  0.00  0.00    +0.000 C 
ATOM     30  C   UNL     1      37.088 -18.550 -22.053  0.00  0.00    +0.037 C 
ATOM     31  C   UNL     1      33.673 -21.534 -19.724  0.00  0.00    +0.226 C 
ATOM     32  H   UNL     1      32.777 -20.067 -20.821  0.00  0.00    +0.155 HD
ENDBRANCH  20  26
ENDBRANCH  19  20
ENDBRANCH  18  19
ENDBRANCH  17  18
ENDBRANCH   1  17
TORSDOF 7
ENDMDL
MODEL 4
REMARK VINA RESULT:     -12.8      1.198      1.763
REMARK  Name = 60795
REMARK  7 active torsions:
REMARK  status: ('A' for Active; 'I' for Inactive)
REMARK    1  A    between atoms: C_1  and  N_2
REMARK    2  A    between atoms: C_1  and  C_17
REMARK    3  A    between atoms: N_3  and  C_11
REMARK    4  A    between atoms: C_17  and  C_18
REMARK    5  A    between atoms: C_18  and  C_19
REMARK    6  A    between atoms: C_19  and  O_20
REMARK    7  A    between atoms: O_20  and  C_26
REMARK                            x       y       z     vdW  Elec       q    Type
REMARK                         _______ _______ _______ _____ _____    ______ ____
ROOT
ATOM      1  C   UNL     1      34.737 -16.049 -25.255  0.00  0.00    -0.077 C 
ENDROOT
BRANCH   1   2
ATOM      2  N   UNL     1      34.479 -16.975 -24.153  0.00  0.00    +0.389 N 
ATOM      3  N   UNL     1      35.155 -18.886 -22.140  0.00  0.00    -0.311 N 
ATOM      4  C   UNL     1      34.869 -18.341 -24.526  0.00  0.00    -0.055 C 
ATOM      5  C   UNL     1      35.207 -16.559 -22.949  0.00  0.00    -0.055 C 
ATOM      6  C   UNL     1      34.550 -19.329 -23.403  0.00  0.00    +0.068 C 
ATOM      7  C   UNL     1      34.902 -17.489 -21.771  0.00  0.00    +0.068 C 
ATOM      8  H   UNL     1      33.479 -16.961 -23.954  0.00  0.00    -0.080 HD
BRANCH   3  11
ATOM      9 CL   UNL     1      32.679 -20.204 -21.045  0.00  0.00    -0.080 Cl
ATOM     10 CL   UNL     1      33.275 -22.370 -18.752  0.00  0.00    -0.081 Cl
ATOM     11  C   UNL     1      35.361 -19.840 -21.138  0.00  0.00    +0.059 C 
ATOM     12  C   UNL     1      34.301 -20.543 -20.525  0.00  0.00    +0.081 C 
ATOM     13  C   UNL     1      36.674 -20.125 -20.708  0.00  0.00    +0.015 C 
ATOM     14  C   UNL     1      34.545 -21.488 -19.527  0.00  0.00    +0.069 C 
ATOM     15  C   UNL     1      36.917 -21.070 -19.712  0.00  0.00    +0.002 C 
ATOM     16  C   UNL     1      35.853 -21.751 -19.121  0.00  0.00    +0.012 C 
ENDBRANCH   3  11
ENDBRANCH   1   2
BRANCH   1  17
ATOM     17  C   UNL     1      33.450 -15.774 -26.030  0.00  0.00    -0.019 C 
BRANCH  17  18
ATOM     18  C   UNL     1      33.339 -14.298 -26.411  0.00  0.00    +0.045 C 
BRANCH  18  19
ATOM     19  C   UNL     1      33.506 -13.390 -25.200  0.00  0.00    +0.205 C 
BRANCH  19  20
ATOM     20  O   UNL     1      33.015 -14.046 -24.032  0.00  0.00    -0.475 OA
BRANCH  20  26
ATOM     21  O   UNL     1      32.002  -7.594 -21.240  0.00  0.00    -0.275 OA
ATOM     22  N   UNL     1      32.379  -9.682 -22.119  0.00  0.00    -0.284 N 
ATOM     23  C   UNL     1      32.181 -11.664 -20.724  0.00  0.00    -0.008 C 
ATOM     24  C   UNL     1      31.987 -10.780 -19.526  0.00  0.00    +0.037 C 
ATOM     25  C   UNL     1      32.410 -11.080 -21.978  0.00  0.00    +0.049 C 
ATOM     26  C   UNL     1      32.742 -13.265 -22.951  0.00  0.00    +0.140 C 
ATOM     27  C   UNL     1      31.315  -9.474 -19.919  0.00  0.00    +0.090 C 
ATOM     28  C   UNL     1      32.701 -11.878 -23.088  0.00  0.00    +0.051 C 
ATOM     29  C   UNL     1      32.239 -13.056 -20.596  0.00  0.00    +0.000 C 
ATOM     30  C   UNL     1      32.509 -13.853 -21.709  0.00  0.00    +0.037 C 
ATOM     31  C   UNL     1      31.957  -8.818 -21.127  0.00  0.00    +0.226 C 
ATOM     32  H   UNL     1      32.675  -9.296 -22.976  0.00  0.00    +0.155 HD
ENDBRANCH  20  26
ENDBRANCH  19  20
ENDBRANCH  18  19
ENDBRANCH  17  18
ENDBRANCH   1  17
TORSDOF 7
ENDMDL
MODEL 5
REMARK VINA RESULT:     -12.8      4.824     10.182
REMARK  Name = 60795
REMARK  7 active torsions:
REMARK  status: ('A' for Active; 'I' for Inactive)
REMARK    1  A    between atoms: C_1  and  N_2
REMARK    2  A    between atoms: C_1  and  C_17
REMARK    3  A    between atoms: N_3  and  C_11
REMARK    4  A    between atoms: C_17  and  C_18
REMARK    5  A    between atoms: C_18  and  C_19
REMARK    6  A    between atoms: C_19  and  O_20
REMARK    7  A    between atoms: O_20  and  C_26
REMARK                            x       y       z     vdW  Elec       q    Type
REMARK                         _______ _______ _______ _____ _____    ______ ____
ROOT
ATOM      1  C   UNL     1      35.540 -19.445 -22.293  0.00  0.00    -0.077 C 
ENDROOT
BRANCH   1   2
ATOM      2  N   UNL     1      35.508 -17.997 -22.495  0.00  0.00    +0.389 N 
ATOM      3  N   UNL     1      34.289 -15.426 -22.754  0.00  0.00    -0.311 N 
ATOM      4  C   UNL     1      34.730 -17.661 -23.694  0.00  0.00    -0.055 C 
ATOM      5  C   UNL     1      34.933 -17.326 -21.323  0.00  0.00    -0.055 C 
ATOM      6  C   UNL     1      34.737 -16.153 -23.949  0.00  0.00    +0.068 C 
ATOM      7  C   UNL     1      34.945 -15.804 -21.498  0.00  0.00    +0.068 C 
ATOM      8  H   UNL     1      36.466 -17.672 -22.622  0.00  0.00    -0.080 HD
BRANCH   3  11
ATOM      9 CL   UNL     1      32.268 -14.504 -20.722  0.00  0.00    -0.080 Cl
ATOM     10 CL   UNL     1      31.229 -11.505 -21.202  0.00  0.00    -0.081 Cl
ATOM     11  C   UNL     1      33.805 -14.124 -22.918  0.00  0.00    +0.059 C 
ATOM     12  C   UNL     1      32.853 -13.548 -22.049  0.00  0.00    +0.081 C 
ATOM     13  C   UNL     1      34.275 -13.338 -23.991  0.00  0.00    +0.015 C 
ATOM     14  C   UNL     1      32.393 -12.246 -22.245  0.00  0.00    +0.069 C 
ATOM     15  C   UNL     1      33.816 -12.035 -24.186  0.00  0.00    +0.002 C 
ATOM     16  C   UNL     1      32.874 -11.489 -23.313  0.00  0.00    +0.012 C 
ENDBRANCH   3  11
ENDBRANCH   1   2
BRANCH   1  17
ATOM     17  C   UNL     1      34.695 -19.830 -21.080  0.00  0.00    -0.019 C 
BRANCH  17  18
ATOM     18  C   UNL     1      35.369 -20.932 -20.264  0.00  0.00    +0.045 C 
BRANCH  18  19
ATOM     19  C   UNL     1      34.356 -21.935 -19.728  0.00  0.00    +0.205 C 
BRANCH  19  20
ATOM     20  O   UNL     1      34.905 -22.624 -18.606  0.00  0.00    -0.475 OA
BRANCH  20  26
ATOM     21  O   UNL     1      28.292 -23.123 -16.064  0.00  0.00    -0.275 OA
ATOM     22  N   UNL     1      30.436 -22.915 -16.858  0.00  0.00    -0.284 N 
ATOM     23  C   UNL     1      32.338 -23.441 -15.436  0.00  0.00    -0.008 C 
ATOM     24  C   UNL     1      31.399 -23.627 -14.279  0.00  0.00    +0.037 C 
ATOM     25  C   UNL     1      31.825 -23.051 -16.680  0.00  0.00    +0.049 C 
ATOM     26  C   UNL     1      34.063 -22.891 -17.570  0.00  0.00    +0.140 C 
ATOM     27  C   UNL     1      30.040 -24.117 -14.757  0.00  0.00    +0.090 C 
ATOM     28  C   UNL     1      32.685 -22.766 -17.744  0.00  0.00    +0.051 C 
ATOM     29  C   UNL     1      33.722 -23.549 -15.269  0.00  0.00    +0.000 C 
ATOM     30  C   UNL     1      34.581 -23.284 -16.337  0.00  0.00    +0.037 C 
ATOM     31  C   UNL     1      29.500 -23.314 -15.925  0.00  0.00    +0.226 C 
ATOM     32  H   UNL     1      30.114 -22.512 -17.697  0.00  0.00    +0.155 HD
ENDBRANCH  20  26
ENDBRANCH  19  20
ENDBRANCH  18  19
ENDBRANCH  17  18
ENDBRANCH   1  17
TORSDOF 7
ENDMDL
MODEL 6
REMARK VINA RESULT:     -12.6      4.902     11.184
REMARK  Name = 60795
REMARK  7 active torsions:
REMARK  status: ('A' for Active; 'I' for Inactive)
REMARK    1  A    between atoms: C_1  and  N_2
REMARK    2  A    between atoms: C_1  and  C_17
REMARK    3  A    between atoms: N_3  and  C_11
REMARK    4  A    between atoms: C_17  and  C_18
REMARK    5  A    between atoms: C_18  and  C_19
REMARK    6  A    between atoms: C_19  and  O_20
REMARK    7  A    between atoms: O_20  and  C_26
REMARK                            x       y       z     vdW  Elec       q    Type
REMARK                         _______ _______ _______ _____ _____    ______ ____
ROOT
ATOM      1  C   UNL     1      32.004 -10.320 -20.348  0.00  0.00    -0.077 C 
ENDROOT
BRANCH   1   2
ATOM      2  N   UNL     1      31.798  -9.114 -21.148  0.00  0.00    +0.389 N 
ATOM      3  N   UNL     1      32.397  -7.200 -23.183  0.00  0.00    -0.311 N 
ATOM      4  C   UNL     1      32.930  -8.193 -20.991  0.00  0.00    -0.055 C 
ATOM      5  C   UNL     1      31.626  -9.457 -22.564  0.00  0.00    -0.055 C 
ATOM      6  C   UNL     1      32.701  -6.901 -21.777  0.00  0.00    +0.068 C 
ATOM      7  C   UNL     1      31.354  -8.207 -23.405  0.00  0.00    +0.068 C 
ATOM      8  H   UNL     1      30.951  -8.653 -20.816  0.00  0.00    -0.080 HD
BRANCH   3  11
ATOM      9 CL   UNL     1      35.076  -7.194 -24.554  0.00  0.00    -0.080 Cl
ATOM     10 CL   UNL     1      35.426  -4.832 -26.699  0.00  0.00    -0.081 Cl
ATOM     11  C   UNL     1      32.598  -6.190 -24.129  0.00  0.00    +0.059 C 
ATOM     12  C   UNL     1      33.802  -6.054 -24.854  0.00  0.00    +0.081 C 
ATOM     13  C   UNL     1      31.569  -5.259 -24.383  0.00  0.00    +0.015 C 
ATOM     14  C   UNL     1      33.968  -5.032 -25.791  0.00  0.00    +0.069 C 
ATOM     15  C   UNL     1      31.735  -4.239 -25.319  0.00  0.00    +0.002 C 
ATOM     16  C   UNL     1      32.934  -4.125 -26.023  0.00  0.00    +0.012 C 
ENDBRANCH   3  11
ENDBRANCH   1   2
BRANCH   1  17
ATOM     17  C   UNL     1      31.284 -11.508 -20.985  0.00  0.00    -0.019 C 
BRANCH  17  18
ATOM     18  C   UNL     1      32.197 -12.731 -21.063  0.00  0.00    +0.045 C 
BRANCH  18  19
ATOM     19  C   UNL     1      32.459 -13.146 -22.504  0.00  0.00    +0.205 C 
BRANCH  19  20
ATOM     20  O   UNL     1      33.851 -13.400 -22.689  0.00  0.00    -0.475 OA
BRANCH  20  26
ATOM     21  O   UNL     1      36.205 -19.680 -20.351  0.00  0.00    -0.275 OA
ATOM     22  N   UNL     1      35.493 -17.640 -21.128  0.00  0.00    -0.284 N 
ATOM     23  C   UNL     1      34.970 -17.327 -23.483  0.00  0.00    -0.008 C 
ATOM     24  C   UNL     1      35.479 -18.712 -23.761  0.00  0.00    +0.037 C 
ATOM     25  C   UNL     1      35.032 -16.824 -22.176  0.00  0.00    +0.049 C 
ATOM     26  C   UNL     1      34.218 -14.686 -22.946  0.00  0.00    +0.140 C 
ATOM     27  C   UNL     1      35.268 -19.620 -22.558  0.00  0.00    +0.090 C 
ATOM     28  C   UNL     1      34.666 -15.502 -21.909  0.00  0.00    +0.051 C 
ATOM     29  C   UNL     1      34.532 -16.496 -24.518  0.00  0.00    +0.000 C 
ATOM     30  C   UNL     1      34.147 -15.181 -24.248  0.00  0.00    +0.037 C 
ATOM     31  C   UNL     1      35.734 -18.994 -21.257  0.00  0.00    +0.226 C 
ATOM     32  H   UNL     1      35.653 -17.221 -20.251  0.00  0.00    +0.155 HD
ENDBRANCH  20  26
ENDBRANCH  19  20
ENDBRANCH  18  19
ENDBRANCH  17  18
ENDBRANCH   1  17
TORSDOF 7
ENDMDL
MODEL 7
REMARK VINA RESULT:     -12.6      5.865     11.750
REMARK  Name = 60795
REMARK  7 active torsions:
REMARK  status: ('A' for Active; 'I' for Inactive)
REMARK    1  A    between atoms: C_1  and  N_2
REMARK    2  A    between atoms: C_1  and  C_17
REMARK    3  A    between atoms: N_3  and  C_11
REMARK    4  A    between atoms: C_17  and  C_18
REMARK    5  A    between atoms: C_18  and  C_19
REMARK    6  A    between atoms: C_19  and  O_20
REMARK    7  A    between atoms: O_20  and  C_26
REMARK                            x       y       z     vdW  Elec       q    Type
REMARK                         _______ _______ _______ _____ _____    ______ ____
ROOT
ATOM      1  C   UNL     1      35.249 -22.244 -18.855  0.00  0.00    -0.077 C 
ENDROOT
BRANCH   1   2
ATOM      2  N   UNL     1      35.158 -20.967 -19.560  0.00  0.00    +0.389 N 
ATOM      3  N   UNL     1      35.006 -19.252 -21.840  0.00  0.00    -0.311 N 
ATOM      4  C   UNL     1      36.331 -20.769 -20.420  0.00  0.00    -0.055 C 
ATOM      5  C   UNL     1      33.933 -20.910 -20.367  0.00  0.00    -0.055 C 
ATOM      6  C   UNL     1      36.276 -19.410 -21.120  0.00  0.00    +0.068 C 
ATOM      7  C   UNL     1      33.797 -19.555 -21.067  0.00  0.00    +0.068 C 
ATOM      8  H   UNL     1      35.129 -20.221 -18.866  0.00  0.00    -0.080 HD
BRANCH   3  11
ATOM      9 CL   UNL     1      34.935 -16.362 -21.002  0.00  0.00    -0.080 Cl
ATOM     10 CL   UNL     1      34.800 -14.305 -23.463  0.00  0.00    -0.081 Cl
ATOM     11  C   UNL     1      34.948 -18.315 -22.877  0.00  0.00    +0.059 C 
ATOM     12  C   UNL     1      34.908 -16.922 -22.645  0.00  0.00    +0.081 C 
ATOM     13  C   UNL     1      34.928 -18.759 -24.216  0.00  0.00    +0.015 C 
ATOM     14  C   UNL     1      34.850 -16.017 -23.705  0.00  0.00    +0.069 C 
ATOM     15  C   UNL     1      34.871 -17.853 -25.275  0.00  0.00    +0.002 C 
ATOM     16  C   UNL     1      34.831 -16.482 -25.020  0.00  0.00    +0.012 C 
ENDBRANCH   3  11
ENDBRANCH   1   2
BRANCH   1  17
ATOM     17  C   UNL     1      33.910 -22.976 -18.907  0.00  0.00    -0.019 C 
BRANCH  17  18
ATOM     18  C   UNL     1      33.125 -22.787 -17.609  0.00  0.00    +0.045 C 
BRANCH  18  19
ATOM     19  C   UNL     1      33.477 -23.851 -16.578  0.00  0.00    +0.205 C 
BRANCH  19  20
ATOM     20  O   UNL     1      33.956 -23.230 -15.387  0.00  0.00    -0.475 OA
BRANCH  20  26
ATOM     21  O   UNL     1      40.569 -25.806 -15.673  0.00  0.00    -0.275 OA
ATOM     22  N   UNL     1      38.412 -25.024 -15.578  0.00  0.00    -0.284 N 
ATOM     23  C   UNL     1      37.187 -25.026 -13.477  0.00  0.00    -0.008 C 
ATOM     24  C   UNL     1      38.323 -25.769 -12.836  0.00  0.00    +0.037 C 
ATOM     25  C   UNL     1      37.255 -24.714 -14.842  0.00  0.00    +0.049 C 
ATOM     26  C   UNL     1      35.014 -23.818 -14.764  0.00  0.00    +0.140 C 
ATOM     27  C   UNL     1      39.646 -25.410 -13.494  0.00  0.00    +0.090 C 
ATOM     28  C   UNL     1      36.167 -24.120 -15.488  0.00  0.00    +0.051 C 
ATOM     29  C   UNL     1      36.020 -24.732 -12.764  0.00  0.00    +0.000 C 
ATOM     30  C   UNL     1      34.941 -24.121 -13.405  0.00  0.00    +0.037 C 
ATOM     31  C   UNL     1      39.589 -25.470 -15.009  0.00  0.00    +0.226 C 
ATOM     32  H   UNL     1      38.381 -24.917 -16.557  0.00  0.00    +0.155 HD
ENDBRANCH  20  26
ENDBRANCH  19  20
ENDBRANCH  18  19
ENDBRANCH  17  18
ENDBRANCH   1  17
TORSDOF 7
ENDMDL
MODEL 8
REMARK VINA RESULT:     -12.3      4.942     10.269
REMARK  Name = 60795
REMARK  7 active torsions:
REMARK  status: ('A' for Active; 'I' for Inactive)
REMARK    1  A    between atoms: C_1  and  N_2
REMARK    2  A    between atoms: C_1  and  C_17
REMARK    3  A    between atoms: N_3  and  C_11
REMARK    4  A    between atoms: C_17  and  C_18
REMARK    5  A    between atoms: C_18  and  C_19
REMARK    6  A    between atoms: C_19  and  O_20
REMARK    7  A    between atoms: O_20  and  C_26
REMARK                            x       y       z     vdW  Elec       q    Type
REMARK                         _______ _______ _______ _____ _____    ______ ____
ROOT
ATOM      1  C   UNL     1      36.809 -21.762 -19.928  0.00  0.00    -0.077 C 
ENDROOT
BRANCH   1   2
ATOM      2  N   UNL     1      36.363 -20.688 -20.814  0.00  0.00    +0.389 N 
ATOM      3  N   UNL     1      35.397 -18.081 -21.472  0.00  0.00    -0.311 N 
ATOM      4  C   UNL     1      34.977 -20.311 -20.509  0.00  0.00    -0.055 C 
ATOM      5  C   UNL     1      37.239 -19.518 -20.687  0.00  0.00    -0.055 C 
ATOM      6  C   UNL     1      34.479 -19.228 -21.468  0.00  0.00    +0.068 C 
ATOM      7  C   UNL     1      36.816 -18.405 -21.650  0.00  0.00    +0.068 C 
ATOM      8  H   UNL     1      36.408 -21.029 -21.774  0.00  0.00    -0.080 HD
BRANCH   3  11
ATOM      9 CL   UNL     1      34.995 -17.807 -24.442  0.00  0.00    -0.080 Cl
ATOM     10 CL   UNL     1      33.874 -14.935 -25.335  0.00  0.00    -0.081 Cl
ATOM     11  C   UNL     1      34.907 -16.847 -21.912  0.00  0.00    +0.059 C 
ATOM     12  C   UNL     1      34.668 -16.564 -23.275  0.00  0.00    +0.081 C 
ATOM     13  C   UNL     1      34.636 -15.831 -20.972  0.00  0.00    +0.015 C 
ATOM     14  C   UNL     1      34.180 -15.320 -23.677  0.00  0.00    +0.069 C 
ATOM     15  C   UNL     1      34.148 -14.588 -21.375  0.00  0.00    +0.002 C 
ATOM     16  C   UNL     1      33.920 -14.333 -22.727  0.00  0.00    +0.012 C 
ENDBRANCH   3  11
ENDBRANCH   1   2
BRANCH   1  17
ATOM     17  C   UNL     1      36.053 -21.704 -18.602  0.00  0.00    -0.019 C 
BRANCH  17  18
ATOM     18  C   UNL     1      36.999 -21.894 -17.417  0.00  0.00    +0.045 C 
BRANCH  18  19
ATOM     19  C   UNL     1      36.279 -22.479 -16.209  0.00  0.00    +0.205 C 
BRANCH  19  20
ATOM     20  O   UNL     1      35.511 -23.613 -16.607  0.00  0.00    -0.475 OA
BRANCH  20  26
ATOM     21  O   UNL     1      28.548 -22.393 -17.303  0.00  0.00    -0.275 OA
ATOM     22  N   UNL     1      30.802 -22.747 -17.042  0.00  0.00    -0.284 N 
ATOM     23  C   UNL     1      31.651 -23.916 -15.085  0.00  0.00    -0.008 C 
ATOM     24  C   UNL     1      30.265 -23.919 -14.507  0.00  0.00    +0.037 C 
ATOM     25  C   UNL     1      31.878 -23.292 -16.319  0.00  0.00    +0.049 C 
ATOM     26  C   UNL     1      34.247 -23.711 -16.111  0.00  0.00    +0.140 C 
ATOM     27  C   UNL     1      29.218 -23.954 -15.610  0.00  0.00    +0.090 C 
ATOM     28  C   UNL     1      33.175 -23.180 -16.828  0.00  0.00    +0.051 C 
ATOM     29  C   UNL     1      32.735 -24.432 -14.368  0.00  0.00    +0.000 C 
ATOM     30  C   UNL     1      34.028 -24.338 -14.885  0.00  0.00    +0.037 C 
ATOM     31  C   UNL     1      29.476 -22.935 -16.704  0.00  0.00    +0.226 C 
ATOM     32  H   UNL     1      31.007 -22.200 -17.835  0.00  0.00    +0.155 HD
ENDBRANCH  20  26
ENDBRANCH  19  20
ENDBRANCH  18  19
ENDBRANCH  17  18
ENDBRANCH   1  17
TORSDOF 7
ENDMDL
MODEL 9
REMARK VINA RESULT:     -12.3      5.552     11.402
REMARK  Name = 60795
REMARK  7 active torsions:
REMARK  status: ('A' for Active; 'I' for Inactive)
REMARK    1  A    between atoms: C_1  and  N_2
REMARK    2  A    between atoms: C_1  and  C_17
REMARK    3  A    between atoms: N_3  and  C_11
REMARK    4  A    between atoms: C_17  and  C_18
REMARK    5  A    between atoms: C_18  and  C_19
REMARK    6  A    between atoms: C_19  and  O_20
REMARK    7  A    between atoms: O_20  and  C_26
REMARK                            x       y       z     vdW  Elec       q    Type
REMARK                         _______ _______ _______ _____ _____    ______ ____
ROOT
ATOM      1  C   UNL     1      31.869  -9.607 -20.482  0.00  0.00    -0.077 C 
ENDROOT
BRANCH   1   2
ATOM      2  N   UNL     1      32.524  -9.052 -21.665  0.00  0.00    +0.389 N 
ATOM      3  N   UNL     1      33.130  -7.052 -23.614  0.00  0.00    -0.311 N 
ATOM      4  C   UNL     1      31.529  -8.673 -22.676  0.00  0.00    -0.055 C 
ATOM      5  C   UNL     1      33.337  -7.884 -21.303  0.00  0.00    -0.055 C 
ATOM      6  C   UNL     1      32.204  -8.144 -23.942  0.00  0.00    +0.068 C 
ATOM      7  C   UNL     1      34.073  -7.326 -22.525  0.00  0.00    +0.068 C 
ATOM      8  H   UNL     1      33.135  -9.768 -22.057  0.00  0.00    -0.080 HD
BRANCH   3  11
ATOM      9 CL   UNL     1      31.035  -5.040 -24.404  0.00  0.00    -0.080 Cl
ATOM     10 CL   UNL     1      31.965  -3.059 -26.752  0.00  0.00    -0.081 Cl
ATOM     11  C   UNL     1      33.488  -6.163 -24.633  0.00  0.00    +0.059 C 
ATOM     12  C   UNL     1      32.614  -5.164 -25.115  0.00  0.00    +0.081 C 
ATOM     13  C   UNL     1      34.769  -6.253 -25.216  0.00  0.00    +0.015 C 
ATOM     14  C   UNL     1      33.005  -4.296 -26.135  0.00  0.00    +0.069 C 
ATOM     15  C   UNL     1      35.160  -5.384 -26.235  0.00  0.00    +0.002 C 
ATOM     16  C   UNL     1      34.278  -4.406 -26.694  0.00  0.00    +0.012 C 
ENDBRANCH   3  11
ENDBRANCH   1   2
BRANCH   1  17
ATOM     17  C   UNL     1      31.062 -10.849 -20.856  0.00  0.00    -0.019 C 
BRANCH  17  18
ATOM     18  C   UNL     1      31.979 -12.034 -21.159  0.00  0.00    +0.045 C 
BRANCH  18  19
ATOM     19  C   UNL     1      32.083 -12.297 -22.655  0.00  0.00    +0.205 C 
BRANCH  19  20
ATOM     20  O   UNL     1      33.440 -12.559 -23.007  0.00  0.00    -0.475 OA
BRANCH  20  26
ATOM     21  O   UNL     1      36.749 -18.838 -22.730  0.00  0.00    -0.275 OA
ATOM     22  N   UNL     1      35.715 -16.792 -22.857  0.00  0.00    -0.284 N 
ATOM     23  C   UNL     1      34.264 -16.254 -24.734  0.00  0.00    -0.008 C 
ATOM     24  C   UNL     1      34.660 -17.546 -25.387  0.00  0.00    +0.037 C 
ATOM     25  C   UNL     1      34.839 -15.902 -23.505  0.00  0.00    +0.049 C 
ATOM     26  C   UNL     1      33.711 -13.769 -23.570  0.00  0.00    +0.140 C 
ATOM     27  C   UNL     1      34.990 -18.603 -24.344  0.00  0.00    +0.090 C 
ATOM     28  C   UNL     1      34.572 -14.658 -22.928  0.00  0.00    +0.051 C 
ATOM     29  C   UNL     1      33.414 -15.349 -25.376  0.00  0.00    +0.000 C 
ATOM     30  C   UNL     1      33.131 -14.113 -24.790  0.00  0.00    +0.037 C 
ATOM     31  C   UNL     1      35.926 -18.095 -23.264  0.00  0.00    +0.226 C 
ATOM     32  H   UNL     1      36.206 -16.466 -22.068  0.00  0.00    +0.155 HD
ENDBRANCH  20  26
ENDBRANCH  19  20
ENDBRANCH  18  19
ENDBRANCH  17  18
ENDBRANCH   1  17
TORSDOF 7
ENDMDL
