MODEL 1
REMARK VINA RESULT:     -12.9      0.000      0.000
REMARK  Name = 59473233
REMARK  3 active torsions:
REMARK  status: ('A' for Active; 'I' for Inactive)
REMARK    1  A    between atoms: N_1  and  C_25
REMARK    2  A    between atoms: C_7  and  C_14
REMARK    3  A    between atoms: C_22  and  N_29
REMARK                            x       y       z     vdW  Elec       q    Type
REMARK                         _______ _______ _______ _____ _____    ______ ____
ROOT
ATOM      1  N   UNL     1      36.620 -23.146 -16.113  0.00  0.00    -0.286 N 
ATOM      2  N   UNL     1      35.080 -23.975 -12.851  0.00  0.00    -0.260 N 
ATOM      3  N   UNL     1      34.407 -23.586 -15.508  0.00  0.00    -0.387 NA
ATOM      4  N   UNL     1      37.240 -23.587 -13.248  0.00  0.00    -0.224 NA
ATOM      5  C   UNL     1      35.674 -23.462 -15.165  0.00  0.00    +0.216 C 
ATOM      6  C   UNL     1      36.041 -23.666 -13.778  0.00  0.00    +0.180 C 
ATOM      7  C   UNL     1      33.455 -23.908 -14.540  0.00  0.00    +0.131 C 
ATOM      8  C   UNL     1      33.760 -24.097 -13.236  0.00  0.00    +0.156 C 
ATOM      9  C   UNL     1      35.708 -24.102 -11.644  0.00  0.00    +0.088 C 
ATOM     10  C   UNL     1      37.038 -23.859 -11.915  0.00  0.00    +0.117 C 
ATOM     11  H   UNL     1      37.529 -23.491 -15.961  0.00  0.00    +0.155 HD
ENDROOT
BRANCH   7  14
ATOM     12  N   UNL     1      29.479 -22.635 -17.283  0.00  0.00    -0.236 N 
ATOM     13  N   UNL     1      28.212 -23.073 -17.371  0.00  0.00    -0.180 NA
ATOM     14  C   UNL     1      32.049 -24.020 -14.986  0.00  0.00    +0.028 C 
ATOM     15  C   UNL     1      30.240 -23.302 -16.361  0.00  0.00    +0.067 C 
ATOM     16  C   UNL     1      31.574 -23.154 -15.977  0.00  0.00    +0.018 C 
ATOM     17  C   UNL     1      29.393 -24.255 -15.807  0.00  0.00    +0.035 C 
ATOM     18  C   UNL     1      31.219 -24.984 -14.411  0.00  0.00    +0.002 C 
ATOM     19  C   UNL     1      29.883 -25.117 -14.812  0.00  0.00    +0.003 C 
ATOM     20  C   UNL     1      28.163 -24.058 -16.472  0.00  0.00    +0.119 C 
ATOM     21  H   UNL     1      29.829 -21.897 -17.832  0.00  0.00    +0.174 HD
ENDBRANCH   7  14
BRANCH   1  25
ATOM     22  C   UNL     1      36.033 -20.872 -19.573  0.00  0.00    +0.048 C 
ATOM     23  C   UNL     1      37.154 -20.648 -18.772  0.00  0.00    +0.016 C 
ATOM     24  C   UNL     1      35.109 -21.854 -19.218  0.00  0.00    +0.016 C 
ATOM     25  C   UNL     1      36.424 -22.387 -17.263  0.00  0.00    +0.050 C 
ATOM     26  C   UNL     1      37.349 -21.406 -17.617  0.00  0.00    +0.016 C 
ATOM     27  C   UNL     1      35.303 -22.612 -18.064  0.00  0.00    +0.016 C 
BRANCH  22  29
ATOM     28  O   UNL     1      35.400 -18.365 -22.888  0.00  0.00    -0.350 OA
ATOM     29  N   UNL     1      35.838 -20.111 -20.730  0.00  0.00    -0.303 N 
ATOM     30  C   UNL     1      36.803 -19.046 -21.031  0.00  0.00    +0.123 C 
ATOM     31  C   UNL     1      34.479 -19.884 -21.236  0.00  0.00    +0.123 C 
ATOM     32  C   UNL     1      36.737 -18.695 -22.513  0.00  0.00    +0.164 C 
ATOM     33  C   UNL     1      34.536 -19.486 -22.706  0.00  0.00    +0.164 C 
ENDBRANCH  22  29
ENDBRANCH   1  25
TORSDOF 3
ENDMDL
MODEL 2
REMARK VINA RESULT:     -12.4      1.367      1.739
REMARK  Name = 59473233
REMARK  3 active torsions:
REMARK  status: ('A' for Active; 'I' for Inactive)
REMARK    1  A    between atoms: N_1  and  C_25
REMARK    2  A    between atoms: C_7  and  C_14
REMARK    3  A    between atoms: C_22  and  N_29
REMARK                            x       y       z     vdW  Elec       q    Type
REMARK                         _______ _______ _______ _____ _____    ______ ____
ROOT
ATOM      1  N   UNL     1      36.717 -22.715 -17.743  0.00  0.00    -0.286 N 
ATOM      2  N   UNL     1      36.022 -23.712 -14.247  0.00  0.00    -0.260 N 
ATOM      3  N   UNL     1      34.714 -22.935 -16.560  0.00  0.00    -0.387 NA
ATOM      4  N   UNL     1      38.023 -23.561 -15.220  0.00  0.00    -0.224 NA
ATOM      5  C   UNL     1      36.030 -23.015 -16.589  0.00  0.00    +0.216 C 
ATOM      6  C   UNL     1      36.728 -23.423 -15.386  0.00  0.00    +0.180 C 
ATOM      7  C   UNL     1      34.027 -23.243 -15.386  0.00  0.00    +0.131 C 
ATOM      8  C   UNL     1      34.645 -23.619 -14.243  0.00  0.00    +0.156 C 
ATOM      9  C   UNL     1      36.930 -24.057 -13.286  0.00  0.00    +0.088 C 
ATOM     10  C   UNL     1      38.155 -23.956 -13.910  0.00  0.00    +0.117 C 
ATOM     11  H   UNL     1      37.568 -23.189 -17.886  0.00  0.00    +0.155 HD
ENDROOT
BRANCH   7  14
ATOM     12  N   UNL     1      29.579 -22.823 -17.620  0.00  0.00    -0.236 N 
ATOM     13  N   UNL     1      28.310 -22.730 -17.189  0.00  0.00    -0.180 NA
ATOM     14  C   UNL     1      32.553 -23.121 -15.414  0.00  0.00    +0.028 C 
ATOM     15  C   UNL     1      30.506 -22.923 -16.617  0.00  0.00    +0.067 C 
ATOM     16  C   UNL     1      31.897 -23.036 -16.647  0.00  0.00    +0.018 C 
ATOM     17  C   UNL     1      29.773 -22.893 -15.436  0.00  0.00    +0.035 C 
ATOM     18  C   UNL     1      31.841 -23.091 -14.214  0.00  0.00    +0.002 C 
ATOM     19  C   UNL     1      30.445 -22.978 -14.205  0.00  0.00    +0.003 C 
ATOM     20  C   UNL     1      28.431 -22.772 -15.860  0.00  0.00    +0.119 C 
ATOM     21  H   UNL     1      29.821 -22.819 -18.574  0.00  0.00    +0.174 HD
ENDBRANCH   7  14
BRANCH   1  25
ATOM     22  C   UNL     1      35.564 -20.000 -20.707  0.00  0.00    +0.048 C 
ATOM     23  C   UNL     1      36.868 -19.978 -20.210  0.00  0.00    +0.016 C 
ATOM     24  C   UNL     1      34.646 -20.926 -20.214  0.00  0.00    +0.016 C 
ATOM     25  C   UNL     1      36.333 -21.810 -18.728  0.00  0.00    +0.050 C 
ATOM     26  C   UNL     1      37.252 -20.884 -19.220  0.00  0.00    +0.016 C 
ATOM     27  C   UNL     1      35.029 -21.831 -19.225  0.00  0.00    +0.016 C 
BRANCH  22  29
ATOM     28  O   UNL     1      34.667 -17.285 -23.789  0.00  0.00    -0.350 OA
ATOM     29  N   UNL     1      35.179 -19.092 -21.699  0.00  0.00    -0.303 N 
ATOM     30  C   UNL     1      35.158 -19.555 -23.093  0.00  0.00    +0.123 C 
ATOM     31  C   UNL     1      35.441 -17.659 -21.521  0.00  0.00    +0.123 C 
ATOM     32  C   UNL     1      34.260 -18.647 -23.924  0.00  0.00    +0.164 C 
ATOM     33  C   UNL     1      34.529 -16.851 -22.437  0.00  0.00    +0.164 C 
ENDBRANCH  22  29
ENDBRANCH   1  25
TORSDOF 3
ENDMDL
MODEL 3
REMARK VINA RESULT:     -11.7     11.524     16.571
REMARK  Name = 59473233
REMARK  3 active torsions:
REMARK  status: ('A' for Active; 'I' for Inactive)
REMARK    1  A    between atoms: N_1  and  C_25
REMARK    2  A    between atoms: C_7  and  C_14
REMARK    3  A    between atoms: C_22  and  N_29
REMARK                            x       y       z     vdW  Elec       q    Type
REMARK                         _______ _______ _______ _____ _____    ______ ____
ROOT
ATOM      1  N   UNL     1      31.661  -9.809 -21.474  0.00  0.00    -0.286 N 
ATOM      2  N   UNL     1      32.478  -6.319 -20.551  0.00  0.00    -0.260 N 
ATOM      3  N   UNL     1      32.569  -8.048 -22.711  0.00  0.00    -0.387 NA
ATOM      4  N   UNL     1      31.598  -7.880 -19.224  0.00  0.00    -0.224 NA
ATOM      5  C   UNL     1      32.092  -8.506 -21.570  0.00  0.00    +0.216 C 
ATOM      6  C   UNL     1      32.036  -7.611 -20.432  0.00  0.00    +0.180 C 
ATOM      7  C   UNL     1      33.003  -6.725 -22.799  0.00  0.00    +0.131 C 
ATOM      8  C   UNL     1      32.973  -5.865 -21.756  0.00  0.00    +0.156 C 
ATOM      9  C   UNL     1      32.311  -5.721 -19.334  0.00  0.00    +0.088 C 
ATOM     10  C   UNL     1      31.767  -6.703 -18.533  0.00  0.00    +0.117 C 
ATOM     11  H   UNL     1      30.938  -9.987 -20.829  0.00  0.00    +0.155 HD
ENDROOT
BRANCH   7  14
ATOM     12  N   UNL     1      32.809  -4.296 -27.160  0.00  0.00    -0.236 N 
ATOM     13  N   UNL     1      33.654  -4.137 -28.192  0.00  0.00    -0.180 NA
ATOM     14  C   UNL     1      33.539  -6.276 -24.103  0.00  0.00    +0.028 C 
ATOM     15  C   UNL     1      33.302  -5.071 -26.145  0.00  0.00    +0.067 C 
ATOM     16  C   UNL     1      32.748  -5.467 -24.926  0.00  0.00    +0.018 C 
ATOM     17  C   UNL     1      34.577  -5.445 -26.556  0.00  0.00    +0.035 C 
ATOM     18  C   UNL     1      34.822  -6.667 -24.492  0.00  0.00    +0.002 C 
ATOM     19  C   UNL     1      35.359  -6.259 -25.719  0.00  0.00    +0.003 C 
ATOM     20  C   UNL     1      34.728  -4.837 -27.821  0.00  0.00    +0.119 C 
ATOM     21  H   UNL     1      31.912  -3.891 -27.137  0.00  0.00    +0.174 HD
ENDBRANCH   7  14
BRANCH   1  25
ATOM     22  C   UNL     1      33.095 -13.086 -23.638  0.00  0.00    +0.048 C 
ATOM     23  C   UNL     1      32.339 -13.290 -22.484  0.00  0.00    +0.016 C 
ATOM     24  C   UNL     1      33.373 -11.789 -24.069  0.00  0.00    +0.016 C 
ATOM     25  C   UNL     1      32.140 -10.900 -22.193  0.00  0.00    +0.050 C 
ATOM     26  C   UNL     1      31.860 -12.196 -21.761  0.00  0.00    +0.016 C 
ATOM     27  C   UNL     1      32.896 -10.696 -23.347  0.00  0.00    +0.016 C 
BRANCH  22  29
ATOM     28  O   UNL     1      34.754 -16.226 -25.889  0.00  0.00    -0.350 OA
ATOM     29  N   UNL     1      33.574 -14.183 -24.362  0.00  0.00    -0.303 N 
ATOM     30  C   UNL     1      34.826 -14.813 -23.920  0.00  0.00    +0.123 C 
ATOM     31  C   UNL     1      33.295 -14.290 -25.799  0.00  0.00    +0.123 C 
ATOM     32  C   UNL     1      34.911 -16.231 -24.471  0.00  0.00    +0.164 C 
ATOM     33  C   UNL     1      33.464 -15.736 -26.250  0.00  0.00    +0.164 C 
ENDBRANCH  22  29
ENDBRANCH   1  25
TORSDOF 3
ENDMDL
MODEL 4
REMARK VINA RESULT:     -10.6      6.437     11.878
REMARK  Name = 59473233
REMARK  3 active torsions:
REMARK  status: ('A' for Active; 'I' for Inactive)
REMARK    1  A    between atoms: N_1  and  C_25
REMARK    2  A    between atoms: C_7  and  C_14
REMARK    3  A    between atoms: C_22  and  N_29
REMARK                            x       y       z     vdW  Elec       q    Type
REMARK                         _______ _______ _______ _____ _____    ______ ____
ROOT
ATOM      1  N   UNL     1      34.999 -16.288 -24.591  0.00  0.00    -0.286 N 
ATOM      2  N   UNL     1      33.139 -13.366 -25.896  0.00  0.00    -0.260 N 
ATOM      3  N   UNL     1      33.893 -14.540 -23.505  0.00  0.00    -0.387 NA
ATOM      4  N   UNL     1      34.148 -14.952 -27.096  0.00  0.00    -0.224 NA
ATOM      5  C   UNL     1      34.263 -15.126 -24.627  0.00  0.00    +0.216 C 
ATOM      6  C   UNL     1      33.877 -14.521 -25.886  0.00  0.00    +0.180 C 
ATOM      7  C   UNL     1      33.148 -13.361 -23.552  0.00  0.00    +0.131 C 
ATOM      8  C   UNL     1      32.764 -12.774 -24.707  0.00  0.00    +0.156 C 
ATOM      9  C   UNL     1      32.923 -13.036 -27.204  0.00  0.00    +0.088 C 
ATOM     10  C   UNL     1      33.554 -14.028 -27.924  0.00  0.00    +0.117 C 
ATOM     11  H   UNL     1      35.616 -16.443 -25.342  0.00  0.00    +0.155 HD
ENDROOT
BRANCH   7  14
ATOM     12  N   UNL     1      31.581  -9.655 -20.592  0.00  0.00    -0.236 N 
ATOM     13  N   UNL     1      31.322  -9.539 -19.279  0.00  0.00    -0.180 NA
ATOM     14  C   UNL     1      32.754 -12.760 -22.258  0.00  0.00    +0.028 C 
ATOM     15  C   UNL     1      32.003 -10.900 -20.973  0.00  0.00    +0.067 C 
ATOM     16  C   UNL     1      32.365 -11.417 -22.218  0.00  0.00    +0.018 C 
ATOM     17  C   UNL     1      32.016 -11.655 -19.805  0.00  0.00    +0.035 C 
ATOM     18  C   UNL     1      32.778 -13.540 -21.101  0.00  0.00    +0.002 C 
ATOM     19  C   UNL     1      32.410 -13.003 -19.861  0.00  0.00    +0.003 C 
ATOM     20  C   UNL     1      31.588 -10.757 -18.803  0.00  0.00    +0.119 C 
ATOM     21  H   UNL     1      31.478  -8.908 -21.225  0.00  0.00    +0.174 HD
ENDBRANCH   7  14
BRANCH   1  25
ATOM     22  C   UNL     1      34.890 -19.230 -21.621  0.00  0.00    +0.048 C 
ATOM     23  C   UNL     1      34.568 -19.557 -22.939  0.00  0.00    +0.016 C 
ATOM     24  C   UNL     1      35.247 -17.922 -21.295  0.00  0.00    +0.016 C 
ATOM     25  C   UNL     1      34.961 -17.267 -23.602  0.00  0.00    +0.050 C 
ATOM     26  C   UNL     1      34.603 -18.575 -23.930  0.00  0.00    +0.016 C 
ATOM     27  C   UNL     1      35.282 -16.941 -22.284  0.00  0.00    +0.016 C 
BRANCH  22  29
ATOM     28  O   UNL     1      34.846 -22.377 -18.835  0.00  0.00    -0.350 OA
ATOM     29  N   UNL     1      34.854 -20.215 -20.629  0.00  0.00    -0.303 N 
ATOM     30  C   UNL     1      36.107 -20.902 -20.288  0.00  0.00    +0.123 C 
ATOM     31  C   UNL     1      33.633 -21.004 -20.424  0.00  0.00    +0.123 C 
ATOM     32  C   UNL     1      35.991 -21.528 -18.903  0.00  0.00    +0.164 C 
ATOM     33  C   UNL     1      33.650 -21.626 -19.032  0.00  0.00    +0.164 C 
ENDBRANCH  22  29
ENDBRANCH   1  25
TORSDOF 3
ENDMDL
MODEL 5
REMARK VINA RESULT:     -10.0     12.173     15.912
REMARK  Name = 59473233
REMARK  3 active torsions:
REMARK  status: ('A' for Active; 'I' for Inactive)
REMARK    1  A    between atoms: N_1  and  C_25
REMARK    2  A    between atoms: C_7  and  C_14
REMARK    3  A    between atoms: C_22  and  N_29
REMARK                            x       y       z     vdW  Elec       q    Type
REMARK                         _______ _______ _______ _____ _____    ______ ____
ROOT
ATOM      1  N   UNL     1      33.544  -7.440 -22.242  0.00  0.00    -0.286 N 
ATOM      2  N   UNL     1      31.886 -10.323 -20.618  0.00  0.00    -0.260 N 
ATOM      3  N   UNL     1      33.309  -9.669 -22.901  0.00  0.00    -0.387 NA
ATOM      4  N   UNL     1      32.018  -8.241 -19.830  0.00  0.00    -0.224 NA
ATOM      5  C   UNL     1      33.082  -8.716 -22.017  0.00  0.00    +0.216 C 
ATOM      6  C   UNL     1      32.340  -9.046 -20.816  0.00  0.00    +0.180 C 
ATOM      7  C   UNL     1      32.838 -10.960 -22.663  0.00  0.00    +0.131 C 
ATOM      8  C   UNL     1      32.136 -11.301 -21.559  0.00  0.00    +0.156 C 
ATOM      9  C   UNL     1      31.226 -10.336 -19.421  0.00  0.00    +0.088 C 
ATOM     10  C   UNL     1      31.321  -9.042 -18.955  0.00  0.00    +0.117 C 
ATOM     11  H   UNL     1      33.767  -6.905 -21.445  0.00  0.00    +0.155 HD
ENDROOT
BRANCH   7  14
ATOM     12  N   UNL     1      33.585 -15.611 -24.327  0.00  0.00    -0.236 N 
ATOM     13  N   UNL     1      33.842 -16.156 -25.528  0.00  0.00    -0.180 NA
ATOM     14  C   UNL     1      33.114 -11.981 -23.699  0.00  0.00    +0.028 C 
ATOM     15  C   UNL     1      33.452 -14.249 -24.345  0.00  0.00    +0.067 C 
ATOM     16  C   UNL     1      33.189 -13.328 -23.329  0.00  0.00    +0.018 C 
ATOM     17  C   UNL     1      33.637 -13.881 -25.673  0.00  0.00    +0.035 C 
ATOM     18  C   UNL     1      33.298 -11.584 -25.025  0.00  0.00    +0.002 C 
ATOM     19  C   UNL     1      33.560 -12.524 -26.029  0.00  0.00    +0.003 C 
ATOM     20  C   UNL     1      33.873 -15.101 -26.344  0.00  0.00    +0.119 C 
ATOM     21  H   UNL     1      33.502 -16.146 -23.505  0.00  0.00    +0.174 HD
ENDBRANCH   7  14
BRANCH   1  25
ATOM     22  C   UNL     1      34.099  -5.593 -25.952  0.00  0.00    +0.048 C 
ATOM     23  C   UNL     1      32.859  -5.524 -25.317  0.00  0.00    +0.016 C 
ATOM     24  C   UNL     1      35.153  -6.279 -25.349  0.00  0.00    +0.016 C 
ATOM     25  C   UNL     1      33.728  -6.827 -23.478  0.00  0.00    +0.050 C 
ATOM     26  C   UNL     1      32.673  -6.141 -24.079  0.00  0.00    +0.016 C 
ATOM     27  C   UNL     1      34.968  -6.896 -24.113  0.00  0.00    +0.016 C 
BRANCH  22  29
ATOM     28  O   UNL     1      34.690  -3.493 -29.545  0.00  0.00    -0.350 OA
ATOM     29  N   UNL     1      34.285  -4.975 -27.193  0.00  0.00    -0.303 N 
ATOM     30  C   UNL     1      35.603  -4.399 -27.490  0.00  0.00    +0.123 C 
ATOM     31  C   UNL     1      33.153  -4.324 -27.862  0.00  0.00    +0.123 C 
ATOM     32  C   UNL     1      35.771  -4.247 -28.997  0.00  0.00    +0.164 C 
ATOM     33  C   UNL     1      33.452  -4.174 -29.350  0.00  0.00    +0.164 C 
ENDBRANCH  22  29
ENDBRANCH   1  25
TORSDOF 3
ENDMDL
