MODEL 1
REMARK VINA RESULT:     -13.4      0.000      0.000
REMARK  Name = 42628063
REMARK  6 active torsions:
REMARK  status: ('A' for Active; 'I' for Inactive)
REMARK    1  A    between atoms: C_1  and  N_3
REMARK    2  A    between atoms: C_1  and  C_21
REMARK    3  A    between atoms: C_4  and  N_10
REMARK    4  A    between atoms: C_11  and  C_15
REMARK    5  A    between atoms: N_20  and  C_24
REMARK    6  A    between atoms: C_27  and  N_31
REMARK                            x       y       z     vdW  Elec       q    Type
REMARK                         _______ _______ _______ _____ _____    ______ ____
ROOT
ATOM      1  C   UNL     1      34.913 -20.541 -21.373  0.00  0.00    +0.010 C 
ENDROOT
BRANCH   1   3
ATOM      2  F   UNL     1      35.815 -17.400 -24.433  0.00  0.00    -0.238 F 
ATOM      3  N   UNL     1      35.278 -19.287 -22.014  0.00  0.00    +0.396 N 
ATOM      4  C   UNL     1      35.053 -16.992 -22.251  0.00  0.00    +0.082 C 
ATOM      5  C   UNL     1      34.763 -17.636 -23.603  0.00  0.00    +0.156 C 
ATOM      6  C   UNL     1      34.845 -18.119 -21.246  0.00  0.00    -0.054 C 
ATOM      7  C   UNL     1      34.660 -19.132 -23.335  0.00  0.00    -0.039 C 
ATOM      8  H   UNL     1      36.294 -19.332 -22.082  0.00  0.00    -0.079 HD
BRANCH   4  10
ATOM      9  O   UNL     1      35.100 -14.455 -23.593  0.00  0.00    -0.270 OA
ATOM     10  N   UNL     1      34.211 -15.861 -21.976  0.00  0.00    -0.302 N 
ATOM     11  C   UNL     1      34.305 -14.666 -22.681  0.00  0.00    +0.252 C 
ATOM     12  H   UNL     1      33.540 -15.935 -21.261  0.00  0.00    +0.150 HD
BRANCH  11  15
ATOM     13 CL   UNL     1      31.377  -9.976 -22.532  0.00  0.00    -0.075 Cl
ATOM     14  S   UNL     1      33.200 -12.204 -23.259  0.00  0.00    -0.071 S 
ATOM     15  C   UNL     1      33.379 -13.583 -22.260  0.00  0.00    +0.084 C 
ATOM     16  C   UNL     1      32.596 -13.509 -21.130  0.00  0.00    +0.012 C 
ATOM     17  C   UNL     1      31.838 -12.303 -21.082  0.00  0.00    +0.019 C 
ATOM     18  C   UNL     1      32.071 -11.502 -22.179  0.00  0.00    +0.087 C 
ENDBRANCH  11  15
ENDBRANCH   4  10
ENDBRANCH   1   3
BRANCH   1  21
ATOM     19  O   UNL     1      36.859 -20.176 -19.995  0.00  0.00    -0.277 OA
ATOM     20  N   UNL     1      35.206 -21.689 -19.298  0.00  0.00    -0.284 N 
ATOM     21  C   UNL     1      35.794 -20.762 -20.155  0.00  0.00    +0.205 C 
ATOM     22  H   UNL     1      34.339 -22.058 -19.584  0.00  0.00    +0.155 HD
BRANCH  20  24
ATOM     23  F   UNL     1      33.599 -23.109 -17.516  0.00  0.00    -0.203 F 
ATOM     24  C   UNL     1      35.709 -22.162 -18.063  0.00  0.00    +0.078 C 
ATOM     25  C   UNL     1      34.878 -22.870 -17.192  0.00  0.00    +0.155 C 
ATOM     26  C   UNL     1      37.038 -21.920 -17.714  0.00  0.00    +0.018 C 
ATOM     27  C   UNL     1      36.705 -23.093 -15.629  0.00  0.00    +0.061 C 
ATOM     28  C   UNL     1      35.376 -23.335 -15.976  0.00  0.00    +0.046 C 
ATOM     29  C   UNL     1      37.536 -22.385 -16.498  0.00  0.00    +0.017 C 
BRANCH  27  31
ATOM     30  O   UNL     1      38.259 -25.506 -15.271  0.00  0.00    -0.269 OA
ATOM     31  N   UNL     1      37.224 -23.577 -14.364  0.00  0.00    -0.233 N 
ATOM     32  C   UNL     1      37.941 -24.800 -14.314  0.00  0.00    +0.257 C 
ATOM     33  C   UNL     1      37.042 -22.836 -13.193  0.00  0.00    +0.072 C 
ATOM     34  C   UNL     1      38.400 -25.250 -12.964  0.00  0.00    +0.059 C 
ATOM     35  C   UNL     1      37.492 -23.243 -12.002  0.00  0.00    +0.017 C 
ATOM     36  C   UNL     1      38.185 -24.491 -11.886  0.00  0.00    +0.006 C 
ENDBRANCH  27  31
ENDBRANCH  20  24
ENDBRANCH   1  21
TORSDOF 6
ENDMDL
MODEL 2
REMARK VINA RESULT:     -13.1      5.010     12.172
REMARK  Name = 42628063
REMARK  6 active torsions:
REMARK  status: ('A' for Active; 'I' for Inactive)
REMARK    1  A    between atoms: C_1  and  N_3
REMARK    2  A    between atoms: C_1  and  C_21
REMARK    3  A    between atoms: C_4  and  N_10
REMARK    4  A    between atoms: C_11  and  C_15
REMARK    5  A    between atoms: N_20  and  C_24
REMARK    6  A    between atoms: C_27  and  N_31
REMARK                            x       y       z     vdW  Elec       q    Type
REMARK                         _______ _______ _______ _____ _____    ______ ____
ROOT
ATOM      1  C   UNL     1      35.210 -21.560 -20.517  0.00  0.00    +0.010 C 
ENDROOT
BRANCH   1   3
ATOM      2  F   UNL     1      33.237 -22.676 -16.657  0.00  0.00    -0.238 F 
ATOM      3  N   UNL     1      34.925 -21.742 -19.102  0.00  0.00    +0.396 N 
ATOM      4  C   UNL     1      35.549 -22.448 -16.985  0.00  0.00    +0.082 C 
ATOM      5  C   UNL     1      34.274 -23.190 -17.371  0.00  0.00    +0.156 C 
ATOM      6  C   UNL     1      36.133 -21.987 -18.314  0.00  0.00    -0.054 C 
ATOM      7  C   UNL     1      34.059 -22.899 -18.850  0.00  0.00    -0.039 C 
ATOM      8  H   UNL     1      34.471 -20.872 -18.827  0.00  0.00    -0.079 HD
BRANCH   4  10
ATOM      9  O   UNL     1      35.371 -23.143 -14.205  0.00  0.00    -0.270 OA
ATOM     10  N   UNL     1      36.471 -23.264 -16.244  0.00  0.00    -0.302 N 
ATOM     11  C   UNL     1      36.303 -23.549 -14.893  0.00  0.00    +0.252 C 
ATOM     12  H   UNL     1      37.252 -23.637 -16.711  0.00  0.00    +0.150 HD
BRANCH  11  15
ATOM     13 CL   UNL     1      40.880 -26.542 -14.066  0.00  0.00    -0.075 Cl
ATOM     14  S   UNL     1      38.705 -24.873 -15.204  0.00  0.00    -0.071 S 
ATOM     15  C   UNL     1      37.357 -24.388 -14.266  0.00  0.00    +0.084 C 
ATOM     16  C   UNL     1      37.427 -24.862 -12.975  0.00  0.00    +0.012 C 
ATOM     17  C   UNL     1      38.603 -25.636 -12.752  0.00  0.00    +0.019 C 
ATOM     18  C   UNL     1      39.387 -25.722 -13.882  0.00  0.00    +0.087 C 
ENDBRANCH  11  15
ENDBRANCH   4  10
ENDBRANCH   1   3
BRANCH   1  21
ATOM     19  O   UNL     1      33.387 -19.983 -20.631  0.00  0.00    -0.277 OA
ATOM     20  N   UNL     1      35.310 -19.638 -21.934  0.00  0.00    -0.284 N 
ATOM     21  C   UNL     1      34.505 -20.310 -21.018  0.00  0.00    +0.205 C 
ATOM     22  H   UNL     1      36.185 -20.044 -22.125  0.00  0.00    +0.155 HD
BRANCH  20  24
ATOM     23  F   UNL     1      34.697 -19.631 -24.654  0.00  0.00    -0.203 F 
ATOM     24  C   UNL     1      35.014 -18.438 -22.623  0.00  0.00    +0.078 C 
ATOM     25  C   UNL     1      34.712 -18.468 -23.986  0.00  0.00    +0.155 C 
ATOM     26  C   UNL     1      35.027 -17.222 -21.940  0.00  0.00    +0.018 C 
ATOM     27  C   UNL     1      34.433 -16.069 -23.978  0.00  0.00    +0.061 C 
ATOM     28  C   UNL     1      34.421 -17.284 -24.662  0.00  0.00    +0.046 C 
ATOM     29  C   UNL     1      34.735 -16.038 -22.617  0.00  0.00    +0.017 C 
BRANCH  27  31
ATOM     30  O   UNL     1      33.415 -15.894 -26.680  0.00  0.00    -0.269 OA
ATOM     31  N   UNL     1      34.131 -14.838 -24.682  0.00  0.00    -0.233 N 
ATOM     32  C   UNL     1      33.672 -14.884 -26.025  0.00  0.00    +0.257 C 
ATOM     33  C   UNL     1      34.266 -13.604 -24.042  0.00  0.00    +0.072 C 
ATOM     34  C   UNL     1      33.429 -13.568 -26.691  0.00  0.00    +0.059 C 
ATOM     35  C   UNL     1      34.010 -12.441 -24.650  0.00  0.00    +0.017 C 
ATOM     36  C   UNL     1      33.585 -12.426 -26.018  0.00  0.00    +0.006 C 
ENDBRANCH  27  31
ENDBRANCH  20  24
ENDBRANCH   1  21
TORSDOF 6
ENDMDL
MODEL 3
REMARK VINA RESULT:     -12.7      2.208      2.505
REMARK  Name = 42628063
REMARK  6 active torsions:
REMARK  status: ('A' for Active; 'I' for Inactive)
REMARK    1  A    between atoms: C_1  and  N_3
REMARK    2  A    between atoms: C_1  and  C_21
REMARK    3  A    between atoms: C_4  and  N_10
REMARK    4  A    between atoms: C_11  and  C_15
REMARK    5  A    between atoms: N_20  and  C_24
REMARK    6  A    between atoms: C_27  and  N_31
REMARK                            x       y       z     vdW  Elec       q    Type
REMARK                         _______ _______ _______ _____ _____    ______ ____
ROOT
ATOM      1  C   UNL     1      33.499 -20.916 -20.726  0.00  0.00    +0.010 C 
ENDROOT
BRANCH   1   3
ATOM      2  F   UNL     1      37.306 -18.640 -21.332  0.00  0.00    -0.238 F 
ATOM      3  N   UNL     1      34.483 -19.847 -20.811  0.00  0.00    +0.396 N 
ATOM      4  C   UNL     1      35.144 -17.759 -21.568  0.00  0.00    +0.082 C 
ATOM      5  C   UNL     1      36.165 -18.782 -22.057  0.00  0.00    +0.156 C 
ATOM      6  C   UNL     1      33.900 -18.584 -21.266  0.00  0.00    -0.054 C 
ATOM      7  C   UNL     1      35.552 -20.146 -21.770  0.00  0.00    -0.039 C 
ATOM      8  H   UNL     1      34.846 -19.770 -19.862  0.00  0.00    -0.079 HD
BRANCH   4  10
ATOM      9  O   UNL     1      34.286 -15.078 -21.006  0.00  0.00    -0.270 OA
ATOM     10  N   UNL     1      34.885 -16.722 -22.528  0.00  0.00    -0.302 N 
ATOM     11  C   UNL     1      34.470 -15.446 -22.162  0.00  0.00    +0.252 C 
ATOM     12  H   UNL     1      35.006 -16.923 -23.484  0.00  0.00    +0.150 HD
BRANCH  11  15
ATOM     13 CL   UNL     1      33.346 -13.315 -27.141  0.00  0.00    -0.075 Cl
ATOM     14  S   UNL     1      33.871 -15.110 -24.836  0.00  0.00    -0.071 S 
ATOM     15  C   UNL     1      34.220 -14.495 -23.276  0.00  0.00    +0.084 C 
ATOM     16  C   UNL     1      34.222 -13.118 -23.251  0.00  0.00    +0.012 C 
ATOM     17  C   UNL     1      33.935 -12.559 -24.531  0.00  0.00    +0.019 C 
ATOM     18  C   UNL     1      33.723 -13.532 -25.484  0.00  0.00    +0.087 C 
ENDBRANCH  11  15
ENDBRANCH   4  10
ENDBRANCH   1   3
BRANCH   1  21
ATOM     19  O   UNL     1      32.645 -22.034 -18.766  0.00  0.00    -0.277 OA
ATOM     20  N   UNL     1      34.954 -21.670 -18.986  0.00  0.00    -0.284 N 
ATOM     21  C   UNL     1      33.618 -21.606 -19.377  0.00  0.00    +0.205 C 
ATOM     22  H   UNL     1      35.608 -21.278 -19.607  0.00  0.00    +0.155 HD
BRANCH  20  24
ATOM     23  F   UNL     1      37.521 -21.054 -18.090  0.00  0.00    -0.203 F 
ATOM     24  C   UNL     1      35.479 -22.234 -17.799  0.00  0.00    +0.078 C 
ATOM     25  C   UNL     1      36.768 -21.906 -17.378  0.00  0.00    +0.155 C 
ATOM     26  C   UNL     1      34.706 -23.121 -17.050  0.00  0.00    +0.018 C 
ATOM     27  C   UNL     1      36.509 -23.349 -15.459  0.00  0.00    +0.061 C 
ATOM     28  C   UNL     1      37.283 -22.463 -16.208  0.00  0.00    +0.046 C 
ATOM     29  C   UNL     1      35.221 -23.678 -15.879  0.00  0.00    +0.017 C 
BRANCH  27  31
ATOM     30  O   UNL     1      37.723 -25.965 -15.246  0.00  0.00    -0.269 OA
ATOM     31  N   UNL     1      37.045 -23.928 -14.242  0.00  0.00    -0.233 N 
ATOM     32  C   UNL     1      37.581 -25.242 -14.260  0.00  0.00    +0.257 C 
ATOM     33  C   UNL     1      37.058 -23.195 -13.053  0.00  0.00    +0.072 C 
ATOM     34  C   UNL     1      38.069 -25.781 -12.953  0.00  0.00    +0.059 C 
ATOM     35  C   UNL     1      37.531 -23.687 -11.904  0.00  0.00    +0.017 C 
ATOM     36  C   UNL     1      38.045 -25.023 -11.855  0.00  0.00    +0.006 C 
ENDBRANCH  27  31
ENDBRANCH  20  24
ENDBRANCH   1  21
TORSDOF 6
ENDMDL
MODEL 4
REMARK VINA RESULT:     -12.6      5.016     12.179
REMARK  Name = 42628063
REMARK  6 active torsions:
REMARK  status: ('A' for Active; 'I' for Inactive)
REMARK    1  A    between atoms: C_1  and  N_3
REMARK    2  A    between atoms: C_1  and  C_21
REMARK    3  A    between atoms: C_4  and  N_10
REMARK    4  A    between atoms: C_11  and  C_15
REMARK    5  A    between atoms: N_20  and  C_24
REMARK    6  A    between atoms: C_27  and  N_31
REMARK                            x       y       z     vdW  Elec       q    Type
REMARK                         _______ _______ _______ _____ _____    ______ ____
ROOT
ATOM      1  C   UNL     1      35.229 -21.563 -20.536  0.00  0.00    +0.010 C 
ENDROOT
BRANCH   1   3
ATOM      2  F   UNL     1      33.223 -22.700 -16.699  0.00  0.00    -0.238 F 
ATOM      3  N   UNL     1      34.934 -21.757 -19.125  0.00  0.00    +0.396 N 
ATOM      4  C   UNL     1      35.539 -22.489 -17.011  0.00  0.00    +0.082 C 
ATOM      5  C   UNL     1      34.259 -23.216 -17.412  0.00  0.00    +0.156 C 
ATOM      6  C   UNL     1      36.136 -22.021 -18.332  0.00  0.00    -0.054 C 
ATOM      7  C   UNL     1      34.056 -22.909 -18.890  0.00  0.00    -0.039 C 
ATOM      8  H   UNL     1      34.486 -20.886 -18.844  0.00  0.00    -0.079 HD
BRANCH   4  10
ATOM      9  O   UNL     1      35.517 -22.961 -14.179  0.00  0.00    -0.270 OA
ATOM     10  N   UNL     1      36.449 -23.321 -16.273  0.00  0.00    -0.302 N 
ATOM     11  C   UNL     1      36.362 -23.492 -14.895  0.00  0.00    +0.252 C 
ATOM     12  H   UNL     1      37.162 -23.790 -16.762  0.00  0.00    +0.150 HD
BRANCH  11  15
ATOM     13 CL   UNL     1      40.876 -26.585 -14.091  0.00  0.00    -0.075 Cl
ATOM     14  S   UNL     1      38.744 -24.849 -15.211  0.00  0.00    -0.071 S 
ATOM     15  C   UNL     1      37.393 -24.365 -14.277  0.00  0.00    +0.084 C 
ATOM     16  C   UNL     1      37.438 -24.876 -12.999  0.00  0.00    +0.012 C 
ATOM     17  C   UNL     1      38.597 -25.676 -12.782  0.00  0.00    +0.019 C 
ATOM     18  C   UNL     1      39.395 -25.744 -13.904  0.00  0.00    +0.087 C 
ENDBRANCH  11  15
ENDBRANCH   4  10
ENDBRANCH   1   3
BRANCH   1  21
ATOM     19  O   UNL     1      33.476 -19.906 -20.561  0.00  0.00    -0.277 OA
ATOM     20  N   UNL     1      35.289 -19.706 -22.039  0.00  0.00    -0.284 N 
ATOM     21  C   UNL     1      34.539 -20.302 -21.028  0.00  0.00    +0.205 C 
ATOM     22  H   UNL     1      36.125 -20.161 -22.287  0.00  0.00    +0.155 HD
BRANCH  20  24
ATOM     23  F   UNL     1      35.464 -17.197 -20.838  0.00  0.00    -0.203 F 
ATOM     24  C   UNL     1      34.987 -18.522 -22.753  0.00  0.00    +0.078 C 
ATOM     25  C   UNL     1      35.085 -17.280 -22.122  0.00  0.00    +0.155 C 
ATOM     26  C   UNL     1      34.592 -18.595 -24.088  0.00  0.00    +0.018 C 
ATOM     27  C   UNL     1      34.393 -16.188 -24.162  0.00  0.00    +0.061 C 
ATOM     28  C   UNL     1      34.788 -16.115 -22.827  0.00  0.00    +0.046 C 
ATOM     29  C   UNL     1      34.295 -17.429 -24.793  0.00  0.00    +0.017 C 
BRANCH  27  31
ATOM     30  O   UNL     1      34.536 -13.505 -23.092  0.00  0.00    -0.269 OA
ATOM     31  N   UNL     1      34.084 -14.976 -24.895  0.00  0.00    -0.233 N 
ATOM     32  C   UNL     1      34.155 -13.718 -24.243  0.00  0.00    +0.257 C 
ATOM     33  C   UNL     1      33.738 -15.033 -26.247  0.00  0.00    +0.072 C 
ATOM     34  C   UNL     1      33.775 -12.523 -25.058  0.00  0.00    +0.059 C 
ATOM     35  C   UNL     1      33.435 -13.947 -26.964  0.00  0.00    +0.017 C 
ATOM     36  C   UNL     1      33.448 -12.655 -26.346  0.00  0.00    +0.006 C 
ENDBRANCH  27  31
ENDBRANCH  20  24
ENDBRANCH   1  21
TORSDOF 6
ENDMDL
MODEL 5
REMARK VINA RESULT:     -12.5      4.834     12.195
REMARK  Name = 42628063
REMARK  6 active torsions:
REMARK  status: ('A' for Active; 'I' for Inactive)
REMARK    1  A    between atoms: C_1  and  N_3
REMARK    2  A    between atoms: C_1  and  C_21
REMARK    3  A    between atoms: C_4  and  N_10
REMARK    4  A    between atoms: C_11  and  C_15
REMARK    5  A    between atoms: N_20  and  C_24
REMARK    6  A    between atoms: C_27  and  N_31
REMARK                            x       y       z     vdW  Elec       q    Type
REMARK                         _______ _______ _______ _____ _____    ______ ____
ROOT
ATOM      1  C   UNL     1      34.318 -17.397 -24.198  0.00  0.00    +0.010 C 
ENDROOT
BRANCH   1   3
ATOM      2  F   UNL     1      37.549 -18.615 -21.349  0.00  0.00    -0.238 F 
ATOM      3  N   UNL     1      35.207 -18.182 -23.355  0.00  0.00    +0.396 N 
ATOM      4  C   UNL     1      35.554 -19.792 -21.725  0.00  0.00    +0.082 C 
ATOM      5  C   UNL     1      36.198 -18.494 -21.249  0.00  0.00    +0.156 C 
ATOM      6  C   UNL     1      34.541 -19.348 -22.772  0.00  0.00    -0.054 C 
ATOM      7  C   UNL     1      35.717 -17.417 -22.213  0.00  0.00    -0.039 C 
ATOM      8  H   UNL     1      35.961 -18.459 -23.983  0.00  0.00    -0.079 HD
BRANCH   4  10
ATOM      9  O   UNL     1      36.869 -21.575 -19.899  0.00  0.00    -0.270 OA
ATOM     10  N   UNL     1      34.940 -20.536 -20.661  0.00  0.00    -0.302 N 
ATOM     11  C   UNL     1      35.659 -21.380 -19.821  0.00  0.00    +0.252 C 
ATOM     12  H   UNL     1      33.971 -20.445 -20.519  0.00  0.00    +0.150 HD
BRANCH  11  15
ATOM     13 CL   UNL     1      34.150 -23.896 -15.133  0.00  0.00    -0.075 Cl
ATOM     14  S   UNL     1      35.615 -22.473 -17.287  0.00  0.00    -0.071 S 
ATOM     15  C   UNL     1      34.873 -22.098 -18.784  0.00  0.00    +0.084 C 
ATOM     16  C   UNL     1      33.567 -22.531 -18.838  0.00  0.00    +0.012 C 
ATOM     17  C   UNL     1      33.169 -23.182 -17.635  0.00  0.00    +0.019 C 
ATOM     18  C   UNL     1      34.187 -23.220 -16.706  0.00  0.00    +0.087 C 
ENDBRANCH  11  15
ENDBRANCH   4  10
ENDBRANCH   1   3
BRANCH   1  21
ATOM     19  O   UNL     1      35.783 -15.487 -24.033  0.00  0.00    -0.277 OA
ATOM     20  N   UNL     1      33.459 -15.188 -23.887  0.00  0.00    -0.284 N 
ATOM     21  C   UNL     1      34.636 -15.920 -24.029  0.00  0.00    +0.205 C 
ATOM     22  H   UNL     1      32.621 -15.702 -23.914  0.00  0.00    +0.155 HD
BRANCH  20  24
ATOM     23  F   UNL     1      32.064 -14.117 -21.724  0.00  0.00    -0.203 F 
ATOM     24  C   UNL     1      33.330 -13.790 -23.709  0.00  0.00    +0.078 C 
ATOM     25  C   UNL     1      32.625 -13.285 -22.615  0.00  0.00    +0.155 C 
ATOM     26  C   UNL     1      33.908 -12.915 -24.628  0.00  0.00    +0.018 C 
ATOM     27  C   UNL     1      33.078 -11.034 -23.361  0.00  0.00    +0.061 C 
ATOM     28  C   UNL     1      32.499 -11.908 -22.442  0.00  0.00    +0.046 C 
ATOM     29  C   UNL     1      33.782 -11.537 -24.454  0.00  0.00    +0.017 C 
BRANCH  27  31
ATOM     30  O   UNL     1      35.186  -9.097 -23.774  0.00  0.00    -0.269 OA
ATOM     31  N   UNL     1      32.947  -9.601 -23.181  0.00  0.00    -0.233 N 
ATOM     32  C   UNL     1      34.071  -8.757 -23.377  0.00  0.00    +0.257 C 
ATOM     33  C   UNL     1      31.716  -9.039 -22.836  0.00  0.00    +0.072 C 
ATOM     34  C   UNL     1      33.861  -7.298 -23.126  0.00  0.00    +0.059 C 
ATOM     35  C   UNL     1      31.545  -7.726 -22.649  0.00  0.00    +0.017 C 
ATOM     36  C   UNL     1      32.655  -6.833 -22.792  0.00  0.00    +0.006 C 
ENDBRANCH  27  31
ENDBRANCH  20  24
ENDBRANCH   1  21
TORSDOF 6
ENDMDL
MODEL 6
REMARK VINA RESULT:     -12.1      3.056      3.785
REMARK  Name = 42628063
REMARK  6 active torsions:
REMARK  status: ('A' for Active; 'I' for Inactive)
REMARK    1  A    between atoms: C_1  and  N_3
REMARK    2  A    between atoms: C_1  and  C_21
REMARK    3  A    between atoms: C_4  and  N_10
REMARK    4  A    between atoms: C_11  and  C_15
REMARK    5  A    between atoms: N_20  and  C_24
REMARK    6  A    between atoms: C_27  and  N_31
REMARK                            x       y       z     vdW  Elec       q    Type
REMARK                         _______ _______ _______ _____ _____    ______ ____
ROOT
ATOM      1  C   UNL     1      36.520 -18.664 -23.001  0.00  0.00    +0.010 C 
ENDROOT
BRANCH   1   3
ATOM      2  F   UNL     1      33.834 -16.587 -25.919  0.00  0.00    -0.238 F 
ATOM      3  N   UNL     1      35.856 -17.644 -23.800  0.00  0.00    +0.396 N 
ATOM      4  C   UNL     1      34.738 -15.623 -23.980  0.00  0.00    +0.082 C 
ATOM      5  C   UNL     1      33.842 -16.711 -24.565  0.00  0.00    +0.156 C 
ATOM      6  C   UNL     1      35.708 -16.378 -23.081  0.00  0.00    -0.054 C 
ATOM      7  C   UNL     1      34.495 -18.032 -24.184  0.00  0.00    -0.039 C 
ATOM      8  H   UNL     1      36.457 -17.541 -24.617  0.00  0.00    -0.079 HD
BRANCH   4  10
ATOM      9  O   UNL     1      33.847 -13.090 -24.997  0.00  0.00    -0.270 OA
ATOM     10  N   UNL     1      34.004 -14.620 -23.260  0.00  0.00    -0.302 N 
ATOM     11  C   UNL     1      33.612 -13.416 -23.836  0.00  0.00    +0.252 C 
ATOM     12  H   UNL     1      33.768 -14.791 -22.320  0.00  0.00    +0.150 HD
BRANCH  11  15
ATOM     13 CL   UNL     1      31.565  -8.806 -21.567  0.00  0.00    -0.075 Cl
ATOM     14  S   UNL     1      32.984 -10.792 -23.257  0.00  0.00    -0.071 S 
ATOM     15  C   UNL     1      32.881 -12.473 -22.951  0.00  0.00    +0.084 C 
ATOM     16  C   UNL     1      32.086 -12.753 -21.862  0.00  0.00    +0.012 C 
ATOM     17  C   UNL     1      31.554 -11.571 -21.269  0.00  0.00    +0.019 C 
ATOM     18  C   UNL     1      31.963 -10.433 -21.930  0.00  0.00    +0.087 C 
ENDBRANCH  11  15
ENDBRANCH   4  10
ENDBRANCH   1   3
BRANCH   1  21
ATOM     19  O   UNL     1      35.324 -17.993 -21.017  0.00  0.00    -0.277 OA
ATOM     20  N   UNL     1      35.538 -20.273 -21.533  0.00  0.00    -0.284 N 
ATOM     21  C   UNL     1      35.725 -18.907 -21.730  0.00  0.00    +0.205 C 
ATOM     22  H   UNL     1      35.927 -20.868 -22.213  0.00  0.00    +0.155 HD
BRANCH  20  24
ATOM     23  F   UNL     1      36.889 -21.787 -19.621  0.00  0.00    -0.203 F 
ATOM     24  C   UNL     1      34.851 -20.905 -20.469  0.00  0.00    +0.078 C 
ATOM     25  C   UNL     1      35.557 -21.656 -19.528  0.00  0.00    +0.155 C 
ATOM     26  C   UNL     1      33.466 -20.778 -20.362  0.00  0.00    +0.018 C 
ATOM     27  C   UNL     1      33.494 -22.149 -18.373  0.00  0.00    +0.061 C 
ATOM     28  C   UNL     1      34.879 -22.278 -18.481  0.00  0.00    +0.046 C 
ATOM     29  C   UNL     1      32.788 -21.399 -19.314  0.00  0.00    +0.017 C 
BRANCH  27  31
ATOM     30  O   UNL     1      34.741 -23.431 -16.100  0.00  0.00    -0.269 OA
ATOM     31  N   UNL     1      32.788 -22.796 -17.284  0.00  0.00    -0.233 N 
ATOM     32  C   UNL     1      33.519 -23.426 -16.243  0.00  0.00    +0.257 C 
ATOM     33  C   UNL     1      31.393 -22.786 -17.238  0.00  0.00    +0.072 C 
ATOM     34  C   UNL     1      32.714 -24.109 -15.184  0.00  0.00    +0.059 C 
ATOM     35  C   UNL     1      30.695 -23.375 -16.262  0.00  0.00    +0.017 C 
ATOM     36  C   UNL     1      31.379 -24.063 -15.208  0.00  0.00    +0.006 C 
ENDBRANCH  27  31
ENDBRANCH  20  24
ENDBRANCH   1  21
TORSDOF 6
ENDMDL
MODEL 7
REMARK VINA RESULT:     -12.0      4.905     11.899
REMARK  Name = 42628063
REMARK  6 active torsions:
REMARK  status: ('A' for Active; 'I' for Inactive)
REMARK    1  A    between atoms: C_1  and  N_3
REMARK    2  A    between atoms: C_1  and  C_21
REMARK    3  A    between atoms: C_4  and  N_10
REMARK    4  A    between atoms: C_11  and  C_15
REMARK    5  A    between atoms: N_20  and  C_24
REMARK    6  A    between atoms: C_27  and  N_31
REMARK                            x       y       z     vdW  Elec       q    Type
REMARK                         _______ _______ _______ _____ _____    ______ ____
ROOT
ATOM      1  C   UNL     1      35.894 -20.821 -20.581  0.00  0.00    +0.010 C 
ENDROOT
BRANCH   1   3
ATOM      2  F   UNL     1      33.141 -22.541 -17.498  0.00  0.00    -0.238 F 
ATOM      3  N   UNL     1      35.310 -21.241 -19.316  0.00  0.00    +0.396 N 
ATOM      4  C   UNL     1      35.467 -22.324 -17.274  0.00  0.00    +0.082 C 
ATOM      5  C   UNL     1      34.314 -22.951 -18.051  0.00  0.00    +0.156 C 
ATOM      6  C   UNL     1      36.321 -21.654 -18.343  0.00  0.00    -0.054 C 
ATOM      7  C   UNL     1      34.422 -22.399 -19.467  0.00  0.00    -0.039 C 
ATOM      8  H   UNL     1      34.798 -20.420 -18.996  0.00  0.00    -0.079 HD
BRANCH   4  10
ATOM      9  O   UNL     1      37.840 -21.819 -15.739  0.00  0.00    -0.270 OA
ATOM     10  N   UNL     1      36.214 -23.283 -16.508  0.00  0.00    -0.302 N 
ATOM     11  C   UNL     1      37.358 -22.946 -15.792  0.00  0.00    +0.252 C 
ATOM     12  H   UNL     1      35.904 -24.217 -16.489  0.00  0.00    +0.150 HD
BRANCH  11  15
ATOM     13 CL   UNL     1      40.987 -26.841 -14.290  0.00  0.00    -0.075 Cl
ATOM     14  S   UNL     1      39.539 -24.631 -15.644  0.00  0.00    -0.071 S 
ATOM     15  C   UNL     1      38.030 -24.059 -15.072  0.00  0.00    +0.084 C 
ATOM     16  C   UNL     1      37.609 -24.740 -13.952  0.00  0.00    +0.012 C 
ATOM     17  C   UNL     1      38.538 -25.747 -13.557  0.00  0.00    +0.019 C 
ATOM     18  C   UNL     1      39.633 -25.795 -14.392  0.00  0.00    +0.087 C 
ENDBRANCH  11  15
ENDBRANCH   4  10
ENDBRANCH   1   3
BRANCH   1  21
ATOM     19  O   UNL     1      33.963 -19.950 -21.737  0.00  0.00    -0.277 OA
ATOM     20  N   UNL     1      35.655 -18.485 -21.029  0.00  0.00    -0.284 N 
ATOM     21  C   UNL     1      35.039 -19.723 -21.193  0.00  0.00    +0.205 C 
ATOM     22  H   UNL     1      36.521 -18.489 -20.560  0.00  0.00    +0.155 HD
BRANCH  20  24
ATOM     23  F   UNL     1      35.670 -17.758 -23.720  0.00  0.00    -0.203 F 
ATOM     24  C   UNL     1      35.181 -17.222 -21.457  0.00  0.00    +0.078 C 
ATOM     25  C   UNL     1      35.202 -16.889 -22.812  0.00  0.00    +0.155 C 
ATOM     26  C   UNL     1      34.693 -16.309 -20.522  0.00  0.00    +0.018 C 
ATOM     27  C   UNL     1      34.246 -14.732 -22.296  0.00  0.00    +0.061 C 
ATOM     28  C   UNL     1      34.735 -15.644 -23.231  0.00  0.00    +0.046 C 
ATOM     29  C   UNL     1      34.225 -15.064 -20.942  0.00  0.00    +0.017 C 
BRANCH  27  31
ATOM     30  O   UNL     1      32.091 -13.252 -21.058  0.00  0.00    -0.269 OA
ATOM     31  N   UNL     1      33.759 -13.437 -22.732  0.00  0.00    -0.233 N 
ATOM     32  C   UNL     1      32.665 -12.830 -22.062  0.00  0.00    +0.257 C 
ATOM     33  C   UNL     1      34.374 -12.770 -23.794  0.00  0.00    +0.072 C 
ATOM     34  C   UNL     1      32.197 -11.518 -22.605  0.00  0.00    +0.059 C 
ATOM     35  C   UNL     1      33.957 -11.580 -24.240  0.00  0.00    +0.017 C 
ATOM     36  C   UNL     1      32.831 -10.941 -23.629  0.00  0.00    +0.006 C 
ENDBRANCH  27  31
ENDBRANCH  20  24
ENDBRANCH   1  21
TORSDOF 6
ENDMDL
MODEL 8
REMARK VINA RESULT:     -11.6      4.646     10.433
REMARK  Name = 42628063
REMARK  6 active torsions:
REMARK  status: ('A' for Active; 'I' for Inactive)
REMARK    1  A    between atoms: C_1  and  N_3
REMARK    2  A    between atoms: C_1  and  C_21
REMARK    3  A    between atoms: C_4  and  N_10
REMARK    4  A    between atoms: C_11  and  C_15
REMARK    5  A    between atoms: N_20  and  C_24
REMARK    6  A    between atoms: C_27  and  N_31
REMARK                            x       y       z     vdW  Elec       q    Type
REMARK                         _______ _______ _______ _____ _____    ______ ____
ROOT
ATOM      1  C   UNL     1      37.646 -23.312 -15.926  0.00  0.00    +0.010 C 
ENDROOT
BRANCH   1   3
ATOM      2  F   UNL     1      35.073 -24.556 -12.480  0.00  0.00    -0.238 F 
ATOM      3  N   UNL     1      36.633 -23.964 -15.110  0.00  0.00    +0.396 N 
ATOM      4  C   UNL     1      34.438 -24.610 -14.739  0.00  0.00    +0.082 C 
ATOM      5  C   UNL     1      34.882 -23.750 -13.559  0.00  0.00    +0.156 C 
ATOM      6  C   UNL     1      35.406 -24.241 -15.857  0.00  0.00    -0.054 C 
ATOM      7  C   UNL     1      36.215 -23.139 -13.972  0.00  0.00    -0.039 C 
ATOM      8  H   UNL     1      37.082 -24.825 -14.799  0.00  0.00    -0.079 HD
BRANCH   4  10
ATOM      9  O   UNL     1      32.108 -25.304 -13.212  0.00  0.00    -0.270 OA
ATOM     10  N   UNL     1      33.070 -24.384 -15.112  0.00  0.00    -0.302 N 
ATOM     11  C   UNL     1      32.000 -24.756 -14.306  0.00  0.00    +0.252 C 
ATOM     12  H   UNL     1      32.881 -23.948 -15.974  0.00  0.00    +0.150 HD
BRANCH  11  15
ATOM     13 CL   UNL     1      27.597 -22.203 -16.472  0.00  0.00    -0.075 Cl
ATOM     14  S   UNL     1      30.265 -22.889 -15.367  0.00  0.00    -0.071 S 
ATOM     15  C   UNL     1      30.644 -24.476 -14.846  0.00  0.00    +0.084 C 
ATOM     16  C   UNL     1      29.584 -25.340 -15.006  0.00  0.00    +0.012 C 
ATOM     17  C   UNL     1      28.444 -24.691 -15.563  0.00  0.00    +0.019 C 
ATOM     18  C   UNL     1      28.678 -23.355 -15.808  0.00  0.00    +0.087 C 
ENDBRANCH  11  15
ENDBRANCH   4  10
ENDBRANCH   1   3
BRANCH   1  21
ATOM     19  O   UNL     1      36.520 -21.185 -16.094  0.00  0.00    -0.277 OA
ATOM     20  N   UNL     1      37.119 -22.343 -18.046  0.00  0.00    -0.284 N 
ATOM     21  C   UNL     1      37.021 -22.145 -16.671  0.00  0.00    +0.205 C 
ATOM     22  H   UNL     1      37.560 -23.174 -18.336  0.00  0.00    +0.155 HD
BRANCH  20  24
ATOM     23  F   UNL     1      34.517 -22.516 -19.032  0.00  0.00    -0.203 F 
ATOM     24  C   UNL     1      36.659 -21.488 -19.076  0.00  0.00    +0.078 C 
ATOM     25  C   UNL     1      35.351 -21.600 -19.548  0.00  0.00    +0.155 C 
ATOM     26  C   UNL     1      37.516 -20.532 -19.621  0.00  0.00    +0.018 C 
ATOM     27  C   UNL     1      35.757 -19.801 -21.106  0.00  0.00    +0.061 C 
ATOM     28  C   UNL     1      34.900 -20.757 -20.562  0.00  0.00    +0.046 C 
ATOM     29  C   UNL     1      37.065 -19.688 -20.635  0.00  0.00    +0.017 C 
BRANCH  27  31
ATOM     30  O   UNL     1      35.343 -16.950 -20.849  0.00  0.00    -0.269 OA
ATOM     31  N   UNL     1      35.288 -18.923 -22.161  0.00  0.00    -0.233 N 
ATOM     32  C   UNL     1      35.087 -17.544 -21.897  0.00  0.00    +0.257 C 
ATOM     33  C   UNL     1      35.053 -19.421 -23.445  0.00  0.00    +0.072 C 
ATOM     34  C   UNL     1      34.558 -16.719 -23.027  0.00  0.00    +0.059 C 
ATOM     35  C   UNL     1      34.612 -18.656 -24.449  0.00  0.00    +0.017 C 
ATOM     36  C   UNL     1      34.351 -17.266 -24.228  0.00  0.00    +0.006 C 
ENDBRANCH  27  31
ENDBRANCH  20  24
ENDBRANCH   1  21
TORSDOF 6
ENDMDL
MODEL 9
REMARK VINA RESULT:     -11.6      5.256      9.274
REMARK  Name = 42628063
REMARK  6 active torsions:
REMARK  status: ('A' for Active; 'I' for Inactive)
REMARK    1  A    between atoms: C_1  and  N_3
REMARK    2  A    between atoms: C_1  and  C_21
REMARK    3  A    between atoms: C_4  and  N_10
REMARK    4  A    between atoms: C_11  and  C_15
REMARK    5  A    between atoms: N_20  and  C_24
REMARK    6  A    between atoms: C_27  and  N_31
REMARK                            x       y       z     vdW  Elec       q    Type
REMARK                         _______ _______ _______ _____ _____    ______ ____
ROOT
ATOM      1  C   UNL     1      33.462 -11.406 -23.781  0.00  0.00    +0.010 C 
ENDROOT
BRANCH   1   3
ATOM      2  F   UNL     1      31.503  -8.717 -20.785  0.00  0.00    -0.238 F 
ATOM      3  N   UNL     1      32.617 -10.398 -23.159  0.00  0.00    +0.396 N 
ATOM      4  C   UNL     1      31.763  -8.245 -23.069  0.00  0.00    +0.082 C 
ATOM      5  C   UNL     1      32.454  -8.533 -21.740  0.00  0.00    +0.156 C 
ATOM      6  C   UNL     1      32.374  -9.252 -24.036  0.00  0.00    -0.054 C 
ATOM      7  C   UNL     1      33.218  -9.834 -21.945  0.00  0.00    -0.039 C 
ATOM      8  H   UNL     1      31.753 -10.896 -22.948  0.00  0.00    -0.079 HD
BRANCH   4  10
ATOM      9  O   UNL     1      30.364  -5.926 -22.118  0.00  0.00    -0.270 OA
ATOM     10  N   UNL     1      31.946  -6.891 -23.514  0.00  0.00    -0.302 N 
ATOM     11  C   UNL     1      31.219  -5.825 -22.993  0.00  0.00    +0.252 C 
ATOM     12  H   UNL     1      32.612  -6.710 -24.215  0.00  0.00    +0.150 HD
BRANCH  11  15
ATOM     13 CL   UNL     1      32.934  -1.788 -26.362  0.00  0.00    -0.075 Cl
ATOM     14  S   UNL     1      32.307  -4.395 -25.088  0.00  0.00    -0.071 S 
ATOM     15  C   UNL     1      31.508  -4.490 -23.577  0.00  0.00    +0.084 C 
ATOM     16  C   UNL     1      31.216  -3.244 -23.066  0.00  0.00    +0.012 C 
ATOM     17  C   UNL     1      31.655  -2.197 -23.927  0.00  0.00    +0.019 C 
ATOM     18  C   UNL     1      32.265  -2.683 -25.063  0.00  0.00    +0.087 C 
ENDBRANCH  11  15
ENDBRANCH   4  10
ENDBRANCH   1   3
BRANCH   1  21
ATOM     19  O   UNL     1      32.221 -13.025 -22.493  0.00  0.00    -0.277 OA
ATOM     20  N   UNL     1      34.396 -13.532 -23.217  0.00  0.00    -0.284 N 
ATOM     21  C   UNL     1      33.260 -12.738 -23.079  0.00  0.00    +0.205 C 
ATOM     22  H   UNL     1      35.141 -13.141 -23.727  0.00  0.00    +0.155 HD
BRANCH  20  24
ATOM     23  F   UNL     1      34.830 -15.704 -24.910  0.00  0.00    -0.203 F 
ATOM     24  C   UNL     1      34.603 -14.837 -22.709  0.00  0.00    +0.078 C 
ATOM     25  C   UNL     1      34.818 -15.903 -23.583  0.00  0.00    +0.155 C 
ATOM     26  C   UNL     1      34.592 -15.057 -21.332  0.00  0.00    +0.018 C 
ATOM     27  C   UNL     1      35.012 -17.407 -21.704  0.00  0.00    +0.061 C 
ATOM     28  C   UNL     1      35.022 -17.187 -23.081  0.00  0.00    +0.046 C 
ATOM     29  C   UNL     1      34.797 -16.342 -20.829  0.00  0.00    +0.017 C 
BRANCH  27  31
ATOM     30  O   UNL     1      37.580 -18.541 -21.007  0.00  0.00    -0.269 OA
ATOM     31  N   UNL     1      35.225 -18.743 -21.181  0.00  0.00    -0.233 N 
ATOM     32  C   UNL     1      36.543 -19.197 -20.914  0.00  0.00    +0.257 C 
ATOM     33  C   UNL     1      34.140 -19.581 -20.915  0.00  0.00    +0.072 C 
ATOM     34  C   UNL     1      36.676 -20.602 -20.421  0.00  0.00    +0.059 C 
ATOM     35  C   UNL     1      34.283 -20.823 -20.442  0.00  0.00    +0.017 C 
ATOM     36  C   UNL     1      35.592 -21.349 -20.195  0.00  0.00    +0.006 C 
ENDBRANCH  27  31
ENDBRANCH  20  24
ENDBRANCH   1  21
TORSDOF 6
ENDMDL
