MODEL 1
REMARK VINA RESULT:     -13.0      0.000      0.000
REMARK  Name = 6419766
REMARK  1 active torsions:
REMARK  status: ('A' for Active; 'I' for Inactive)
REMARK    1  A    between atoms: C_9  and  C_20
REMARK                            x       y       z     vdW  Elec       q    Type
REMARK                         _______ _______ _______ _____ _____    ______ ____
ROOT
ATOM      1  N   UNL     1      34.530 -24.101 -14.695  0.00  0.00    -0.274 N 
ATOM      2  N   UNL     1      34.187 -23.008 -16.751  0.00  0.00    -0.328 NA
ATOM      3  N   UNL     1      31.970 -22.771 -17.662  0.00  0.00    -0.343 NA
ATOM      4  N   UNL     1      37.772 -25.007 -15.336  0.00  0.00    -0.239 N 
ATOM      5  N   UNL     1      36.600 -24.560 -15.818  0.00  0.00    -0.166 NA
ATOM      6  C   UNL     1      32.276 -23.890 -15.564  0.00  0.00    +0.143 C 
ATOM      7  C   UNL     1      33.640 -23.652 -15.703  0.00  0.00    +0.185 C 
ATOM      8  C   UNL     1      31.456 -23.417 -16.601  0.00  0.00    +0.133 C 
ATOM      9  C   UNL     1      33.307 -22.601 -17.680  0.00  0.00    +0.138 C 
ATOM     10  C   UNL     1      35.871 -24.515 -14.731  0.00  0.00    +0.152 C 
ATOM     11  C   UNL     1      31.728 -24.565 -14.459  0.00  0.00    -0.011 C 
ATOM     12  C   UNL     1      30.085 -23.637 -16.498  0.00  0.00    +0.029 C 
ATOM     13  C   UNL     1      36.500 -24.907 -13.562  0.00  0.00    +0.048 C 
ATOM     14  C   UNL     1      37.765 -25.232 -13.990  0.00  0.00    +0.046 C 
ATOM     15  C   UNL     1      30.354 -24.772 -14.382  0.00  0.00    -0.004 C 
ATOM     16  C   UNL     1      29.531 -24.308 -15.402  0.00  0.00    +0.002 C 
ATOM     17  C   UNL     1      38.950 -25.723 -13.270  0.00  0.00    +0.049 C 
ATOM     18  H   UNL     1      34.130 -24.127 -13.796  0.00  0.00    +0.156 HD
ATOM     19  H   UNL     1      38.563 -25.159 -15.901  0.00  0.00    +0.174 HD
ENDROOT
BRANCH   9  20
ATOM     20  C   UNL     1      33.850 -21.908 -18.819  0.00  0.00    +0.086 C 
ATOM     21  C   UNL     1      33.020 -21.129 -19.631  0.00  0.00    +0.012 C 
ATOM     22  C   UNL     1      35.211 -22.008 -19.121  0.00  0.00    +0.012 C 
ATOM     23  C   UNL     1      33.546 -20.457 -20.733  0.00  0.00    +0.001 C 
ATOM     24  C   UNL     1      35.738 -21.336 -20.223  0.00  0.00    +0.001 C 
ATOM     25  C   UNL     1      34.905 -20.559 -21.030  0.00  0.00    +0.000 C 
ENDBRANCH   9  20
TORSDOF 1
ENDMDL
MODEL 2
REMARK VINA RESULT:     -12.4      1.403      5.837
REMARK  Name = 6419766
REMARK  1 active torsions:
REMARK  status: ('A' for Active; 'I' for Inactive)
REMARK    1  A    between atoms: C_9  and  C_20
REMARK                            x       y       z     vdW  Elec       q    Type
REMARK                         _______ _______ _______ _____ _____    ______ ____
ROOT
ATOM      1  N   UNL     1      34.045 -22.808 -17.819  0.00  0.00    -0.274 N 
ATOM      2  N   UNL     1      35.403 -23.791 -16.168  0.00  0.00    -0.328 NA
ATOM      3  N   UNL     1      34.444 -24.616 -14.118  0.00  0.00    -0.343 NA
ATOM      4  N   UNL     1      36.537 -20.919 -19.220  0.00  0.00    -0.239 N 
ATOM      5  N   UNL     1      36.121 -21.660 -18.179  0.00  0.00    -0.166 NA
ATOM      6  C   UNL     1      33.025 -23.622 -15.775  0.00  0.00    +0.143 C 
ATOM      7  C   UNL     1      34.165 -23.426 -16.549  0.00  0.00    +0.185 C 
ATOM      8  C   UNL     1      33.221 -24.239 -14.529  0.00  0.00    +0.133 C 
ATOM      9  C   UNL     1      35.469 -24.371 -14.959  0.00  0.00    +0.138 C 
ATOM     10  C   UNL     1      34.920 -22.007 -18.570  0.00  0.00    +0.152 C 
ATOM     11  C   UNL     1      31.741 -23.232 -16.196  0.00  0.00    -0.011 C 
ATOM     12  C   UNL     1      32.103 -24.451 -13.727  0.00  0.00    +0.029 C 
ATOM     13  C   UNL     1      34.525 -21.535 -19.809  0.00  0.00    +0.048 C 
ATOM     14  C   UNL     1      35.618 -20.811 -20.223  0.00  0.00    +0.046 C 
ATOM     15  C   UNL     1      30.643 -23.456 -15.372  0.00  0.00    -0.004 C 
ATOM     16  C   UNL     1      30.823 -24.066 -14.137  0.00  0.00    +0.002 C 
ATOM     17  C   UNL     1      35.882 -20.042 -21.449  0.00  0.00    +0.049 C 
ATOM     18  H   UNL     1      33.181 -22.973 -18.260  0.00  0.00    +0.156 HD
ATOM     19  H   UNL     1      37.423 -20.491 -19.255  0.00  0.00    +0.174 HD
ENDROOT
BRANCH   9  20
ATOM     20  C   UNL     1      36.776 -24.778 -14.511  0.00  0.00    +0.086 C 
ATOM     21  C   UNL     1      37.904 -24.506 -15.290  0.00  0.00    +0.012 C 
ATOM     22  C   UNL     1      36.925 -25.447 -13.293  0.00  0.00    +0.012 C 
ATOM     23  C   UNL     1      39.170 -24.899 -14.856  0.00  0.00    +0.001 C 
ATOM     24  C   UNL     1      38.190 -25.839 -12.857  0.00  0.00    +0.001 C 
ATOM     25  C   UNL     1      39.314 -25.565 -13.639  0.00  0.00    +0.000 C 
ENDBRANCH   9  20
TORSDOF 1
ENDMDL
MODEL 3
REMARK VINA RESULT:     -12.3      1.219      4.924
REMARK  Name = 6419766
REMARK  1 active torsions:
REMARK  status: ('A' for Active; 'I' for Inactive)
REMARK    1  A    between atoms: C_9  and  C_20
REMARK                            x       y       z     vdW  Elec       q    Type
REMARK                         _______ _______ _______ _____ _____    ______ ____
ROOT
ATOM      1  N   UNL     1      35.880 -23.339 -16.300  0.00  0.00    -0.274 N 
ATOM      2  N   UNL     1      33.531 -23.430 -16.386  0.00  0.00    -0.328 NA
ATOM      3  N   UNL     1      32.326 -22.414 -18.208  0.00  0.00    -0.343 NA
ATOM      4  N   UNL     1      36.104 -23.686 -12.899  0.00  0.00    -0.239 N 
ATOM      5  N   UNL     1      35.332 -23.421 -13.966  0.00  0.00    -0.166 NA
ATOM      6  C   UNL     1      34.721 -22.299 -18.159  0.00  0.00    +0.143 C 
ATOM      7  C   UNL     1      34.672 -23.014 -16.966  0.00  0.00    +0.185 C 
ATOM      8  C   UNL     1      33.484 -22.013 -18.761  0.00  0.00    +0.133 C 
ATOM      9  C   UNL     1      32.412 -23.100 -17.050  0.00  0.00    +0.138 C 
ATOM     10  C   UNL     1      36.195 -23.526 -14.945  0.00  0.00    +0.152 C 
ATOM     11  C   UNL     1      35.926 -21.875 -18.746  0.00  0.00    -0.011 C 
ATOM     12  C   UNL     1      33.493 -21.299 -19.956  0.00  0.00    +0.029 C 
ATOM     13  C   UNL     1      37.491 -23.846 -14.579  0.00  0.00    +0.048 C 
ATOM     14  C   UNL     1      37.406 -23.946 -13.211  0.00  0.00    +0.046 C 
ATOM     15  C   UNL     1      35.905 -21.162 -19.940  0.00  0.00    -0.004 C 
ATOM     16  C   UNL     1      34.687 -20.873 -20.546  0.00  0.00    +0.002 C 
ATOM     17  C   UNL     1      38.413 -24.259 -12.184  0.00  0.00    +0.049 C 
ATOM     18  H   UNL     1      36.648 -23.456 -16.906  0.00  0.00    +0.156 HD
ATOM     19  H   UNL     1      35.762 -23.690 -11.976  0.00  0.00    +0.174 HD
ENDROOT
BRANCH   9  20
ATOM     20  C   UNL     1      31.167 -23.526 -16.465  0.00  0.00    +0.086 C 
ATOM     21  C   UNL     1      29.972 -22.890 -16.811  0.00  0.00    +0.012 C 
ATOM     22  C   UNL     1      31.145 -24.581 -15.548  0.00  0.00    +0.012 C 
ATOM     23  C   UNL     1      28.766 -23.303 -16.245  0.00  0.00    +0.001 C 
ATOM     24  C   UNL     1      29.940 -24.995 -14.982  0.00  0.00    +0.001 C 
ATOM     25  C   UNL     1      28.749 -24.357 -15.331  0.00  0.00    +0.000 C 
ENDBRANCH   9  20
TORSDOF 1
ENDMDL
MODEL 4
REMARK VINA RESULT:     -11.7      1.607      5.237
REMARK  Name = 6419766
REMARK  1 active torsions:
REMARK  status: ('A' for Active; 'I' for Inactive)
REMARK    1  A    between atoms: C_9  and  C_20
REMARK                            x       y       z     vdW  Elec       q    Type
REMARK                         _______ _______ _______ _____ _____    ______ ____
ROOT
ATOM      1  N   UNL     1      32.932 -23.981 -16.298  0.00  0.00    -0.274 N 
ATOM      2  N   UNL     1      34.088 -22.649 -17.856  0.00  0.00    -0.328 NA
ATOM      3  N   UNL     1      36.440 -22.205 -17.587  0.00  0.00    -0.343 NA
ATOM      4  N   UNL     1      29.848 -22.624 -16.923  0.00  0.00    -0.239 N 
ATOM      5  N   UNL     1      31.181 -22.526 -17.057  0.00  0.00    -0.166 NA
ATOM      6  C   UNL     1      35.300 -23.568 -15.978  0.00  0.00    +0.143 C 
ATOM      7  C   UNL     1      34.142 -23.379 -16.726  0.00  0.00    +0.185 C 
ATOM      8  C   UNL     1      36.460 -22.942 -16.463  0.00  0.00    +0.133 C 
ATOM      9  C   UNL     1      35.256 -22.097 -18.222  0.00  0.00    +0.138 C 
ATOM     10  C   UNL     1      31.586 -23.608 -16.441  0.00  0.00    +0.152 C 
ATOM     11  C   UNL     1      35.331 -24.337 -14.801  0.00  0.00    -0.011 C 
ATOM     12  C   UNL     1      37.638 -23.108 -15.740  0.00  0.00    +0.029 C 
ATOM     13  C   UNL     1      30.591 -24.410 -15.909  0.00  0.00    +0.048 C 
ATOM     14  C   UNL     1      29.442 -23.734 -16.241  0.00  0.00    +0.046 C 
ATOM     15  C   UNL     1      36.522 -24.486 -14.099  0.00  0.00    -0.004 C 
ATOM     16  C   UNL     1      37.677 -23.871 -14.568  0.00  0.00    +0.002 C 
ATOM     17  C   UNL     1      28.022 -24.024 -15.988  0.00  0.00    +0.049 C 
ATOM     18  H   UNL     1      33.060 -24.824 -15.807  0.00  0.00    +0.156 HD
ATOM     19  H   UNL     1      29.221 -21.955 -17.282  0.00  0.00    +0.174 HD
ENDROOT
BRANCH   9  20
ATOM     20  C   UNL     1      35.244 -21.307 -19.425  0.00  0.00    +0.086 C 
ATOM     21  C   UNL     1      34.033 -20.970 -20.036  0.00  0.00    +0.012 C 
ATOM     22  C   UNL     1      36.446 -20.869 -19.991  0.00  0.00    +0.012 C 
ATOM     23  C   UNL     1      34.022 -20.203 -21.200  0.00  0.00    +0.001 C 
ATOM     24  C   UNL     1      36.436 -20.102 -21.155  0.00  0.00    +0.001 C 
ATOM     25  C   UNL     1      35.223 -19.768 -21.761  0.00  0.00    +0.000 C 
ENDBRANCH   9  20
TORSDOF 1
ENDMDL
MODEL 5
REMARK VINA RESULT:     -11.5      1.820      6.437
REMARK  Name = 6419766
REMARK  1 active torsions:
REMARK  status: ('A' for Active; 'I' for Inactive)
REMARK    1  A    between atoms: C_9  and  C_20
REMARK                            x       y       z     vdW  Elec       q    Type
REMARK                         _______ _______ _______ _____ _____    ______ ____
ROOT
ATOM      1  N   UNL     1      36.676 -22.459 -16.818  0.00  0.00    -0.274 N 
ATOM      2  N   UNL     1      34.739 -23.307 -15.786  0.00  0.00    -0.328 NA
ATOM      3  N   UNL     1      34.899 -24.959 -14.040  0.00  0.00    -0.343 NA
ATOM      4  N   UNL     1      35.134 -21.577 -19.748  0.00  0.00    -0.239 N 
ATOM      5  N   UNL     1      35.078 -22.270 -18.599  0.00  0.00    -0.166 NA
ATOM      6  C   UNL     1      36.897 -24.120 -15.066  0.00  0.00    +0.143 C 
ATOM      7  C   UNL     1      36.083 -23.321 -15.862  0.00  0.00    +0.185 C 
ATOM      8  C   UNL     1      36.239 -24.948 -14.141  0.00  0.00    +0.133 C 
ATOM      9  C   UNL     1      34.221 -24.138 -14.868  0.00  0.00    +0.138 C 
ATOM     10  C   UNL     1      36.235 -21.974 -18.060  0.00  0.00    +0.152 C 
ATOM     11  C   UNL     1      38.300 -24.116 -15.163  0.00  0.00    -0.011 C 
ATOM     12  C   UNL     1      37.022 -25.762 -13.327  0.00  0.00    +0.029 C 
ATOM     13  C   UNL     1      37.046 -21.125 -18.793  0.00  0.00    +0.048 C 
ATOM     14  C   UNL     1      36.292 -20.874 -19.914  0.00  0.00    +0.046 C 
ATOM     15  C   UNL     1      39.056 -24.941 -14.337  0.00  0.00    -0.004 C 
ATOM     16  C   UNL     1      38.417 -25.766 -13.418  0.00  0.00    +0.002 C 
ATOM     17  C   UNL     1      36.547 -20.051 -21.107  0.00  0.00    +0.049 C 
ATOM     18  H   UNL     1      37.570 -22.138 -16.562  0.00  0.00    +0.156 HD
ATOM     19  H   UNL     1      34.406 -21.576 -20.411  0.00  0.00    +0.174 HD
ENDROOT
BRANCH   9  20
ATOM     20  C   UNL     1      32.786 -24.156 -14.753  0.00  0.00    +0.086 C 
ATOM     21  C   UNL     1      32.158 -25.075 -13.908  0.00  0.00    +0.012 C 
ATOM     22  C   UNL     1      32.010 -23.252 -15.485  0.00  0.00    +0.012 C 
ATOM     23  C   UNL     1      30.768 -25.091 -13.795  0.00  0.00    +0.001 C 
ATOM     24  C   UNL     1      30.621 -23.266 -15.372  0.00  0.00    +0.001 C 
ATOM     25  C   UNL     1      29.998 -24.186 -14.527  0.00  0.00    +0.000 C 
ENDBRANCH   9  20
TORSDOF 1
ENDMDL
MODEL 6
REMARK VINA RESULT:     -10.8      1.594      6.574
REMARK  Name = 6419766
REMARK  1 active torsions:
REMARK  status: ('A' for Active; 'I' for Inactive)
REMARK    1  A    between atoms: C_9  and  C_20
REMARK                            x       y       z     vdW  Elec       q    Type
REMARK                         _______ _______ _______ _____ _____    ______ ____
ROOT
ATOM      1  N   UNL     1      32.776 -23.086 -16.432  0.00  0.00    -0.274 N 
ATOM      2  N   UNL     1      34.876 -23.348 -15.405  0.00  0.00    -0.328 NA
ATOM      3  N   UNL     1      36.897 -22.735 -16.565  0.00  0.00    -0.343 NA
ATOM      4  N   UNL     1      31.196 -25.496 -14.578  0.00  0.00    -0.239 N 
ATOM      5  N   UNL     1      32.355 -24.949 -14.979  0.00  0.00    -0.166 NA
ATOM      6  C   UNL     1      34.776 -22.451 -17.647  0.00  0.00    +0.143 C 
ATOM      7  C   UNL     1      34.186 -22.959 -16.493  0.00  0.00    +0.185 C 
ATOM      8  C   UNL     1      36.177 -22.355 -17.635  0.00  0.00    +0.133 C 
ATOM      9  C   UNL     1      36.208 -23.211 -15.508  0.00  0.00    +0.138 C 
ATOM     10  C   UNL     1      31.933 -23.980 -15.751  0.00  0.00    +0.152 C 
ATOM     11  C   UNL     1      34.032 -22.051 -18.771  0.00  0.00    -0.011 C 
ATOM     12  C   UNL     1      36.803 -21.851 -18.772  0.00  0.00    +0.029 C 
ATOM     13  C   UNL     1      30.560 -23.861 -15.880  0.00  0.00    +0.048 C 
ATOM     14  C   UNL     1      30.090 -24.882 -15.090  0.00  0.00    +0.046 C 
ATOM     15  C   UNL     1      34.685 -21.552 -19.894  0.00  0.00    -0.004 C 
ATOM     16  C   UNL     1      36.071 -21.452 -19.895  0.00  0.00    +0.002 C 
ATOM     17  C   UNL     1      28.725 -25.331 -14.771  0.00  0.00    +0.049 C 
ATOM     18  H   UNL     1      32.293 -22.417 -16.969  0.00  0.00    +0.156 HD
ATOM     19  H   UNL     1      31.148 -26.270 -13.972  0.00  0.00    +0.174 HD
ENDROOT
BRANCH   9  20
ATOM     20  C   UNL     1      36.986 -23.614 -14.367  0.00  0.00    +0.086 C 
ATOM     21  C   UNL     1      36.678 -23.125 -13.094  0.00  0.00    +0.012 C 
ATOM     22  C   UNL     1      38.057 -24.501 -14.522  0.00  0.00    +0.012 C 
ATOM     23  C   UNL     1      37.431 -23.517 -11.988  0.00  0.00    +0.001 C 
ATOM     24  C   UNL     1      38.810 -24.894 -13.417  0.00  0.00    +0.001 C 
ATOM     25  C   UNL     1      38.497 -24.402 -12.148  0.00  0.00    +0.000 C 
ENDBRANCH   9  20
TORSDOF 1
ENDMDL
MODEL 7
REMARK VINA RESULT:     -10.6      1.701      5.225
REMARK  Name = 6419766
REMARK  1 active torsions:
REMARK  status: ('A' for Active; 'I' for Inactive)
REMARK    1  A    between atoms: C_9  and  C_20
REMARK                            x       y       z     vdW  Elec       q    Type
REMARK                         _______ _______ _______ _____ _____    ______ ____
ROOT
ATOM      1  N   UNL     1      33.373 -24.776 -14.305  0.00  0.00    -0.274 N 
ATOM      2  N   UNL     1      34.574 -23.550 -15.915  0.00  0.00    -0.328 NA
ATOM      3  N   UNL     1      36.760 -22.671 -15.412  0.00  0.00    -0.343 NA
ATOM      4  N   UNL     1      30.278 -24.092 -15.606  0.00  0.00    -0.239 N 
ATOM      5  N   UNL     1      31.587 -23.792 -15.570  0.00  0.00    -0.166 NA
ATOM      6  C   UNL     1      35.570 -23.915 -13.744  0.00  0.00    +0.143 C 
ATOM      7  C   UNL     1      34.540 -24.058 -14.669  0.00  0.00    +0.185 C 
ATOM      8  C   UNL     1      36.694 -23.191 -14.174  0.00  0.00    +0.133 C 
ATOM      9  C   UNL     1      35.697 -22.878 -16.215  0.00  0.00    +0.138 C 
ATOM     10  C   UNL     1      32.031 -24.668 -14.704  0.00  0.00    +0.152 C 
ATOM     11  C   UNL     1      35.511 -24.456 -12.447  0.00  0.00    -0.011 C 
ATOM     12  C   UNL     1      37.744 -23.028 -13.276  0.00  0.00    +0.029 C 
ATOM     13  C   UNL     1      31.086 -25.527 -14.169  0.00  0.00    +0.048 C 
ATOM     14  C   UNL     1      29.925 -25.123 -14.785  0.00  0.00    +0.046 C 
ATOM     15  C   UNL     1      36.576 -24.277 -11.570  0.00  0.00    -0.004 C 
ATOM     16  C   UNL     1      37.694 -23.562 -11.984  0.00  0.00    +0.002 C 
ATOM     17  C   UNL     1      28.538 -25.605 -14.681  0.00  0.00    +0.049 C 
ATOM     18  H   UNL     1      33.535 -25.488 -13.646  0.00  0.00    +0.156 HD
ATOM     19  H   UNL     1      29.632 -23.612 -16.172  0.00  0.00    +0.174 HD
ENDROOT
BRANCH   9  20
ATOM     20  C   UNL     1      35.776 -22.317 -17.539  0.00  0.00    +0.086 C 
ATOM     21  C   UNL     1      34.691 -22.419 -18.413  0.00  0.00    +0.012 C 
ATOM     22  C   UNL     1      36.940 -21.666 -17.959  0.00  0.00    +0.012 C 
ATOM     23  C   UNL     1      34.767 -21.874 -19.695  0.00  0.00    +0.001 C 
ATOM     24  C   UNL     1      37.017 -21.121 -19.240  0.00  0.00    +0.001 C 
ATOM     25  C   UNL     1      35.930 -21.225 -20.109  0.00  0.00    +0.000 C 
ENDBRANCH   9  20
TORSDOF 1
ENDMDL
