MODEL 1
REMARK VINA RESULT:     -14.3      0.000      0.000
REMARK  Name = 24941249
REMARK  6 active torsions:
REMARK  status: ('A' for Active; 'I' for Inactive)
REMARK    1  A    between atoms: N_1  and  C_13
REMARK    2  A    between atoms: N_2  and  C_26
REMARK    3  A    between atoms: C_14  and  C_19
REMARK    4  A    between atoms: C_19  and  C_20
REMARK    5  A    between atoms: C_20  and  C_23
REMARK    6  A    between atoms: C_26  and  C_28
REMARK                            x       y       z     vdW  Elec       q    Type
REMARK                         _______ _______ _______ _____ _____    ______ ____
ROOT
ATOM      1  N   UNL     1      33.230 -13.797 -23.672  0.00  0.00    -0.230 N 
ATOM      2  N   UNL     1      35.316 -17.696 -21.592  0.00  0.00    -0.316 N 
ATOM      3  N   UNL     1      33.036 -13.420 -24.947  0.00  0.00    -0.169 NA
ATOM      4  N   UNL     1      35.165 -17.382 -23.946  0.00  0.00    -0.229 NA
ATOM      5  C   UNL     1      33.875 -14.996 -23.534  0.00  0.00    +0.088 A 
ATOM      6  C   UNL     1      34.119 -15.432 -24.830  0.00  0.00    +0.052 A 
ATOM      7  C   UNL     1      33.579 -14.418 -25.649  0.00  0.00    +0.082 A 
ATOM      8  C   UNL     1      34.257 -15.720 -22.410  0.00  0.00    +0.053 C 
ATOM      9  C   UNL     1      34.902 -16.913 -22.702  0.00  0.00    +0.130 C 
ATOM     10  C   UNL     1      34.776 -16.648 -25.018  0.00  0.00    +0.103 C 
ATOM     11  C   UNL     1      33.560 -14.365 -27.121  0.00  0.00    +0.054 C 
ATOM     12  H   UNL     1      35.132 -17.364 -20.684  0.00  0.00    +0.148 HD
ENDROOT
BRANCH   1  13
ATOM     13  C   UNL     1      32.779 -12.978 -22.636  0.00  0.00    +0.082 C 
ATOM     14  C   UNL     1      32.001 -10.827 -21.857  0.00  0.00    -0.020 C 
ATOM     15  C   UNL     1      32.451 -11.647 -22.892  0.00  0.00    +0.015 C 
ATOM     16  C   UNL     1      32.656 -13.490 -21.345  0.00  0.00    +0.019 C 
ATOM     17  C   UNL     1      31.878 -11.340 -20.565  0.00  0.00    -0.004 C 
ATOM     18  C   UNL     1      32.205 -12.672 -20.309  0.00  0.00    +0.001 C 
BRANCH  14  19
ATOM     19  C   UNL     1      31.652  -9.404 -22.130  0.00  0.00    +0.036 C 
BRANCH  19  20
ATOM     20  C   UNL     1      32.895  -8.515 -22.255  0.00  0.00    +0.089 C 
BRANCH  20  23
ATOM     21  O   UNL     1      32.742  -6.224 -21.469  0.00  0.00    -0.275 OA
ATOM     22  N   UNL     1      33.214  -7.889 -19.954  0.00  0.00    -0.329 N 
ATOM     23  C   UNL     1      32.935  -7.410 -21.216  0.00  0.00    +0.220 C 
ATOM     24  H   UNL     1      33.268  -7.267 -19.193  0.00  0.00    +0.145 HD
ATOM     25  H   UNL     1      33.361  -8.852 -19.815  0.00  0.00    +0.145 HD
ENDBRANCH  20  23
ENDBRANCH  19  20
ENDBRANCH  14  19
ENDBRANCH   1  13
BRANCH   2  26
ATOM     26  C   UNL     1      35.988 -18.944 -21.742  0.00  0.00    +0.093 C 
ATOM     27  C   UNL     1      37.466 -18.770 -21.395  0.00  0.00    +0.026 C 
BRANCH  26  28
ATOM     28  C   UNL     1      35.307 -20.008 -20.909  0.00  0.00    -0.005 C 
ATOM     29  C   UNL     1      33.914 -20.065 -20.852  0.00  0.00    -0.003 C 
ATOM     30  C   UNL     1      36.071 -20.932 -20.197  0.00  0.00    -0.003 C 
ATOM     31  C   UNL     1      33.286 -21.045 -20.084  0.00  0.00    -0.000 C 
ATOM     32  C   UNL     1      35.443 -21.913 -19.429  0.00  0.00    -0.000 C 
ATOM     33  C   UNL     1      34.051 -21.969 -19.373  0.00  0.00    -0.000 C 
ENDBRANCH  26  28
ENDBRANCH   2  26
TORSDOF 6
ENDMDL
MODEL 2
REMARK VINA RESULT:     -13.1      7.940     13.372
REMARK  Name = 24941249
REMARK  6 active torsions:
REMARK  status: ('A' for Active; 'I' for Inactive)
REMARK    1  A    between atoms: N_1  and  C_13
REMARK    2  A    between atoms: N_2  and  C_26
REMARK    3  A    between atoms: C_14  and  C_19
REMARK    4  A    between atoms: C_19  and  C_20
REMARK    5  A    between atoms: C_20  and  C_23
REMARK    6  A    between atoms: C_26  and  C_28
REMARK                            x       y       z     vdW  Elec       q    Type
REMARK                         _______ _______ _______ _____ _____    ______ ____
ROOT
ATOM      1  N   UNL     1      34.344 -24.160 -13.822  0.00  0.00    -0.230 N 
ATOM      2  N   UNL     1      34.904 -22.325 -18.316  0.00  0.00    -0.316 N 
ATOM      3  N   UNL     1      33.286 -24.625 -13.136  0.00  0.00    -0.169 NA
ATOM      4  N   UNL     1      32.815 -23.059 -17.444  0.00  0.00    -0.229 NA
ATOM      5  C   UNL     1      34.048 -23.730 -15.086  0.00  0.00    +0.088 A 
ATOM      6  C   UNL     1      32.682 -23.936 -15.232  0.00  0.00    +0.052 A 
ATOM      7  C   UNL     1      32.276 -24.487 -13.999  0.00  0.00    +0.082 A 
ATOM      8  C   UNL     1      34.841 -23.191 -16.093  0.00  0.00    +0.053 C 
ATOM      9  C   UNL     1      34.145 -22.879 -17.251  0.00  0.00    +0.130 C 
ATOM     10  C   UNL     1      32.074 -23.588 -16.438  0.00  0.00    +0.103 C 
ATOM     11  C   UNL     1      30.920 -24.901 -13.600  0.00  0.00    +0.054 C 
ATOM     12  H   UNL     1      35.870 -22.188 -18.186  0.00  0.00    +0.148 HD
ENDROOT
BRANCH   1  13
ATOM     13  C   UNL     1      35.604 -24.151 -13.220  0.00  0.00    +0.082 C 
ATOM     14  C   UNL     1      37.808 -25.107 -12.968  0.00  0.00    -0.020 C 
ATOM     15  C   UNL     1      36.549 -25.115 -13.569  0.00  0.00    +0.015 C 
ATOM     16  C   UNL     1      35.917 -23.177 -12.272  0.00  0.00    +0.019 C 
ATOM     17  C   UNL     1      38.122 -24.133 -12.020  0.00  0.00    -0.004 C 
ATOM     18  C   UNL     1      37.176 -23.168 -11.672  0.00  0.00    +0.001 C 
BRANCH  14  19
ATOM     19  C   UNL     1      38.819 -26.138 -13.339  0.00  0.00    +0.036 C 
BRANCH  19  20
ATOM     20  C   UNL     1      40.114 -25.516 -13.874  0.00  0.00    +0.089 C 
BRANCH  20  23
ATOM     21  O   UNL     1      40.756 -26.198 -16.112  0.00  0.00    -0.275 OA
ATOM     22  N   UNL     1      39.394 -24.362 -15.858  0.00  0.00    -0.329 N 
ATOM     23  C   UNL     1      40.141 -25.422 -15.387  0.00  0.00    +0.220 C 
ATOM     24  H   UNL     1      39.334 -24.196 -16.826  0.00  0.00    +0.145 HD
ATOM     25  H   UNL     1      38.923 -23.773 -15.226  0.00  0.00    +0.145 HD
ENDBRANCH  20  23
ENDBRANCH  19  20
ENDBRANCH  14  19
ENDBRANCH   1  13
BRANCH   2  26
ATOM     26  C   UNL     1      34.322 -21.958 -19.564  0.00  0.00    +0.093 C 
ATOM     27  C   UNL     1      32.858 -21.578 -19.348  0.00  0.00    +0.026 C 
BRANCH  26  28
ATOM     28  C   UNL     1      35.129 -20.856 -20.214  0.00  0.00    -0.005 C 
ATOM     29  C   UNL     1      34.499 -19.921 -21.035  0.00  0.00    -0.003 C 
ATOM     30  C   UNL     1      36.504 -20.773 -19.991  0.00  0.00    -0.003 C 
ATOM     31  C   UNL     1      35.244 -18.905 -21.635  0.00  0.00    -0.000 C 
ATOM     32  C   UNL     1      37.248 -19.758 -20.590  0.00  0.00    -0.000 C 
ATOM     33  C   UNL     1      36.618 -18.823 -21.412  0.00  0.00    -0.000 C 
ENDBRANCH  26  28
ENDBRANCH   2  26
TORSDOF 6
ENDMDL
MODEL 3
REMARK VINA RESULT:     -11.8      9.385     11.955
REMARK  Name = 24941249
REMARK  6 active torsions:
REMARK  status: ('A' for Active; 'I' for Inactive)
REMARK    1  A    between atoms: N_1  and  C_13
REMARK    2  A    between atoms: N_2  and  C_26
REMARK    3  A    between atoms: C_14  and  C_19
REMARK    4  A    between atoms: C_19  and  C_20
REMARK    5  A    between atoms: C_20  and  C_23
REMARK    6  A    between atoms: C_26  and  C_28
REMARK                            x       y       z     vdW  Elec       q    Type
REMARK                         _______ _______ _______ _____ _____    ______ ____
ROOT
ATOM      1  N   UNL     1      32.397 -23.241 -16.887  0.00  0.00    -0.230 N 
ATOM      2  N   UNL     1      35.583 -23.632 -13.202  0.00  0.00    -0.316 N 
ATOM      3  N   UNL     1      32.508 -22.855 -18.170  0.00  0.00    -0.169 NA
ATOM      4  N   UNL     1      36.177 -22.892 -15.384  0.00  0.00    -0.229 NA
ATOM      5  C   UNL     1      33.571 -23.199 -16.187  0.00  0.00    +0.088 A 
ATOM      6  C   UNL     1      34.523 -22.748 -17.093  0.00  0.00    +0.052 A 
ATOM      7  C   UNL     1      33.803 -22.556 -18.291  0.00  0.00    +0.082 A 
ATOM      8  C   UNL     1      33.877 -23.510 -14.866  0.00  0.00    +0.053 C 
ATOM      9  C   UNL     1      35.212 -23.329 -14.539  0.00  0.00    +0.130 C 
ATOM     10  C   UNL     1      35.842 -22.598 -16.665  0.00  0.00    +0.103 C 
ATOM     11  C   UNL     1      34.321 -22.083 -19.586  0.00  0.00    +0.054 C 
ATOM     12  H   UNL     1      34.889 -23.949 -12.580  0.00  0.00    +0.148 HD
ENDROOT
BRANCH   1  13
ATOM     13  C   UNL     1      31.154 -23.637 -16.392  0.00  0.00    +0.082 C 
ATOM     14  C   UNL     1      28.778 -23.265 -16.164  0.00  0.00    -0.020 C 
ATOM     15  C   UNL     1      30.021 -22.869 -16.659  0.00  0.00    +0.015 C 
ATOM     16  C   UNL     1      31.045 -24.802 -15.632  0.00  0.00    +0.019 C 
ATOM     17  C   UNL     1      28.669 -24.430 -15.404  0.00  0.00    -0.004 C 
ATOM     18  C   UNL     1      29.802 -25.198 -15.138  0.00  0.00    +0.001 C 
BRANCH  14  19
ATOM     19  C   UNL     1      27.566 -22.444 -16.447  0.00  0.00    +0.036 C 
BRANCH  19  20
ATOM     20  C   UNL     1      27.066 -22.623 -17.886  0.00  0.00    +0.089 C 
BRANCH  20  23
ATOM     21  O   UNL     1      26.285 -20.326 -17.843  0.00  0.00    -0.275 OA
ATOM     22  N   UNL     1      25.569 -21.712 -19.534  0.00  0.00    -0.329 N 
ATOM     23  C   UNL     1      26.284 -21.425 -18.390  0.00  0.00    +0.220 C 
ATOM     24  H   UNL     1      25.020 -21.014 -19.958  0.00  0.00    +0.145 HD
ATOM     25  H   UNL     1      25.608 -22.614 -19.925  0.00  0.00    +0.145 HD
ENDBRANCH  20  23
ENDBRANCH  19  20
ENDBRANCH  14  19
ENDBRANCH   1  13
BRANCH   2  26
ATOM     26  C   UNL     1      36.919 -23.495 -12.726  0.00  0.00    +0.093 C 
ATOM     27  C   UNL     1      36.921 -23.542 -11.199  0.00  0.00    +0.026 C 
BRANCH  26  28
ATOM     28  C   UNL     1      37.807 -24.548 -13.352  0.00  0.00    -0.005 C 
ATOM     29  C   UNL     1      37.240 -25.675 -13.948  0.00  0.00    -0.003 C 
ATOM     30  C   UNL     1      39.193 -24.393 -13.332  0.00  0.00    -0.003 C 
ATOM     31  C   UNL     1      38.059 -26.646 -14.524  0.00  0.00    -0.000 C 
ATOM     32  C   UNL     1      40.012 -25.365 -13.907  0.00  0.00    -0.000 C 
ATOM     33  C   UNL     1      39.445 -26.491 -14.504  0.00  0.00    -0.000 C 
ENDBRANCH  26  28
ENDBRANCH   2  26
TORSDOF 6
ENDMDL
MODEL 4
REMARK VINA RESULT:     -11.6      2.888      5.810
REMARK  Name = 24941249
REMARK  6 active torsions:
REMARK  status: ('A' for Active; 'I' for Inactive)
REMARK    1  A    between atoms: N_1  and  C_13
REMARK    2  A    between atoms: N_2  and  C_26
REMARK    3  A    between atoms: C_14  and  C_19
REMARK    4  A    between atoms: C_19  and  C_20
REMARK    5  A    between atoms: C_20  and  C_23
REMARK    6  A    between atoms: C_26  and  C_28
REMARK                            x       y       z     vdW  Elec       q    Type
REMARK                         _______ _______ _______ _____ _____    ______ ____
ROOT
ATOM      1  N   UNL     1      32.850  -9.142 -22.398  0.00  0.00    -0.230 N 
ATOM      2  N   UNL     1      33.376 -13.377 -24.779  0.00  0.00    -0.316 N 
ATOM      3  N   UNL     1      32.258  -8.796 -21.242  0.00  0.00    -0.169 NA
ATOM      4  N   UNL     1      32.232 -13.166 -22.703  0.00  0.00    -0.229 NA
ATOM      5  C   UNL     1      32.760 -10.473 -22.698  0.00  0.00    +0.088 A 
ATOM      6  C   UNL     1      32.048 -11.038 -21.647  0.00  0.00    +0.052 A 
ATOM      7  C   UNL     1      31.771  -9.954 -20.788  0.00  0.00    +0.082 A 
ATOM      8  C   UNL     1      33.228 -11.216 -23.775  0.00  0.00    +0.053 C 
ATOM      9  C   UNL     1      32.922 -12.567 -23.704  0.00  0.00    +0.130 C 
ATOM     10  C   UNL     1      31.791 -12.409 -21.668  0.00  0.00    +0.103 C 
ATOM     11  C   UNL     1      31.037  -9.981 -19.511  0.00  0.00    +0.054 C 
ATOM     12  H   UNL     1      33.877 -12.952 -25.512  0.00  0.00    +0.148 HD
ENDROOT
BRANCH   1  13
ATOM     13  C   UNL     1      33.483  -8.164 -23.167  0.00  0.00    +0.082 C 
ATOM     14  C   UNL     1      33.362  -6.180 -24.541  0.00  0.00    -0.020 C 
ATOM     15  C   UNL     1      32.730  -7.158 -23.773  0.00  0.00    +0.015 C 
ATOM     16  C   UNL     1      34.868  -8.191 -23.327  0.00  0.00    +0.019 C 
ATOM     17  C   UNL     1      34.747  -6.207 -24.702  0.00  0.00    -0.004 C 
ATOM     18  C   UNL     1      35.501  -7.212 -24.094  0.00  0.00    +0.001 C 
BRANCH  14  19
ATOM     19  C   UNL     1      32.557  -5.106 -25.191  0.00  0.00    +0.036 C 
BRANCH  19  20
ATOM     20  C   UNL     1      31.244  -4.834 -24.448  0.00  0.00    +0.089 C 
BRANCH  20  23
ATOM     21  O   UNL     1      31.970  -2.707 -23.535  0.00  0.00    -0.275 OA
ATOM     22  N   UNL     1      30.783  -4.146 -22.189  0.00  0.00    -0.329 N 
ATOM     23  C   UNL     1      31.385  -3.774 -23.373  0.00  0.00    +0.220 C 
ATOM     24  H   UNL     1      30.807  -3.539 -21.415  0.00  0.00    +0.145 HD
ATOM     25  H   UNL     1      30.330  -5.016 -22.121  0.00  0.00    +0.145 HD
ENDBRANCH  20  23
ENDBRANCH  19  20
ENDBRANCH  14  19
ENDBRANCH   1  13
BRANCH   2  26
ATOM     26  C   UNL     1      33.136 -14.780 -24.837  0.00  0.00    +0.093 C 
ATOM     27  C   UNL     1      33.311 -15.266 -26.275  0.00  0.00    +0.026 C 
BRANCH  26  28
ATOM     28  C   UNL     1      34.030 -15.505 -23.854  0.00  0.00    -0.005 C 
ATOM     29  C   UNL     1      34.113 -15.068 -22.532  0.00  0.00    -0.003 C 
ATOM     30  C   UNL     1      34.770 -16.612 -24.270  0.00  0.00    -0.003 C 
ATOM     31  C   UNL     1      34.937 -15.736 -21.627  0.00  0.00    -0.000 C 
ATOM     32  C   UNL     1      35.594 -17.280 -23.365  0.00  0.00    -0.000 C 
ATOM     33  C   UNL     1      35.677 -16.842 -22.043  0.00  0.00    -0.000 C 
ENDBRANCH  26  28
ENDBRANCH   2  26
TORSDOF 6
ENDMDL
MODEL 5
REMARK VINA RESULT:     -11.4      7.134     11.852
REMARK  Name = 24941249
REMARK  6 active torsions:
REMARK  status: ('A' for Active; 'I' for Inactive)
REMARK    1  A    between atoms: N_1  and  C_13
REMARK    2  A    between atoms: N_2  and  C_26
REMARK    3  A    between atoms: C_14  and  C_19
REMARK    4  A    between atoms: C_19  and  C_20
REMARK    5  A    between atoms: C_20  and  C_23
REMARK    6  A    between atoms: C_26  and  C_28
REMARK                            x       y       z     vdW  Elec       q    Type
REMARK                         _______ _______ _______ _____ _____    ______ ____
ROOT
ATOM      1  N   UNL     1      33.029 -23.979 -14.815  0.00  0.00    -0.230 N 
ATOM      2  N   UNL     1      34.881 -22.130 -18.943  0.00  0.00    -0.316 N 
ATOM      3  N   UNL     1      33.564 -24.312 -13.628  0.00  0.00    -0.169 NA
ATOM      4  N   UNL     1      36.184 -22.594 -17.006  0.00  0.00    -0.229 NA
ATOM      5  C   UNL     1      33.931 -23.482 -15.716  0.00  0.00    +0.088 A 
ATOM      6  C   UNL     1      35.153 -23.495 -15.056  0.00  0.00    +0.052 A 
ATOM      7  C   UNL     1      34.857 -24.016 -13.779  0.00  0.00    +0.082 A 
ATOM      8  C   UNL     1      33.786 -23.033 -17.024  0.00  0.00    +0.053 C 
ATOM      9  C   UNL     1      34.968 -22.601 -17.605  0.00  0.00    +0.130 C 
ATOM     10  C   UNL     1      36.286 -23.039 -15.729  0.00  0.00    +0.103 C 
ATOM     11  C   UNL     1      35.790 -24.248 -12.663  0.00  0.00    +0.054 C 
ATOM     12  H   UNL     1      34.003 -22.133 -19.388  0.00  0.00    +0.148 HD
ENDROOT
BRANCH   1  13
ATOM     13  C   UNL     1      31.661 -24.155 -15.028  0.00  0.00    +0.082 C 
ATOM     14  C   UNL     1      29.543 -23.313 -15.829  0.00  0.00    -0.020 C 
ATOM     15  C   UNL     1      30.910 -23.137 -15.616  0.00  0.00    +0.015 C 
ATOM     16  C   UNL     1      31.045 -25.348 -14.653  0.00  0.00    +0.019 C 
ATOM     17  C   UNL     1      28.927 -24.507 -15.454  0.00  0.00    -0.004 C 
ATOM     18  C   UNL     1      29.678 -25.525 -14.866  0.00  0.00    +0.001 C 
BRANCH  14  19
ATOM     19  C   UNL     1      28.739 -22.225 -16.456  0.00  0.00    +0.036 C 
BRANCH  19  20
ATOM     20  C   UNL     1      27.488 -22.760 -17.163  0.00  0.00    +0.089 C 
BRANCH  20  23
ATOM     21  O   UNL     1      25.571 -22.133 -15.814  0.00  0.00    -0.275 OA
ATOM     22  N   UNL     1      25.938 -21.035 -17.801  0.00  0.00    -0.329 N 
ATOM     23  C   UNL     1      26.239 -21.966 -16.830  0.00  0.00    +0.220 C 
ATOM     24  H   UNL     1      25.148 -20.457 -17.699  0.00  0.00    +0.145 HD
ATOM     25  H   UNL     1      26.512 -20.949 -18.596  0.00  0.00    +0.145 HD
ENDBRANCH  20  23
ENDBRANCH  19  20
ENDBRANCH  14  19
ENDBRANCH   1  13
BRANCH   2  26
ATOM     26  C   UNL     1      36.014 -21.655 -19.664  0.00  0.00    +0.093 C 
ATOM     27  C   UNL     1      36.536 -22.763 -20.577  0.00  0.00    +0.026 C 
BRANCH  26  28
ATOM     28  C   UNL     1      35.662 -20.388 -20.414  0.00  0.00    -0.005 C 
ATOM     29  C   UNL     1      36.665 -19.483 -20.764  0.00  0.00    -0.003 C 
ATOM     30  C   UNL     1      34.336 -20.126 -20.757  0.00  0.00    -0.003 C 
ATOM     31  C   UNL     1      36.340 -18.316 -21.455  0.00  0.00    -0.000 C 
ATOM     32  C   UNL     1      34.012 -18.959 -21.448  0.00  0.00    -0.000 C 
ATOM     33  C   UNL     1      35.014 -18.054 -21.797  0.00  0.00    -0.000 C 
ENDBRANCH  26  28
ENDBRANCH   2  26
TORSDOF 6
ENDMDL
