MODEL 1
REMARK VINA RESULT:     -13.9      0.000      0.000
REMARK  Name = 32778
REMARK  7 active torsions:
REMARK  status: ('A' for Active; 'I' for Inactive)
REMARK    1  A    between atoms: C_1  and  S_7
REMARK    2  A    between atoms: C_2  and  C_23
REMARK    3  A    between atoms: S_7  and  N_12
REMARK    4  A    between atoms: N_11  and  N_16
REMARK    5  A    between atoms: C_23  and  C_24
REMARK    6  A    between atoms: C_24  and  N_26
REMARK    7  A    between atoms: C_27  and  C_31
REMARK                            x       y       z     vdW  Elec       q    Type
REMARK                         _______ _______ _______ _____ _____    ______ ____
ROOT
ATOM      1  C   UNL     1      34.260 -21.649 -19.523  0.00  0.00    +0.125 C 
ATOM      2  C   UNL     1      35.436 -19.794 -21.243  0.00  0.00    -0.020 C 
ATOM      3  C   UNL     1      35.649 -21.559 -19.607  0.00  0.00    +0.020 C 
ATOM      4  C   UNL     1      33.458 -20.812 -20.300  0.00  0.00    +0.020 C 
ATOM      5  C   UNL     1      36.237 -20.631 -20.466  0.00  0.00    -0.003 C 
ATOM      6  C   UNL     1      34.047 -19.884 -21.159  0.00  0.00    -0.003 C 
ENDROOT
BRANCH   1   7
ATOM      7  S   UNL     1      33.515 -22.826 -18.435  0.00  0.00    +0.077 S 
ATOM      8  O   UNL     1      33.791 -24.154 -18.948  0.00  0.00    -0.150 OA
ATOM      9  O   UNL     1      32.147 -22.391 -18.220  0.00  0.00    -0.150 OA
BRANCH   7  12
ATOM     10  O   UNL     1      34.820 -24.792 -16.418  0.00  0.00    -0.250 OA
ATOM     11  N   UNL     1      35.642 -23.082 -15.093  0.00  0.00    -0.230 N 
ATOM     12  N   UNL     1      34.419 -22.569 -17.008  0.00  0.00    -0.168 N 
ATOM     13  C   UNL     1      34.961 -23.597 -16.173  0.00  0.00    +0.333 C 
ATOM     14  H   UNL     1      35.711 -22.108 -14.965  0.00  0.00    +0.171 HD
ATOM     15  H   UNL     1      34.581 -21.636 -16.738  0.00  0.00    +0.178 HD
BRANCH  11  16
ATOM     16  N   UNL     1      36.229 -23.952 -14.187  0.00  0.00    -0.205 NA
ATOM     17  C   UNL     1      38.510 -24.497 -12.011  0.00  0.00    +0.002 C 
ATOM     18  C   UNL     1      38.711 -25.726 -12.888  0.00  0.00    +0.002 C 
ATOM     19  C   UNL     1      37.056 -24.093 -11.800  0.00  0.00    +0.019 C 
ATOM     20  C   UNL     1      37.787 -25.880 -14.091  0.00  0.00    +0.019 C 
ATOM     21  C   UNL     1      36.499 -23.235 -12.940  0.00  0.00    +0.092 C 
ATOM     22  C   UNL     1      37.404 -24.581 -14.799  0.00  0.00    +0.092 C 
ENDBRANCH  11  16
ENDBRANCH   7  12
ENDBRANCH   1   7
BRANCH   2  23
ATOM     23  C   UNL     1      36.066 -18.801 -22.161  0.00  0.00    +0.048 C 
BRANCH  23  24
ATOM     24  C   UNL     1      35.295 -18.604 -23.472  0.00  0.00    +0.094 C 
BRANCH  24  26
ATOM     25  O   UNL     1      34.898 -17.260 -25.940  0.00  0.00    -0.268 OA
ATOM     26  N   UNL     1      34.829 -17.253 -23.635  0.00  0.00    -0.299 N 
ATOM     27  C   UNL     1      34.661 -16.667 -24.888  0.00  0.00    +0.267 C 
ATOM     28  H   UNL     1      34.620 -16.723 -22.832  0.00  0.00    +0.150 HD
BRANCH  27  31
ATOM     29  O   UNL     1      33.229 -13.471 -25.582  0.00  0.00    -0.358 OA
ATOM     30  N   UNL     1      33.481 -14.801 -25.902  0.00  0.00    -0.073 NA
ATOM     31  C   UNL     1      34.209 -15.268 -24.884  0.00  0.00    +0.176 C 
ATOM     32  C   UNL     1      34.444 -14.291 -23.901  0.00  0.00    +0.063 C 
ATOM     33  C   UNL     1      33.807 -13.181 -24.388  0.00  0.00    +0.155 C 
ATOM     34  C   UNL     1      33.638 -11.808 -23.895  0.00  0.00    +0.075 C 
ENDBRANCH  27  31
ENDBRANCH  24  26
ENDBRANCH  23  24
ENDBRANCH   2  23
TORSDOF 7
ENDMDL
MODEL 2
REMARK VINA RESULT:     -13.9      1.181      1.363
REMARK  Name = 32778
REMARK  7 active torsions:
REMARK  status: ('A' for Active; 'I' for Inactive)
REMARK    1  A    between atoms: C_1  and  S_7
REMARK    2  A    between atoms: C_2  and  C_23
REMARK    3  A    between atoms: S_7  and  N_12
REMARK    4  A    between atoms: N_11  and  N_16
REMARK    5  A    between atoms: C_23  and  C_24
REMARK    6  A    between atoms: C_24  and  N_26
REMARK    7  A    between atoms: C_27  and  C_31
REMARK                            x       y       z     vdW  Elec       q    Type
REMARK                         _______ _______ _______ _____ _____    ______ ____
ROOT
ATOM      1  C   UNL     1      34.358 -21.631 -19.603  0.00  0.00    +0.125 C 
ATOM      2  C   UNL     1      35.583 -19.797 -21.310  0.00  0.00    -0.020 C 
ATOM      3  C   UNL     1      35.749 -21.588 -19.698  0.00  0.00    +0.020 C 
ATOM      4  C   UNL     1      33.580 -20.758 -20.363  0.00  0.00    +0.020 C 
ATOM      5  C   UNL     1      36.362 -20.670 -20.551  0.00  0.00    -0.003 C 
ATOM      6  C   UNL     1      34.192 -19.840 -21.216  0.00  0.00    -0.003 C 
ENDROOT
BRANCH   1   7
ATOM      7  S   UNL     1      33.583 -22.796 -18.523  0.00  0.00    +0.077 S 
ATOM      8  O   UNL     1      33.826 -24.127 -19.044  0.00  0.00    -0.150 OA
ATOM      9  O   UNL     1      32.227 -22.328 -18.306  0.00  0.00    -0.150 OA
BRANCH   7  12
ATOM     10  O   UNL     1      34.613 -24.789 -16.377  0.00  0.00    -0.250 OA
ATOM     11  N   UNL     1      35.618 -23.120 -15.130  0.00  0.00    -0.230 N 
ATOM     12  N   UNL     1      34.493 -22.571 -17.094  0.00  0.00    -0.168 N 
ATOM     13  C   UNL     1      34.895 -23.608 -16.194  0.00  0.00    +0.333 C 
ATOM     14  H   UNL     1      35.803 -22.156 -15.053  0.00  0.00    +0.171 HD
ATOM     15  H   UNL     1      34.763 -21.650 -16.870  0.00  0.00    +0.178 HD
BRANCH  11  16
ATOM     16  N   UNL     1      36.083 -24.003 -14.167  0.00  0.00    -0.205 NA
ATOM     17  C   UNL     1      38.263 -24.705 -11.933  0.00  0.00    +0.002 C 
ATOM     18  C   UNL     1      38.310 -25.999 -12.734  0.00  0.00    +0.002 C 
ATOM     19  C   UNL     1      36.872 -24.106 -11.764  0.00  0.00    +0.019 C 
ATOM     20  C   UNL     1      37.381 -26.105 -13.938  0.00  0.00    +0.019 C 
ATOM     21  C   UNL     1      36.437 -23.253 -12.960  0.00  0.00    +0.092 C 
ATOM     22  C   UNL     1      37.171 -24.812 -14.726  0.00  0.00    +0.092 C 
ENDBRANCH  11  16
ENDBRANCH   7  12
ENDBRANCH   1   7
BRANCH   2  23
ATOM     23  C   UNL     1      36.238 -18.815 -22.222  0.00  0.00    +0.048 C 
BRANCH  23  24
ATOM     24  C   UNL     1      35.722 -17.380 -22.050  0.00  0.00    +0.094 C 
BRANCH  24  26
ATOM     25  O   UNL     1      34.189 -15.011 -22.345  0.00  0.00    -0.268 OA
ATOM     26  N   UNL     1      35.288 -16.802 -23.293  0.00  0.00    -0.299 N 
ATOM     27  C   UNL     1      34.534 -15.632 -23.350  0.00  0.00    +0.267 C 
ATOM     28  H   UNL     1      35.532 -17.250 -24.135  0.00  0.00    +0.150 HD
BRANCH  27  31
ATOM     29  O   UNL     1      33.928 -15.242 -26.846  0.00  0.00    -0.358 OA
ATOM     30  N   UNL     1      34.433 -15.944 -25.757  0.00  0.00    -0.073 NA
ATOM     31  C   UNL     1      34.142 -15.188 -24.695  0.00  0.00    +0.176 C 
ATOM     32  C   UNL     1      33.460 -14.010 -25.047  0.00  0.00    +0.063 C 
ATOM     33  C   UNL     1      33.352 -14.093 -26.410  0.00  0.00    +0.155 C 
ATOM     34  C   UNL     1      32.762 -13.224 -27.437  0.00  0.00    +0.075 C 
ENDBRANCH  27  31
ENDBRANCH  24  26
ENDBRANCH  23  24
ENDBRANCH   2  23
TORSDOF 7
ENDMDL
MODEL 3
REMARK VINA RESULT:     -13.6      1.270      1.334
REMARK  Name = 32778
REMARK  7 active torsions:
REMARK  status: ('A' for Active; 'I' for Inactive)
REMARK    1  A    between atoms: C_1  and  S_7
REMARK    2  A    between atoms: C_2  and  C_23
REMARK    3  A    between atoms: S_7  and  N_12
REMARK    4  A    between atoms: N_11  and  N_16
REMARK    5  A    between atoms: C_23  and  C_24
REMARK    6  A    between atoms: C_24  and  N_26
REMARK    7  A    between atoms: C_27  and  C_31
REMARK                            x       y       z     vdW  Elec       q    Type
REMARK                         _______ _______ _______ _____ _____    ______ ____
ROOT
ATOM      1  C   UNL     1      34.581 -21.284 -19.927  0.00  0.00    +0.125 C 
ATOM      2  C   UNL     1      35.650 -19.312 -21.585  0.00  0.00    -0.020 C 
ATOM      3  C   UNL     1      35.960 -21.078 -19.966  0.00  0.00    +0.020 C 
ATOM      4  C   UNL     1      33.737 -20.505 -20.718  0.00  0.00    +0.020 C 
ATOM      5  C   UNL     1      36.495 -20.091 -20.794  0.00  0.00    -0.003 C 
ATOM      6  C   UNL     1      34.271 -19.518 -21.546  0.00  0.00    -0.003 C 
ENDROOT
BRANCH   1   7
ATOM      7  S   UNL     1      33.905 -22.536 -18.878  0.00  0.00    +0.077 S 
ATOM      8  O   UNL     1      33.997 -23.806 -19.572  0.00  0.00    -0.150 OA
ATOM      9  O   UNL     1      32.622 -22.044 -18.411  0.00  0.00    -0.150 OA
BRANCH   7  12
ATOM     10  O   UNL     1      34.279 -24.399 -16.423  0.00  0.00    -0.250 OA
ATOM     11  N   UNL     1      36.075 -23.182 -15.617  0.00  0.00    -0.230 N 
ATOM     12  N   UNL     1      35.021 -22.515 -17.584  0.00  0.00    -0.168 N 
ATOM     13  C   UNL     1      35.065 -23.459 -16.509  0.00  0.00    +0.333 C 
ATOM     14  H   UNL     1      36.665 -22.407 -15.756  0.00  0.00    +0.171 HD
ATOM     15  H   UNL     1      35.690 -21.792 -17.576  0.00  0.00    +0.178 HD
BRANCH  11  16
ATOM     16  N   UNL     1      36.251 -24.009 -14.518  0.00  0.00    -0.205 NA
ATOM     17  C   UNL     1      37.895 -24.712 -11.865  0.00  0.00    +0.002 C 
ATOM     18  C   UNL     1      37.927 -26.077 -12.539  0.00  0.00    +0.002 C 
ATOM     19  C   UNL     1      36.579 -23.957 -12.009  0.00  0.00    +0.019 C 
ATOM     20  C   UNL     1      37.222 -26.203 -13.886  0.00  0.00    +0.019 C 
ATOM     21  C   UNL     1      36.471 -23.186 -13.328  0.00  0.00    +0.092 C 
ATOM     22  C   UNL     1      37.314 -24.980 -14.797  0.00  0.00    +0.092 C 
ENDBRANCH  11  16
ENDBRANCH   7  12
ENDBRANCH   1   7
BRANCH   2  23
ATOM     23  C   UNL     1      36.222 -18.257 -22.470  0.00  0.00    +0.048 C 
BRANCH  23  24
ATOM     24  C   UNL     1      35.228 -17.725 -23.511  0.00  0.00    +0.094 C 
BRANCH  24  26
ATOM     25  O   UNL     1      34.299 -15.659 -25.221  0.00  0.00    -0.268 OA
ATOM     26  N   UNL     1      34.602 -16.500 -23.095  0.00  0.00    -0.299 N 
ATOM     27  C   UNL     1      34.173 -15.534 -24.003  0.00  0.00    +0.267 C 
ATOM     28  H   UNL     1      34.470 -16.337 -22.132  0.00  0.00    +0.150 HD
BRANCH  27  31
ATOM     29  O   UNL     1      33.011 -12.244 -23.248  0.00  0.00    -0.358 OA
ATOM     30  N   UNL     1      33.661 -13.160 -24.068  0.00  0.00    -0.073 NA
ATOM     31  C   UNL     1      33.582 -14.323 -23.416  0.00  0.00    +0.176 C 
ATOM     32  C   UNL     1      32.900 -14.204 -22.192  0.00  0.00    +0.063 C 
ATOM     33  C   UNL     1      32.564 -12.878 -22.135  0.00  0.00    +0.155 C 
ATOM     34  C   UNL     1      31.849 -12.053 -21.152  0.00  0.00    +0.075 C 
ENDBRANCH  27  31
ENDBRANCH  24  26
ENDBRANCH  23  24
ENDBRANCH   2  23
TORSDOF 7
ENDMDL
MODEL 4
REMARK VINA RESULT:     -13.2      4.018     11.102
REMARK  Name = 32778
REMARK  7 active torsions:
REMARK  status: ('A' for Active; 'I' for Inactive)
REMARK    1  A    between atoms: C_1  and  S_7
REMARK    2  A    between atoms: C_2  and  C_23
REMARK    3  A    between atoms: S_7  and  N_12
REMARK    4  A    between atoms: N_11  and  N_16
REMARK    5  A    between atoms: C_23  and  C_24
REMARK    6  A    between atoms: C_24  and  N_26
REMARK    7  A    between atoms: C_27  and  C_31
REMARK                            x       y       z     vdW  Elec       q    Type
REMARK                         _______ _______ _______ _____ _____    ______ ____
ROOT
ATOM      1  C   UNL     1      35.662 -20.042 -20.741  0.00  0.00    +0.125 C 
ATOM      2  C   UNL     1      34.295 -22.116 -19.471  0.00  0.00    -0.020 C 
ATOM      3  C   UNL     1      34.279 -20.154 -20.881  0.00  0.00    +0.020 C 
ATOM      4  C   UNL     1      36.362 -20.968 -19.967  0.00  0.00    +0.020 C 
ATOM      5  C   UNL     1      33.595 -21.190 -20.245  0.00  0.00    -0.003 C 
ATOM      6  C   UNL     1      35.678 -22.005 -19.332  0.00  0.00    -0.003 C 
ENDROOT
BRANCH   1   7
ATOM      7  S   UNL     1      36.528 -18.729 -21.548  0.00  0.00    +0.077 S 
ATOM      8  O   UNL     1      36.381 -18.904 -22.980  0.00  0.00    -0.150 OA
ATOM      9  O   UNL     1      37.848 -18.666 -20.947  0.00  0.00    -0.150 OA
BRANCH   7  12
ATOM     10  O   UNL     1      34.885 -16.623 -23.129  0.00  0.00    -0.250 OA
ATOM     11  N   UNL     1      34.259 -15.490 -21.212  0.00  0.00    -0.230 N 
ATOM     12  N   UNL     1      35.614 -17.377 -21.044  0.00  0.00    -0.168 N 
ATOM     13  C   UNL     1      34.902 -16.487 -21.909  0.00  0.00    +0.333 C 
ATOM     14  H   UNL     1      34.321 -15.448 -20.230  0.00  0.00    +0.171 HD
ATOM     15  H   UNL     1      35.573 -17.194 -20.076  0.00  0.00    +0.178 HD
BRANCH  11  16
ATOM     16  N   UNL     1      33.521 -14.545 -21.909  0.00  0.00    -0.205 NA
ATOM     17  C   UNL     1      33.418 -11.708 -23.383  0.00  0.00    +0.002 C 
ATOM     18  C   UNL     1      32.218 -11.545 -22.459  0.00  0.00    +0.002 C 
ATOM     19  C   UNL     1      33.579 -13.098 -23.984  0.00  0.00    +0.019 C 
ATOM     20  C   UNL     1      31.883 -12.718 -21.544  0.00  0.00    +0.019 C 
ATOM     21  C   UNL     1      34.304 -14.075 -23.053  0.00  0.00    +0.092 C 
ATOM     22  C   UNL     1      33.081 -13.489 -20.992  0.00  0.00    +0.092 C 
ENDBRANCH  11  16
ENDBRANCH   7  12
ENDBRANCH   1   7
BRANCH   2  23
ATOM     23  C   UNL     1      33.563 -23.223 -18.791  0.00  0.00    +0.048 C 
BRANCH  23  24
ATOM     24  C   UNL     1      33.037 -22.847 -17.400  0.00  0.00    +0.094 C 
BRANCH  24  26
ATOM     25  O   UNL     1      31.238 -23.973 -15.516  0.00  0.00    -0.268 OA
ATOM     26  N   UNL     1      31.610 -22.671 -17.383  0.00  0.00    -0.299 N 
ATOM     27  C   UNL     1      30.796 -23.262 -16.418  0.00  0.00    +0.267 C 
ATOM     28  H   UNL     1      31.192 -22.113 -18.078  0.00  0.00    +0.150 HD
BRANCH  27  31
ATOM     29  O   UNL     1      27.394 -23.014 -17.469  0.00  0.00    -0.358 OA
ATOM     30  N   UNL     1      28.716 -23.396 -17.666  0.00  0.00    -0.073 NA
ATOM     31  C   UNL     1      29.355 -23.012 -16.558  0.00  0.00    +0.176 C 
ATOM     32  C   UNL     1      28.497 -22.389 -15.634  0.00  0.00    +0.063 C 
ATOM     33  C   UNL     1      27.277 -22.415 -16.256  0.00  0.00    +0.155 C 
ATOM     34  C   UNL     1      25.936 -21.946 -15.882  0.00  0.00    +0.075 C 
ENDBRANCH  27  31
ENDBRANCH  24  26
ENDBRANCH  23  24
ENDBRANCH   2  23
TORSDOF 7
ENDMDL
MODEL 5
REMARK VINA RESULT:     -13.1      2.529     11.774
REMARK  Name = 32778
REMARK  7 active torsions:
REMARK  status: ('A' for Active; 'I' for Inactive)
REMARK    1  A    between atoms: C_1  and  S_7
REMARK    2  A    between atoms: C_2  and  C_23
REMARK    3  A    between atoms: S_7  and  N_12
REMARK    4  A    between atoms: N_11  and  N_16
REMARK    5  A    between atoms: C_23  and  C_24
REMARK    6  A    between atoms: C_24  and  N_26
REMARK    7  A    between atoms: C_27  and  C_31
REMARK                            x       y       z     vdW  Elec       q    Type
REMARK                         _______ _______ _______ _____ _____    ______ ____
ROOT
ATOM      1  C   UNL     1      35.581 -20.129 -20.714  0.00  0.00    +0.125 C 
ATOM      2  C   UNL     1      34.258 -22.046 -19.179  0.00  0.00    -0.020 C 
ATOM      3  C   UNL     1      36.312 -21.020 -19.929  0.00  0.00    +0.020 C 
ATOM      4  C   UNL     1      34.187 -20.196 -20.731  0.00  0.00    +0.020 C 
ATOM      5  C   UNL     1      35.651 -21.979 -19.162  0.00  0.00    -0.003 C 
ATOM      6  C   UNL     1      33.526 -21.155 -19.964  0.00  0.00    -0.003 C 
ENDROOT
BRANCH   1   7
ATOM      7  S   UNL     1      36.420 -18.913 -21.684  0.00  0.00    +0.077 S 
ATOM      8  O   UNL     1      36.107 -19.154 -23.080  0.00  0.00    -0.150 OA
ATOM      9  O   UNL     1      37.799 -18.895 -21.233  0.00  0.00    -0.150 OA
BRANCH   7  12
ATOM     10  O   UNL     1      34.739 -16.793 -23.206  0.00  0.00    -0.250 OA
ATOM     11  N   UNL     1      34.378 -15.531 -21.301  0.00  0.00    -0.230 N 
ATOM     12  N   UNL     1      35.638 -17.485 -21.166  0.00  0.00    -0.168 N 
ATOM     13  C   UNL     1      34.890 -16.598 -22.003  0.00  0.00    +0.333 C 
ATOM     14  H   UNL     1      34.543 -15.445 -20.334  0.00  0.00    +0.171 HD
ATOM     15  H   UNL     1      35.707 -17.253 -20.211  0.00  0.00    +0.178 HD
BRANCH  11  16
ATOM     16  N   UNL     1      33.625 -14.579 -21.971  0.00  0.00    -0.205 NA
ATOM     17  C   UNL     1      33.458 -11.680 -23.313  0.00  0.00    +0.002 C 
ATOM     18  C   UNL     1      32.232 -11.602 -22.413  0.00  0.00    +0.002 C 
ATOM     19  C   UNL     1      33.682 -13.034 -23.975  0.00  0.00    +0.019 C 
ATOM     20  C   UNL     1      31.916 -12.827 -21.563  0.00  0.00    +0.019 C 
ATOM     21  C   UNL     1      34.418 -14.029 -23.072  0.00  0.00    +0.092 C 
ATOM     22  C   UNL     1      33.127 -13.583 -21.017  0.00  0.00    +0.092 C 
ENDBRANCH  11  16
ENDBRANCH   7  12
ENDBRANCH   1   7
BRANCH   2  23
ATOM     23  C   UNL     1      33.551 -23.072 -18.359  0.00  0.00    +0.048 C 
BRANCH  23  24
ATOM     24  C   UNL     1      33.894 -23.007 -16.865  0.00  0.00    +0.094 C 
BRANCH  24  26
ATOM     25  O   UNL     1      34.511 -24.154 -14.344  0.00  0.00    -0.268 OA
ATOM     26  N   UNL     1      35.079 -23.757 -16.543  0.00  0.00    -0.299 N 
ATOM     27  C   UNL     1      35.305 -24.287 -15.275  0.00  0.00    +0.267 C 
ATOM     28  H   UNL     1      35.755 -23.901 -17.245  0.00  0.00    +0.150 HD
BRANCH  27  31
ATOM     29  O   UNL     1      38.012 -26.614 -15.221  0.00  0.00    -0.358 OA
ATOM     30  N   UNL     1      36.709 -26.251 -15.546  0.00  0.00    -0.073 NA
ATOM     31  C   UNL     1      36.578 -25.000 -15.098  0.00  0.00    +0.176 C 
ATOM     32  C   UNL     1      37.752 -24.524 -14.488  0.00  0.00    +0.063 C 
ATOM     33  C   UNL     1      38.622 -25.577 -14.591  0.00  0.00    +0.155 C 
ATOM     34  C   UNL     1      40.014 -25.791 -14.175  0.00  0.00    +0.075 C 
ENDBRANCH  27  31
ENDBRANCH  24  26
ENDBRANCH  23  24
ENDBRANCH   2  23
TORSDOF 7
ENDMDL
MODEL 6
REMARK VINA RESULT:     -12.5      3.125     11.878
REMARK  Name = 32778
REMARK  7 active torsions:
REMARK  status: ('A' for Active; 'I' for Inactive)
REMARK    1  A    between atoms: C_1  and  S_7
REMARK    2  A    between atoms: C_2  and  C_23
REMARK    3  A    between atoms: S_7  and  N_12
REMARK    4  A    between atoms: N_11  and  N_16
REMARK    5  A    between atoms: C_23  and  C_24
REMARK    6  A    between atoms: C_24  and  N_26
REMARK    7  A    between atoms: C_27  and  C_31
REMARK                            x       y       z     vdW  Elec       q    Type
REMARK                         _______ _______ _______ _____ _____    ______ ____
ROOT
ATOM      1  C   UNL     1      34.235 -16.538 -24.631  0.00  0.00    +0.125 C 
ATOM      2  C   UNL     1      35.282 -18.417 -22.856  0.00  0.00    -0.020 C 
ATOM      3  C   UNL     1      34.785 -16.121 -23.418  0.00  0.00    +0.020 C 
ATOM      4  C   UNL     1      34.209 -17.894 -24.956  0.00  0.00    +0.020 C 
ATOM      5  C   UNL     1      35.309 -17.061 -22.531  0.00  0.00    -0.003 C 
ATOM      6  C   UNL     1      34.733 -18.834 -24.068  0.00  0.00    -0.003 C 
ENDROOT
BRANCH   1   7
ATOM      7  S   UNL     1      33.569 -15.346 -25.754  0.00  0.00    +0.077 S 
ATOM      8  O   UNL     1      32.719 -16.042 -26.700  0.00  0.00    -0.150 OA
ATOM      9  O   UNL     1      34.684 -14.542 -26.221  0.00  0.00    -0.150 OA
BRANCH   7  12
ATOM     10  O   UNL     1      34.251 -13.016 -23.820  0.00  0.00    -0.250 OA
ATOM     11  N   UNL     1      32.056 -12.786 -23.124  0.00  0.00    -0.230 N 
ATOM     12  N   UNL     1      32.601 -14.411 -24.702  0.00  0.00    -0.168 N 
ATOM     13  C   UNL     1      33.071 -13.355 -23.859  0.00  0.00    +0.333 C 
ATOM     14  H   UNL     1      31.132 -13.116 -23.212  0.00  0.00    +0.171 HD
ATOM     15  H   UNL     1      31.637 -14.617 -24.672  0.00  0.00    +0.178 HD
BRANCH  11  16
ATOM     16  N   UNL     1      32.350 -11.744 -22.258  0.00  0.00    -0.205 NA
ATOM     17  C   UNL     1      31.367  -9.736 -19.970  0.00  0.00    +0.002 C 
ATOM     18  C   UNL     1      31.972  -8.726 -20.937  0.00  0.00    +0.002 C 
ATOM     19  C   UNL     1      32.145 -11.039 -19.837  0.00  0.00    +0.019 C 
ATOM     20  C   UNL     1      32.591  -9.275 -22.217  0.00  0.00    +0.019 C 
ATOM     21  C   UNL     1      31.809 -12.054 -20.934  0.00  0.00    +0.092 C 
ATOM     22  C   UNL     1      31.879 -10.479 -22.832  0.00  0.00    +0.092 C 
ENDBRANCH  11  16
ENDBRANCH   7  12
ENDBRANCH   1   7
BRANCH   2  23
ATOM     23  C   UNL     1      35.844 -19.422 -21.907  0.00  0.00    +0.048 C 
BRANCH  23  24
ATOM     24  C   UNL     1      34.773 -20.241 -21.176  0.00  0.00    +0.094 C 
BRANCH  24  26
ATOM     25  O   UNL     1      33.489 -22.291 -19.692  0.00  0.00    -0.268 OA
ATOM     26  N   UNL     1      35.281 -20.870 -19.987  0.00  0.00    -0.299 N 
ATOM     27  C   UNL     1      34.584 -21.874 -19.317  0.00  0.00    +0.267 C 
ATOM     28  H   UNL     1      36.154 -20.582 -19.634  0.00  0.00    +0.150 HD
BRANCH  27  31
ATOM     29  O   UNL     1      35.463 -23.564 -16.298  0.00  0.00    -0.358 OA
ATOM     30  N   UNL     1      34.591 -23.297 -17.348  0.00  0.00    -0.073 NA
ATOM     31  C   UNL     1      35.224 -22.392 -18.099  0.00  0.00    +0.176 C 
ATOM     32  C   UNL     1      36.486 -22.054 -17.580  0.00  0.00    +0.063 C 
ATOM     33  C   UNL     1      36.587 -22.817 -16.448  0.00  0.00    +0.155 C 
ATOM     34  C   UNL     1      37.622 -22.977 -15.418  0.00  0.00    +0.075 C 
ENDBRANCH  27  31
ENDBRANCH  24  26
ENDBRANCH  23  24
ENDBRANCH   2  23
TORSDOF 7
ENDMDL
MODEL 7
REMARK VINA RESULT:     -12.4      3.344     12.035
REMARK  Name = 32778
REMARK  7 active torsions:
REMARK  status: ('A' for Active; 'I' for Inactive)
REMARK    1  A    between atoms: C_1  and  S_7
REMARK    2  A    between atoms: C_2  and  C_23
REMARK    3  A    between atoms: S_7  and  N_12
REMARK    4  A    between atoms: N_11  and  N_16
REMARK    5  A    between atoms: C_23  and  C_24
REMARK    6  A    between atoms: C_24  and  N_26
REMARK    7  A    between atoms: C_27  and  C_31
REMARK                            x       y       z     vdW  Elec       q    Type
REMARK                         _______ _______ _______ _____ _____    ______ ____
ROOT
ATOM      1  C   UNL     1      34.677 -17.413 -23.896  0.00  0.00    +0.125 C 
ATOM      2  C   UNL     1      34.925 -19.202 -21.770  0.00  0.00    -0.020 C 
ATOM      3  C   UNL     1      34.887 -16.934 -22.602  0.00  0.00    +0.020 C 
ATOM      4  C   UNL     1      34.591 -18.786 -24.126  0.00  0.00    +0.020 C 
ATOM      5  C   UNL     1      35.012 -17.829 -21.540  0.00  0.00    -0.003 C 
ATOM      6  C   UNL     1      34.715 -19.680 -23.064  0.00  0.00    -0.003 C 
ENDROOT
BRANCH   1   7
ATOM      7  S   UNL     1      34.518 -16.278 -25.242  0.00  0.00    +0.077 S 
ATOM      8  O   UNL     1      33.196 -16.438 -25.814  0.00  0.00    -0.150 OA
ATOM      9  O   UNL     1      35.701 -16.438 -26.068  0.00  0.00    -0.150 OA
BRANCH   7  12
ATOM     10  O   UNL     1      32.335 -14.231 -24.415  0.00  0.00    -0.250 OA
ATOM     11  N   UNL     1      33.870 -12.800 -23.441  0.00  0.00    -0.230 N 
ATOM     12  N   UNL     1      34.603 -14.782 -24.420  0.00  0.00    -0.168 N 
ATOM     13  C   UNL     1      33.488 -13.941 -24.109  0.00  0.00    +0.333 C 
ATOM     14  H   UNL     1      34.818 -12.638 -23.232  0.00  0.00    +0.171 HD
ATOM     15  H   UNL     1      35.495 -14.472 -24.136  0.00  0.00    +0.178 HD
BRANCH  11  16
ATOM     16  N   UNL     1      32.902 -11.880 -23.067  0.00  0.00    -0.205 NA
ATOM     17  C   UNL     1      32.176  -9.102 -21.656  0.00  0.00    +0.002 C 
ATOM     18  C   UNL     1      31.189 -10.008 -20.931  0.00  0.00    +0.002 C 
ATOM     19  C   UNL     1      32.358  -9.410 -23.137  0.00  0.00    +0.019 C 
ATOM     20  C   UNL     1      31.187 -11.483 -21.318  0.00  0.00    +0.019 C 
ATOM     21  C   UNL     1      33.367 -10.532 -23.397  0.00  0.00    +0.092 C 
ATOM     22  C   UNL     1      32.553 -12.080 -21.656  0.00  0.00    +0.092 C 
ENDBRANCH  11  16
ENDBRANCH   7  12
ENDBRANCH   1   7
BRANCH   2  23
ATOM     23  C   UNL     1      35.059 -20.158 -20.634  0.00  0.00    +0.048 C 
BRANCH  23  24
ATOM     24  C   UNL     1      33.845 -21.080 -20.461  0.00  0.00    +0.094 C 
BRANCH  24  26
ATOM     25  O   UNL     1      33.912 -23.802 -19.663  0.00  0.00    -0.268 OA
ATOM     26  N   UNL     1      33.717 -21.571 -19.116  0.00  0.00    -0.299 N 
ATOM     27  C   UNL     1      33.761 -22.929 -18.809  0.00  0.00    +0.267 C 
ATOM     28  H   UNL     1      33.594 -20.923 -18.384  0.00  0.00    +0.150 HD
BRANCH  27  31
ATOM     29  O   UNL     1      34.127 -23.854 -15.380  0.00  0.00    -0.358 OA
ATOM     30  N   UNL     1      34.643 -23.596 -16.646  0.00  0.00    -0.073 NA
ATOM     31  C   UNL     1      33.583 -23.270 -17.390  0.00  0.00    +0.176 C 
ATOM     32  C   UNL     1      32.384 -23.304 -16.658  0.00  0.00    +0.063 C 
ATOM     33  C   UNL     1      32.781 -23.677 -15.401  0.00  0.00    +0.155 C 
ATOM     34  C   UNL     1      32.070 -23.909 -14.137  0.00  0.00    +0.075 C 
ENDBRANCH  27  31
ENDBRANCH  24  26
ENDBRANCH  23  24
ENDBRANCH   2  23
TORSDOF 7
ENDMDL
MODEL 8
REMARK VINA RESULT:     -12.2      4.197     10.595
REMARK  Name = 32778
REMARK  7 active torsions:
REMARK  status: ('A' for Active; 'I' for Inactive)
REMARK    1  A    between atoms: C_1  and  S_7
REMARK    2  A    between atoms: C_2  and  C_23
REMARK    3  A    between atoms: S_7  and  N_12
REMARK    4  A    between atoms: N_11  and  N_16
REMARK    5  A    between atoms: C_23  and  C_24
REMARK    6  A    between atoms: C_24  and  N_26
REMARK    7  A    between atoms: C_27  and  C_31
REMARK                            x       y       z     vdW  Elec       q    Type
REMARK                         _______ _______ _______ _____ _____    ______ ____
ROOT
ATOM      1  C   UNL     1      35.042 -22.096 -18.387  0.00  0.00    +0.125 C 
ATOM      2  C   UNL     1      33.146 -23.377 -16.791  0.00  0.00    -0.020 C 
ATOM      3  C   UNL     1      33.724 -22.215 -18.829  0.00  0.00    +0.020 C 
ATOM      4  C   UNL     1      35.412 -22.618 -17.147  0.00  0.00    +0.020 C 
ATOM      5  C   UNL     1      32.776 -22.854 -18.030  0.00  0.00    -0.003 C 
ATOM      6  C   UNL     1      34.464 -23.258 -16.349  0.00  0.00    -0.003 C 
ENDROOT
BRANCH   1   7
ATOM      7  S   UNL     1      36.243 -21.286 -19.400  0.00  0.00    +0.077 S 
ATOM      8  O   UNL     1      36.777 -22.259 -20.333  0.00  0.00    -0.150 OA
ATOM      9  O   UNL     1      37.129 -20.564 -18.505  0.00  0.00    -0.150 OA
BRANCH   7  12
ATOM     10  O   UNL     1      36.891 -19.186 -21.592  0.00  0.00    -0.250 OA
ATOM     11  N   UNL     1      34.692 -18.480 -21.740  0.00  0.00    -0.230 N 
ATOM     12  N   UNL     1      35.261 -20.170 -20.242  0.00  0.00    -0.168 N 
ATOM     13  C   UNL     1      35.716 -19.252 -21.241  0.00  0.00    +0.333 C 
ATOM     14  H   UNL     1      33.773 -18.593 -21.406  0.00  0.00    +0.171 HD
ATOM     15  H   UNL     1      34.300 -20.157 -20.022  0.00  0.00    +0.178 HD
BRANCH  11  16
ATOM     16  N   UNL     1      34.971 -17.540 -22.721  0.00  0.00    -0.205 NA
ATOM     17  C   UNL     1      34.019 -14.999 -24.416  0.00  0.00    +0.002 C 
ATOM     18  C   UNL     1      34.460 -15.904 -25.560  0.00  0.00    +0.002 C 
ATOM     19  C   UNL     1      34.909 -15.052 -23.180  0.00  0.00    +0.019 C 
ATOM     20  C   UNL     1      35.015 -17.274 -25.187  0.00  0.00    +0.019 C 
ATOM     21  C   UNL     1      34.567 -16.216 -22.244  0.00  0.00    +0.092 C 
ATOM     22  C   UNL     1      34.354 -17.950 -23.986  0.00  0.00    +0.092 C 
ENDBRANCH  11  16
ENDBRANCH   7  12
ENDBRANCH   1   7
BRANCH   2  23
ATOM     23  C   UNL     1      32.132 -24.060 -15.937  0.00  0.00    +0.048 C 
BRANCH  23  24
ATOM     24  C   UNL     1      31.363 -23.104 -15.015  0.00  0.00    +0.094 C 
BRANCH  24  26
ATOM     25  O   UNL     1      28.922 -24.539 -15.189  0.00  0.00    -0.268 OA
ATOM     26  N   UNL     1      30.144 -22.630 -15.611  0.00  0.00    -0.299 N 
ATOM     27  C   UNL     1      28.985 -23.402 -15.655  0.00  0.00    +0.267 C 
ATOM     28  H   UNL     1      30.127 -21.727 -16.002  0.00  0.00    +0.150 HD
BRANCH  27  31
ATOM     29  O   UNL     1      25.859 -21.931 -16.555  0.00  0.00    -0.358 OA
ATOM     30  N   UNL     1      26.733 -22.490 -15.629  0.00  0.00    -0.073 NA
ATOM     31  C   UNL     1      27.832 -22.786 -16.328  0.00  0.00    +0.176 C 
ATOM     32  C   UNL     1      27.712 -22.441 -17.686  0.00  0.00    +0.063 C 
ATOM     33  C   UNL     1      26.454 -21.909 -17.775  0.00  0.00    +0.155 C 
ATOM     34  C   UNL     1      25.664 -21.346 -18.879  0.00  0.00    +0.075 C 
ENDBRANCH  27  31
ENDBRANCH  24  26
ENDBRANCH  23  24
ENDBRANCH   2  23
TORSDOF 7
ENDMDL
MODEL 9
REMARK VINA RESULT:     -12.0      3.574      4.246
REMARK  Name = 32778
REMARK  7 active torsions:
REMARK  status: ('A' for Active; 'I' for Inactive)
REMARK    1  A    between atoms: C_1  and  S_7
REMARK    2  A    between atoms: C_2  and  C_23
REMARK    3  A    between atoms: S_7  and  N_12
REMARK    4  A    between atoms: N_11  and  N_16
REMARK    5  A    between atoms: C_23  and  C_24
REMARK    6  A    between atoms: C_24  and  N_26
REMARK    7  A    between atoms: C_27  and  C_31
REMARK                            x       y       z     vdW  Elec       q    Type
REMARK                         _______ _______ _______ _____ _____    ______ ____
ROOT
ATOM      1  C   UNL     1      35.178 -20.984 -20.173  0.00  0.00    +0.125 C 
ATOM      2  C   UNL     1      35.674 -18.631 -21.587  0.00  0.00    -0.020 C 
ATOM      3  C   UNL     1      36.484 -20.510 -20.302  0.00  0.00    +0.020 C 
ATOM      4  C   UNL     1      34.121 -20.283 -20.752  0.00  0.00    +0.020 C 
ATOM      5  C   UNL     1      36.731 -19.333 -21.008  0.00  0.00    -0.003 C 
ATOM      6  C   UNL     1      34.368 -19.106 -21.458  0.00  0.00    -0.003 C 
ENDROOT
BRANCH   1   7
ATOM      7  S   UNL     1      34.866 -22.477 -19.279  0.00  0.00    +0.077 S 
ATOM      8  O   UNL     1      35.810 -22.552 -18.181  0.00  0.00    -0.150 OA
ATOM      9  O   UNL     1      34.792 -23.545 -20.259  0.00  0.00    -0.150 OA
BRANCH   7  12
ATOM     10  O   UNL     1      33.251 -23.763 -16.961  0.00  0.00    -0.250 OA
ATOM     11  N   UNL     1      31.423 -22.387 -17.305  0.00  0.00    -0.230 N 
ATOM     12  N   UNL     1      33.302 -22.167 -18.663  0.00  0.00    -0.168 N 
ATOM     13  C   UNL     1      32.688 -22.859 -17.572  0.00  0.00    +0.333 C 
ATOM     14  H   UNL     1      31.040 -21.656 -17.842  0.00  0.00    +0.171 HD
ATOM     15  H   UNL     1      32.779 -21.453 -19.097  0.00  0.00    +0.178 HD
BRANCH  11  16
ATOM     16  N   UNL     1      30.694 -22.955 -16.271  0.00  0.00    -0.205 NA
ATOM     17  C   UNL     1      30.561 -25.042 -13.851  0.00  0.00    +0.002 C 
ATOM     18  C   UNL     1      29.288 -25.441 -14.586  0.00  0.00    +0.002 C 
ATOM     19  C   UNL     1      30.836 -23.544 -13.814  0.00  0.00    +0.019 C 
ATOM     20  C   UNL     1      28.943 -24.661 -15.850  0.00  0.00    +0.019 C 
ATOM     21  C   UNL     1      31.537 -23.032 -15.076  0.00  0.00    +0.092 C 
ATOM     22  C   UNL     1      30.133 -24.237 -16.710  0.00  0.00    +0.092 C 
ENDBRANCH  11  16
ENDBRANCH   7  12
ENDBRANCH   1   7
BRANCH   2  23
ATOM     23  C   UNL     1      35.939 -17.372 -22.341  0.00  0.00    +0.048 C 
BRANCH  23  24
ATOM     24  C   UNL     1      34.790 -16.962 -23.273  0.00  0.00    +0.094 C 
BRANCH  24  26
ATOM     25  O   UNL     1      34.007 -14.848 -24.995  0.00  0.00    -0.268 OA
ATOM     26  N   UNL     1      34.173 -15.727 -22.870  0.00  0.00    -0.299 N 
ATOM     27  C   UNL     1      33.819 -14.737 -23.784  0.00  0.00    +0.267 C 
ATOM     28  H   UNL     1      33.994 -15.576 -21.914  0.00  0.00    +0.150 HD
BRANCH  27  31
ATOM     29  O   UNL     1      32.769 -11.418 -22.993  0.00  0.00    -0.358 OA
ATOM     30  N   UNL     1      33.469 -12.333 -23.771  0.00  0.00    -0.073 NA
ATOM     31  C   UNL     1      33.227 -13.520 -23.210  0.00  0.00    +0.176 C 
ATOM     32  C   UNL     1      32.388 -13.419 -22.087  0.00  0.00    +0.063 C 
ATOM     33  C   UNL     1      32.130 -12.078 -21.993  0.00  0.00    +0.155 C 
ATOM     34  C   UNL     1      31.336 -11.257 -21.069  0.00  0.00    +0.075 C 
ENDBRANCH  27  31
ENDBRANCH  24  26
ENDBRANCH  23  24
ENDBRANCH   2  23
TORSDOF 7
ENDMDL
