MODEL 1
REMARK VINA RESULT:     -14.0      0.000      0.000
REMARK  Name = 448408
REMARK  8 active torsions:
REMARK  status: ('A' for Active; 'I' for Inactive)
REMARK    1  A    between atoms: N_2  and  C_25
REMARK    2  A    between atoms: C_3  and  C_6
REMARK    3  A    between atoms: C_5  and  N_12
REMARK    4  A    between atoms: C_25  and  C_26
REMARK    5  A    between atoms: C_27  and  S_32
REMARK    6  A    between atoms: S_32  and  C_33
REMARK    7  A    between atoms: C_34  and  C_39
REMARK    8  A    between atoms: C_39  and  O_40
REMARK                            x       y       z     vdW  Elec       q    Type
REMARK                         _______ _______ _______ _____ _____    ______ ____
ROOT
ATOM      1  O   UNL     1      32.869 -21.926 -20.240  0.00  0.00    -0.270 OA
ATOM      2  N   UNL     1      34.557 -22.610 -18.805  0.00  0.00    -0.297 N 
ATOM      3  C   UNL     1      34.016 -21.770 -19.784  0.00  0.00    +0.246 C 
ATOM      4  H   UNL     1      35.472 -22.429 -18.489  0.00  0.00    +0.150 HD
ENDROOT
BRANCH   3   6
ATOM      5  C   UNL     1      35.111 -18.551 -21.397  0.00  0.00    +0.090 C 
ATOM      6  C   UNL     1      34.867 -20.700 -20.280  0.00  0.00    +0.055 C 
ATOM      7  C   UNL     1      34.301 -19.593 -20.912  0.00  0.00    +0.023 C 
ATOM      8  C   UNL     1      36.502 -18.648 -21.230  0.00  0.00    +0.018 C 
ATOM      9  C   UNL     1      36.252 -20.780 -20.122  0.00  0.00    +0.005 C 
ATOM     10  C   UNL     1      37.068 -19.755 -20.597  0.00  0.00    +0.002 C 
BRANCH   5  12
ATOM     11  O   UNL     1      34.380 -16.327 -26.035  0.00  0.00    -0.207 OA
ATOM     12  N   UNL     1      34.546 -17.448 -22.027  0.00  0.00    -0.137 N 
ATOM     13  N   UNL     1      34.531 -16.187 -21.518  0.00  0.00    -0.215 N 
ATOM     14  N   UNL     1      34.498 -17.433 -23.419  0.00  0.00    -0.143 NA
ATOM     15  N   UNL     1      34.434 -14.038 -22.706  0.00  0.00    -0.309 NA
ATOM     16  N   UNL     1      34.356 -14.200 -25.113  0.00  0.00    -0.251 NA
ATOM     17  N   UNL     1      34.337 -12.129 -24.084  0.00  0.00    -0.283 N 
ATOM     18  C   UNL     1      34.473 -15.309 -22.549  0.00  0.00    +0.243 C 
ATOM     19  C   UNL     1      34.455 -16.177 -23.736  0.00  0.00    +0.241 C 
ATOM     20  C   UNL     1      34.392 -15.574 -25.073  0.00  0.00    +0.239 C 
ATOM     21  C   UNL     1      34.376 -13.501 -23.995  0.00  0.00    +0.208 C 
ATOM     22  H   UNL     1      34.558 -15.953 -20.562  0.00  0.00    +0.175 HD
ATOM     23  H   UNL     1      34.350 -11.581 -23.266  0.00  0.00    +0.156 HD
ATOM     24  H   UNL     1      34.295 -11.694 -24.967  0.00  0.00    +0.156 HD
ENDBRANCH   5  12
ENDBRANCH   3   6
BRANCH   2  25
ATOM     25  C   UNL     1      33.845 -23.731 -18.232  0.00  0.00    +0.117 C 
BRANCH  25  26
ATOM     26  C   UNL     1      33.390 -23.448 -16.829  0.00  0.00    +0.003 C 
ATOM     27  C   UNL     1      34.295 -23.253 -15.790  0.00  0.00    +0.027 C 
ATOM     28  C   UNL     1      32.020 -23.387 -16.591  0.00  0.00    -0.002 C 
ATOM     29  C   UNL     1      33.827 -22.994 -14.502  0.00  0.00    +0.006 C 
ATOM     30  C   UNL     1      31.552 -23.128 -15.304  0.00  0.00    -0.000 C 
ATOM     31  C   UNL     1      32.454 -22.931 -14.259  0.00  0.00    +0.000 C 
BRANCH  27  32
ATOM     32  S   UNL     1      36.063 -23.324 -16.050  0.00  0.00    -0.087 S 
BRANCH  32  33
ATOM     33  C   UNL     1      36.610 -24.025 -14.501  0.00  0.00    +0.028 C 
ATOM     34  C   UNL     1      36.641 -25.405 -14.289  0.00  0.00    +0.013 C 
ATOM     35  C   UNL     1      37.013 -23.157 -13.485  0.00  0.00    +0.006 C 
ATOM     36  C   UNL     1      37.075 -25.914 -13.065  0.00  0.00    -0.001 C 
ATOM     37  C   UNL     1      37.446 -23.666 -12.261  0.00  0.00    +0.000 C 
ATOM     38  C   UNL     1      37.477 -25.045 -12.051  0.00  0.00    -0.000 C 
BRANCH  34  39
ATOM     39  C   UNL     1      36.220 -26.377 -15.344  0.00  0.00    +0.164 C 
BRANCH  39  40
ATOM     40  O   UNL     1      37.367 -26.819 -16.057  0.00  0.00    -0.377 OA
ATOM     41  H   UNL     1      37.779 -27.557 -15.581  0.00  0.00    +0.211 HD
ENDBRANCH  39  40
ENDBRANCH  34  39
ENDBRANCH  32  33
ENDBRANCH  27  32
ENDBRANCH  25  26
ENDBRANCH   2  25
TORSDOF 8
ENDMDL
MODEL 2
REMARK VINA RESULT:     -13.8      3.582     11.191
REMARK  Name = 448408
REMARK  8 active torsions:
REMARK  status: ('A' for Active; 'I' for Inactive)
REMARK    1  A    between atoms: N_2  and  C_25
REMARK    2  A    between atoms: C_3  and  C_6
REMARK    3  A    between atoms: C_5  and  N_12
REMARK    4  A    between atoms: C_25  and  C_26
REMARK    5  A    between atoms: C_27  and  S_32
REMARK    6  A    between atoms: S_32  and  C_33
REMARK    7  A    between atoms: C_34  and  C_39
REMARK    8  A    between atoms: C_39  and  O_40
REMARK                            x       y       z     vdW  Elec       q    Type
REMARK                         _______ _______ _______ _____ _____    ______ ____
ROOT
ATOM      1  O   UNL     1      33.824 -23.267 -20.116  0.00  0.00    -0.270 OA
ATOM      2  N   UNL     1      33.459 -21.058 -19.515  0.00  0.00    -0.297 N 
ATOM      3  C   UNL     1      33.545 -22.428 -19.241  0.00  0.00    +0.246 C 
ATOM      4  H   UNL     1      33.234 -20.449 -18.774  0.00  0.00    +0.150 HD
ENDROOT
BRANCH   3   6
ATOM      5  C   UNL     1      34.022 -23.837 -15.785  0.00  0.00    +0.090 C 
ATOM      6  C   UNL     1      33.267 -22.848 -17.877  0.00  0.00    +0.055 C 
ATOM      7  C   UNL     1      34.275 -23.426 -17.106  0.00  0.00    +0.023 C 
ATOM      8  C   UNL     1      32.732 -23.654 -15.260  0.00  0.00    +0.018 C 
ATOM      9  C   UNL     1      31.991 -22.673 -17.340  0.00  0.00    +0.005 C 
ATOM     10  C   UNL     1      31.724 -23.075 -16.032  0.00  0.00    +0.002 C 
BRANCH   5  12
ATOM     11  O   UNL     1      37.841 -22.749 -12.436  0.00  0.00    -0.207 OA
ATOM     12  N   UNL     1      35.027 -24.413 -15.016  0.00  0.00    -0.137 N 
ATOM     13  N   UNL     1      35.783 -25.476 -15.398  0.00  0.00    -0.215 N 
ATOM     14  N   UNL     1      35.707 -23.608 -14.106  0.00  0.00    -0.143 NA
ATOM     15  N   UNL     1      38.060 -26.087 -14.703  0.00  0.00    -0.309 NA
ATOM     16  N   UNL     1      39.087 -24.580 -13.121  0.00  0.00    -0.251 NA
ATOM     17  N   UNL     1      40.238 -26.441 -13.874  0.00  0.00    -0.283 N 
ATOM     18  C   UNL     1      36.976 -25.407 -14.757  0.00  0.00    +0.243 C 
ATOM     19  C   UNL     1      36.857 -24.185 -13.946  0.00  0.00    +0.241 C 
ATOM     20  C   UNL     1      37.977 -23.770 -13.094  0.00  0.00    +0.239 C 
ATOM     21  C   UNL     1      39.106 -25.658 -13.880  0.00  0.00    +0.208 C 
ATOM     22  H   UNL     1      35.510 -26.178 -16.033  0.00  0.00    +0.175 HD
ATOM     23  H   UNL     1      40.280 -27.252 -14.430  0.00  0.00    +0.156 HD
ATOM     24  H   UNL     1      41.007 -26.189 -13.313  0.00  0.00    +0.156 HD
ENDBRANCH   5  12
ENDBRANCH   3   6
BRANCH   2  25
ATOM     25  C   UNL     1      33.683 -20.488 -20.824  0.00  0.00    +0.117 C 
BRANCH  25  26
ATOM     26  C   UNL     1      35.086 -19.976 -20.981  0.00  0.00    +0.003 C 
ATOM     27  C   UNL     1      35.428 -19.072 -21.982  0.00  0.00    +0.027 C 
ATOM     28  C   UNL     1      36.048 -20.435 -20.087  0.00  0.00    -0.002 C 
ATOM     29  C   UNL     1      36.744 -18.624 -22.090  0.00  0.00    +0.006 C 
ATOM     30  C   UNL     1      37.364 -19.987 -20.195  0.00  0.00    -0.000 C 
ATOM     31  C   UNL     1      37.713 -19.081 -21.196  0.00  0.00    +0.000 C 
BRANCH  27  32
ATOM     32  S   UNL     1      34.224 -18.457 -23.153  0.00  0.00    -0.087 S 
BRANCH  32  33
ATOM     33  C   UNL     1      34.362 -16.695 -22.892  0.00  0.00    +0.028 C 
ATOM     34  C   UNL     1      34.318 -15.789 -23.954  0.00  0.00    +0.013 C 
ATOM     35  C   UNL     1      34.519 -16.228 -21.586  0.00  0.00    +0.006 C 
ATOM     36  C   UNL     1      34.429 -14.421 -23.709  0.00  0.00    -0.001 C 
ATOM     37  C   UNL     1      34.631 -14.859 -21.342  0.00  0.00    +0.000 C 
ATOM     38  C   UNL     1      34.585 -13.955 -22.404  0.00  0.00    -0.000 C 
BRANCH  34  39
ATOM     39  C   UNL     1      34.152 -16.238 -25.370  0.00  0.00    +0.164 C 
BRANCH  39  40
ATOM     40  O   UNL     1      35.408 -16.669 -25.875  0.00  0.00    -0.377 OA
ATOM     41  H   UNL     1      35.441 -17.638 -25.878  0.00  0.00    +0.211 HD
ENDBRANCH  39  40
ENDBRANCH  34  39
ENDBRANCH  32  33
ENDBRANCH  27  32
ENDBRANCH  25  26
ENDBRANCH   2  25
TORSDOF 8
ENDMDL
MODEL 3
REMARK VINA RESULT:     -13.8      1.111      1.606
REMARK  Name = 448408
REMARK  8 active torsions:
REMARK  status: ('A' for Active; 'I' for Inactive)
REMARK    1  A    between atoms: N_2  and  C_25
REMARK    2  A    between atoms: C_3  and  C_6
REMARK    3  A    between atoms: C_5  and  N_12
REMARK    4  A    between atoms: C_25  and  C_26
REMARK    5  A    between atoms: C_27  and  S_32
REMARK    6  A    between atoms: S_32  and  C_33
REMARK    7  A    between atoms: C_34  and  C_39
REMARK    8  A    between atoms: C_39  and  O_40
REMARK                            x       y       z     vdW  Elec       q    Type
REMARK                         _______ _______ _______ _____ _____    ______ ____
ROOT
ATOM      1  O   UNL     1      32.907 -21.641 -20.283  0.00  0.00    -0.270 OA
ATOM      2  N   UNL     1      34.339 -22.677 -18.783  0.00  0.00    -0.297 N 
ATOM      3  C   UNL     1      34.035 -21.729 -19.766  0.00  0.00    +0.246 C 
ATOM      4  H   UNL     1      35.253 -22.691 -18.416  0.00  0.00    +0.150 HD
ENDROOT
BRANCH   3   6
ATOM      5  C   UNL     1      35.931 -19.074 -21.641  0.00  0.00    +0.090 C 
ATOM      6  C   UNL     1      35.111 -20.847 -20.189  0.00  0.00    +0.055 C 
ATOM      7  C   UNL     1      34.900 -19.933 -21.221  0.00  0.00    +0.023 C 
ATOM      8  C   UNL     1      37.178 -19.157 -21.000  0.00  0.00    +0.018 C 
ATOM      9  C   UNL     1      36.356 -20.916 -19.562  0.00  0.00    +0.005 C 
ATOM     10  C   UNL     1      37.389 -20.072 -19.967  0.00  0.00    +0.002 C 
BRANCH   5  12
ATOM     11  O   UNL     1      34.628 -14.143 -22.631  0.00  0.00    -0.207 OA
ATOM     12  N   UNL     1      35.720 -18.163 -22.669  0.00  0.00    -0.137 N 
ATOM     13  N   UNL     1      35.149 -18.462 -23.866  0.00  0.00    -0.215 N 
ATOM     14  N   UNL     1      35.530 -16.823 -22.338  0.00  0.00    -0.143 NA
ATOM     15  N   UNL     1      33.907 -16.996 -25.400  0.00  0.00    -0.309 NA
ATOM     16  N   UNL     1      33.674 -14.708 -24.667  0.00  0.00    -0.251 NA
ATOM     17  N   UNL     1      32.762 -15.384 -26.683  0.00  0.00    -0.283 N 
ATOM     18  C   UNL     1      34.570 -17.339 -24.359  0.00  0.00    +0.243 C 
ATOM     19  C   UNL     1      34.853 -16.329 -23.327  0.00  0.00    +0.241 C 
ATOM     20  C   UNL     1      34.374 -14.954 -23.510  0.00  0.00    +0.239 C 
ATOM     21  C   UNL     1      33.467 -15.677 -25.537  0.00  0.00    +0.208 C 
ATOM     22  H   UNL     1      35.155 -19.345 -24.302  0.00  0.00    +0.175 HD
ATOM     23  H   UNL     1      32.593 -16.087 -27.350  0.00  0.00    +0.156 HD
ATOM     24  H   UNL     1      32.427 -14.471 -26.834  0.00  0.00    +0.156 HD
ENDBRANCH   5  12
ENDBRANCH   3   6
BRANCH   2  25
ATOM     25  C   UNL     1      33.385 -23.638 -18.276  0.00  0.00    +0.117 C 
BRANCH  25  26
ATOM     26  C   UNL     1      33.030 -23.373 -16.842  0.00  0.00    +0.003 C 
ATOM     27  C   UNL     1      34.004 -23.276 -15.851  0.00  0.00    +0.027 C 
ATOM     28  C   UNL     1      31.684 -23.227 -16.522  0.00  0.00    -0.002 C 
ATOM     29  C   UNL     1      33.627 -23.030 -14.531  0.00  0.00    +0.006 C 
ATOM     30  C   UNL     1      31.307 -22.981 -15.203  0.00  0.00    -0.000 C 
ATOM     31  C   UNL     1      32.278 -22.882 -14.207  0.00  0.00    +0.000 C 
BRANCH  27  32
ATOM     32  S   UNL     1      35.745 -23.457 -16.216  0.00  0.00    -0.087 S 
BRANCH  32  33
ATOM     33  C   UNL     1      36.370 -24.013 -14.638  0.00  0.00    +0.028 C 
ATOM     34  C   UNL     1      36.516 -25.370 -14.342  0.00  0.00    +0.013 C 
ATOM     35  C   UNL     1      36.715 -23.053 -13.685  0.00  0.00    +0.006 C 
ATOM     36  C   UNL     1      37.008 -25.764 -13.098  0.00  0.00    -0.001 C 
ATOM     37  C   UNL     1      37.206 -23.448 -12.441  0.00  0.00    +0.000 C 
ATOM     38  C   UNL     1      37.353 -24.803 -12.147  0.00  0.00    -0.000 C 
BRANCH  34  39
ATOM     39  C   UNL     1      36.161 -26.437 -15.327  0.00  0.00    +0.164 C 
BRANCH  39  40
ATOM     40  O   UNL     1      37.326 -26.816 -16.047  0.00  0.00    -0.377 OA
ATOM     41  H   UNL     1      38.104 -26.394 -15.648  0.00  0.00    +0.211 HD
ENDBRANCH  39  40
ENDBRANCH  34  39
ENDBRANCH  32  33
ENDBRANCH  27  32
ENDBRANCH  25  26
ENDBRANCH   2  25
TORSDOF 8
ENDMDL
MODEL 4
REMARK VINA RESULT:     -13.6      3.553     11.481
REMARK  Name = 448408
REMARK  8 active torsions:
REMARK  status: ('A' for Active; 'I' for Inactive)
REMARK    1  A    between atoms: N_2  and  C_25
REMARK    2  A    between atoms: C_3  and  C_6
REMARK    3  A    between atoms: C_5  and  N_12
REMARK    4  A    between atoms: C_25  and  C_26
REMARK    5  A    between atoms: C_27  and  S_32
REMARK    6  A    between atoms: S_32  and  C_33
REMARK    7  A    between atoms: C_34  and  C_39
REMARK    8  A    between atoms: C_39  and  O_40
REMARK                            x       y       z     vdW  Elec       q    Type
REMARK                         _______ _______ _______ _____ _____    ______ ____
ROOT
ATOM      1  O   UNL     1      37.195 -20.541 -20.443  0.00  0.00    -0.270 OA
ATOM      2  N   UNL     1      35.288 -19.332 -20.973  0.00  0.00    -0.297 N 
ATOM      3  C   UNL     1      35.971 -20.360 -20.312  0.00  0.00    +0.246 C 
ATOM      4  H   UNL     1      34.319 -19.247 -20.824  0.00  0.00    +0.150 HD
ENDROOT
BRANCH   3   6
ATOM      5  C   UNL     1      35.021 -22.742 -17.559  0.00  0.00    +0.090 C 
ATOM      6  C   UNL     1      35.180 -21.243 -19.470  0.00  0.00    +0.055 C 
ATOM      7  C   UNL     1      35.772 -21.885 -18.382  0.00  0.00    +0.023 C 
ATOM      8  C   UNL     1      33.662 -22.938 -17.855  0.00  0.00    +0.018 C 
ATOM      9  C   UNL     1      33.829 -21.449 -19.750  0.00  0.00    +0.005 C 
ATOM     10  C   UNL     1      33.070 -22.296 -18.943  0.00  0.00    +0.002 C 
BRANCH   5  12
ATOM     11  O   UNL     1      34.153 -24.340 -12.692  0.00  0.00    -0.207 OA
ATOM     12  N   UNL     1      35.611 -23.381 -16.474  0.00  0.00    -0.137 N 
ATOM     13  N   UNL     1      36.910 -23.237 -16.102  0.00  0.00    -0.215 N 
ATOM     14  N   UNL     1      34.807 -23.720 -15.388  0.00  0.00    -0.143 NA
ATOM     15  N   UNL     1      37.922 -23.494 -13.877  0.00  0.00    -0.309 NA
ATOM     16  N   UNL     1      36.383 -24.083 -12.113  0.00  0.00    -0.251 NA
ATOM     17  N   UNL     1      38.632 -23.802 -11.650  0.00  0.00    -0.283 N 
ATOM     18  C   UNL     1      37.005 -23.475 -14.770  0.00  0.00    +0.243 C 
ATOM     19  C   UNL     1      35.619 -23.778 -14.379  0.00  0.00    +0.241 C 
ATOM     20  C   UNL     1      35.315 -24.095 -12.979  0.00  0.00    +0.239 C 
ATOM     21  C   UNL     1      37.593 -23.800 -12.553  0.00  0.00    +0.208 C 
ATOM     22  H   UNL     1      37.657 -23.000 -16.699  0.00  0.00    +0.175 HD
ATOM     23  H   UNL     1      39.546 -23.594 -11.950  0.00  0.00    +0.156 HD
ATOM     24  H   UNL     1      38.460 -24.010 -10.703  0.00  0.00    +0.156 HD
ENDBRANCH   5  12
ENDBRANCH   3   6
BRANCH   2  25
ATOM     25  C   UNL     1      35.929 -18.390 -21.862  0.00  0.00    +0.117 C 
BRANCH  25  26
ATOM     26  C   UNL     1      35.135 -18.175 -23.118  0.00  0.00    +0.003 C 
ATOM     27  C   UNL     1      34.976 -16.910 -23.677  0.00  0.00    +0.027 C 
ATOM     28  C   UNL     1      34.554 -19.288 -23.717  0.00  0.00    -0.002 C 
ATOM     29  C   UNL     1      34.229 -16.758 -24.844  0.00  0.00    +0.006 C 
ATOM     30  C   UNL     1      33.807 -19.136 -24.884  0.00  0.00    -0.000 C 
ATOM     31  C   UNL     1      33.644 -17.871 -25.449  0.00  0.00    +0.000 C 
BRANCH  27  32
ATOM     32  S   UNL     1      35.705 -15.453 -22.941  0.00  0.00    -0.087 S 
BRANCH  32  33
ATOM     33  C   UNL     1      34.259 -14.648 -22.270  0.00  0.00    +0.028 C 
ATOM     34  C   UNL     1      33.608 -13.617 -22.952  0.00  0.00    +0.013 C 
ATOM     35  C   UNL     1      33.779 -15.071 -21.029  0.00  0.00    +0.006 C 
ATOM     36  C   UNL     1      32.481 -13.014 -22.394  0.00  0.00    -0.001 C 
ATOM     37  C   UNL     1      32.653 -14.466 -20.471  0.00  0.00    +0.000 C 
ATOM     38  C   UNL     1      32.003 -13.438 -21.154  0.00  0.00    -0.000 C 
BRANCH  34  39
ATOM     39  C   UNL     1      34.081 -13.128 -24.283  0.00  0.00    +0.164 C 
BRANCH  39  40
ATOM     40  O   UNL     1      34.538 -11.788 -24.153  0.00  0.00    -0.377 OA
ATOM     41  H   UNL     1      33.880 -11.268 -23.667  0.00  0.00    +0.211 HD
ENDBRANCH  39  40
ENDBRANCH  34  39
ENDBRANCH  32  33
ENDBRANCH  27  32
ENDBRANCH  25  26
ENDBRANCH   2  25
TORSDOF 8
ENDMDL
MODEL 5
REMARK VINA RESULT:     -13.5      2.274      3.099
REMARK  Name = 448408
REMARK  8 active torsions:
REMARK  status: ('A' for Active; 'I' for Inactive)
REMARK    1  A    between atoms: N_2  and  C_25
REMARK    2  A    between atoms: C_3  and  C_6
REMARK    3  A    between atoms: C_5  and  N_12
REMARK    4  A    between atoms: C_25  and  C_26
REMARK    5  A    between atoms: C_27  and  S_32
REMARK    6  A    between atoms: S_32  and  C_33
REMARK    7  A    between atoms: C_34  and  C_39
REMARK    8  A    between atoms: C_39  and  O_40
REMARK                            x       y       z     vdW  Elec       q    Type
REMARK                         _______ _______ _______ _____ _____    ______ ____
ROOT
ATOM      1  O   UNL     1      37.661 -19.406 -19.785  0.00  0.00    -0.270 OA
ATOM      2  N   UNL     1      36.005 -21.028 -19.779  0.00  0.00    -0.297 N 
ATOM      3  C   UNL     1      36.617 -19.871 -20.275  0.00  0.00    +0.246 C 
ATOM      4  H   UNL     1      35.179 -21.341 -20.215  0.00  0.00    +0.150 HD
ENDROOT
BRANCH   3   6
ATOM      5  C   UNL     1      35.140 -17.164 -22.430  0.00  0.00    +0.090 C 
ATOM      6  C   UNL     1      35.963 -19.204 -21.389  0.00  0.00    +0.055 C 
ATOM      7  C   UNL     1      35.770 -17.822 -21.360  0.00  0.00    +0.023 C 
ATOM      8  C   UNL     1      34.707 -17.925 -23.528  0.00  0.00    +0.018 C 
ATOM      9  C   UNL     1      35.527 -19.946 -22.488  0.00  0.00    +0.005 C 
ATOM     10  C   UNL     1      34.900 -19.307 -23.556  0.00  0.00    +0.002 C 
BRANCH   5  12
ATOM     11  O   UNL     1      32.173 -13.414 -20.397  0.00  0.00    -0.207 OA
ATOM     12  N   UNL     1      34.948 -15.787 -22.401  0.00  0.00    -0.137 N 
ATOM     13  N   UNL     1      35.112 -14.959 -23.467  0.00  0.00    -0.215 N 
ATOM     14  N   UNL     1      34.035 -15.264 -21.489  0.00  0.00    -0.143 NA
ATOM     15  N   UNL     1      34.047 -12.791 -23.922  0.00  0.00    -0.309 NA
ATOM     16  N   UNL     1      32.492 -12.038 -22.236  0.00  0.00    -0.251 NA
ATOM     17  N   UNL     1      32.889 -10.747 -24.114  0.00  0.00    -0.283 N 
ATOM     18  C   UNL     1      34.320 -13.872 -23.292  0.00  0.00    +0.243 C 
ATOM     19  C   UNL     1      33.659 -14.136 -22.005  0.00  0.00    +0.241 C 
ATOM     20  C   UNL     1      32.703 -13.159 -21.469  0.00  0.00    +0.239 C 
ATOM     21  C   UNL     1      33.130 -11.886 -23.380  0.00  0.00    +0.208 C 
ATOM     22  H   UNL     1      35.707 -15.121 -24.235  0.00  0.00    +0.175 HD
ATOM     23  H   UNL     1      33.351 -10.606 -24.972  0.00  0.00    +0.156 HD
ATOM     24  H   UNL     1      32.253 -10.073 -23.781  0.00  0.00    +0.156 HD
ENDBRANCH   5  12
ENDBRANCH   3   6
BRANCH   2  25
ATOM     25  C   UNL     1      36.519 -21.789 -18.662  0.00  0.00    +0.117 C 
BRANCH  25  26
ATOM     26  C   UNL     1      35.417 -22.379 -17.831  0.00  0.00    +0.003 C 
ATOM     27  C   UNL     1      35.631 -22.799 -16.521  0.00  0.00    +0.027 C 
ATOM     28  C   UNL     1      34.158 -22.499 -18.413  0.00  0.00    -0.002 C 
ATOM     29  C   UNL     1      34.577 -23.343 -15.788  0.00  0.00    +0.006 C 
ATOM     30  C   UNL     1      33.104 -23.043 -17.679  0.00  0.00    -0.000 C 
ATOM     31  C   UNL     1      33.313 -23.464 -16.366  0.00  0.00    +0.000 C 
BRANCH  27  32
ATOM     32  S   UNL     1      37.231 -22.664 -15.735  0.00  0.00    -0.087 S 
BRANCH  32  33
ATOM     33  C   UNL     1      37.249 -24.146 -14.738  0.00  0.00    +0.028 C 
ATOM     34  C   UNL     1      37.321 -24.093 -13.344  0.00  0.00    +0.013 C 
ATOM     35  C   UNL     1      37.189 -25.382 -15.385  0.00  0.00    +0.006 C 
ATOM     36  C   UNL     1      37.332 -25.273 -12.601  0.00  0.00    -0.001 C 
ATOM     37  C   UNL     1      37.202 -26.561 -14.640  0.00  0.00    +0.000 C 
ATOM     38  C   UNL     1      37.273 -26.507 -13.248  0.00  0.00    -0.000 C 
BRANCH  34  39
ATOM     39  C   UNL     1      37.386 -22.796 -12.604  0.00  0.00    +0.164 C 
BRANCH  39  40
ATOM     40  O   UNL     1      38.489 -22.823 -11.708  0.00  0.00    -0.377 OA
ATOM     41  H   UNL     1      38.538 -23.694 -11.283  0.00  0.00    +0.211 HD
ENDBRANCH  39  40
ENDBRANCH  34  39
ENDBRANCH  32  33
ENDBRANCH  27  32
ENDBRANCH  25  26
ENDBRANCH   2  25
TORSDOF 8
ENDMDL
MODEL 6
REMARK VINA RESULT:     -13.2      1.796      4.040
REMARK  Name = 448408
REMARK  8 active torsions:
REMARK  status: ('A' for Active; 'I' for Inactive)
REMARK    1  A    between atoms: N_2  and  C_25
REMARK    2  A    between atoms: C_3  and  C_6
REMARK    3  A    between atoms: C_5  and  N_12
REMARK    4  A    between atoms: C_25  and  C_26
REMARK    5  A    between atoms: C_27  and  S_32
REMARK    6  A    between atoms: S_32  and  C_33
REMARK    7  A    between atoms: C_34  and  C_39
REMARK    8  A    between atoms: C_39  and  O_40
REMARK                            x       y       z     vdW  Elec       q    Type
REMARK                         _______ _______ _______ _____ _____    ______ ____
ROOT
ATOM      1  O   UNL     1      33.015 -22.601 -19.836  0.00  0.00    -0.270 OA
ATOM      2  N   UNL     1      34.369 -22.647 -17.954  0.00  0.00    -0.297 N 
ATOM      3  C   UNL     1      34.018 -22.186 -19.228  0.00  0.00    +0.246 C 
ATOM      4  H   UNL     1      35.177 -22.276 -17.531  0.00  0.00    +0.150 HD
ENDROOT
BRANCH   3   6
ATOM      5  C   UNL     1      35.196 -19.171 -21.146  0.00  0.00    +0.090 C 
ATOM      6  C   UNL     1      34.898 -21.202 -19.840  0.00  0.00    +0.055 C 
ATOM      7  C   UNL     1      34.358 -20.129 -20.549  0.00  0.00    +0.023 C 
ATOM      8  C   UNL     1      36.587 -19.318 -21.015  0.00  0.00    +0.018 C 
ATOM      9  C   UNL     1      36.282 -21.334 -19.718  0.00  0.00    +0.005 C 
ATOM     10  C   UNL     1      37.126 -20.392 -20.305  0.00  0.00    +0.002 C 
BRANCH   5  12
ATOM     11  O   UNL     1      34.911 -17.020 -25.867  0.00  0.00    -0.207 OA
ATOM     12  N   UNL     1      34.659 -18.100 -21.852  0.00  0.00    -0.137 N 
ATOM     13  N   UNL     1      34.527 -16.838 -21.365  0.00  0.00    -0.215 N 
ATOM     14  N   UNL     1      34.773 -18.099 -23.240  0.00  0.00    -0.143 NA
ATOM     15  N   UNL     1      34.471 -14.705 -22.585  0.00  0.00    -0.309 NA
ATOM     16  N   UNL     1      34.681 -14.889 -24.982  0.00  0.00    -0.251 NA
ATOM     17  N   UNL     1      34.447 -12.813 -23.990  0.00  0.00    -0.283 N 
ATOM     18  C   UNL     1      34.549 -15.971 -22.408  0.00  0.00    +0.243 C 
ATOM     19  C   UNL     1      34.709 -16.849 -23.577  0.00  0.00    +0.241 C 
ATOM     20  C   UNL     1      34.776 -16.260 -24.920  0.00  0.00    +0.239 C 
ATOM     21  C   UNL     1      34.539 -14.182 -23.879  0.00  0.00    +0.208 C 
ATOM     22  H   UNL     1      34.431 -16.595 -20.416  0.00  0.00    +0.175 HD
ATOM     23  H   UNL     1      34.340 -12.259 -23.184  0.00  0.00    +0.156 HD
ATOM     24  H   UNL     1      34.489 -12.388 -24.877  0.00  0.00    +0.156 HD
ENDBRANCH   5  12
ENDBRANCH   3   6
BRANCH   2  25
ATOM     25  C   UNL     1      33.610 -23.639 -17.226  0.00  0.00    +0.117 C 
BRANCH  25  26
ATOM     26  C   UNL     1      34.218 -23.939 -15.887  0.00  0.00    +0.003 C 
ATOM     27  C   UNL     1      33.663 -23.455 -14.705  0.00  0.00    +0.027 C 
ATOM     28  C   UNL     1      35.368 -24.722 -15.856  0.00  0.00    -0.002 C 
ATOM     29  C   UNL     1      34.263 -23.757 -13.483  0.00  0.00    +0.006 C 
ATOM     30  C   UNL     1      35.968 -25.025 -14.634  0.00  0.00    -0.000 C 
ATOM     31  C   UNL     1      35.416 -24.543 -13.448  0.00  0.00    +0.000 C 
BRANCH  27  32
ATOM     32  S   UNL     1      32.188 -22.445 -14.698  0.00  0.00    -0.087 S 
BRANCH  32  33
ATOM     33  C   UNL     1      30.918 -23.692 -14.849  0.00  0.00    +0.028 C 
ATOM     34  C   UNL     1      29.923 -23.614 -15.825  0.00  0.00    +0.013 C 
ATOM     35  C   UNL     1      30.934 -24.766 -13.958  0.00  0.00    +0.006 C 
ATOM     36  C   UNL     1      28.949 -24.608 -15.911  0.00  0.00    -0.001 C 
ATOM     37  C   UNL     1      29.959 -25.760 -14.043  0.00  0.00    +0.000 C 
ATOM     38  C   UNL     1      28.966 -25.681 -15.020  0.00  0.00    -0.000 C 
BRANCH  34  39
ATOM     39  C   UNL     1      29.861 -22.485 -16.803  0.00  0.00    +0.164 C 
BRANCH  39  40
ATOM     40  O   UNL     1      28.520 -22.025 -16.904  0.00  0.00    -0.377 OA
ATOM     41  H   UNL     1      28.517 -21.097 -17.185  0.00  0.00    +0.211 HD
ENDBRANCH  39  40
ENDBRANCH  34  39
ENDBRANCH  32  33
ENDBRANCH  27  32
ENDBRANCH  25  26
ENDBRANCH   2  25
TORSDOF 8
ENDMDL
MODEL 7
REMARK VINA RESULT:     -12.8      4.365     11.057
REMARK  Name = 448408
REMARK  8 active torsions:
REMARK  status: ('A' for Active; 'I' for Inactive)
REMARK    1  A    between atoms: N_2  and  C_25
REMARK    2  A    between atoms: C_3  and  C_6
REMARK    3  A    between atoms: C_5  and  N_12
REMARK    4  A    between atoms: C_25  and  C_26
REMARK    5  A    between atoms: C_27  and  S_32
REMARK    6  A    between atoms: S_32  and  C_33
REMARK    7  A    between atoms: C_34  and  C_39
REMARK    8  A    between atoms: C_39  and  O_40
REMARK                            x       y       z     vdW  Elec       q    Type
REMARK                         _______ _______ _______ _____ _____    ______ ____
ROOT
ATOM      1  O   UNL     1      31.126 -22.305 -17.630  0.00  0.00    -0.270 OA
ATOM      2  N   UNL     1      33.371 -22.639 -18.105  0.00  0.00    -0.297 N 
ATOM      3  C   UNL     1      32.235 -22.759 -17.296  0.00  0.00    +0.246 C 
ATOM      4  H   UNL     1      34.218 -23.021 -17.778  0.00  0.00    +0.150 HD
ENDROOT
BRANCH   3   6
ATOM      5  C   UNL     1      33.838 -24.560 -14.407  0.00  0.00    +0.090 C 
ATOM      6  C   UNL     1      32.406 -23.423 -16.013  0.00  0.00    +0.055 C 
ATOM      7  C   UNL     1      33.657 -23.915 -15.643  0.00  0.00    +0.023 C 
ATOM      8  C   UNL     1      32.731 -24.699 -13.553  0.00  0.00    +0.018 C 
ATOM      9  C   UNL     1      31.316 -23.569 -15.153  0.00  0.00    +0.005 C 
ATOM     10  C   UNL     1      31.479 -24.206 -13.924  0.00  0.00    +0.002 C 
BRANCH   5  12
ATOM     11  O   UNL     1      38.349 -23.222 -12.204  0.00  0.00    -0.207 OA
ATOM     12  N   UNL     1      35.085 -25.049 -14.037  0.00  0.00    -0.137 N 
ATOM     13  N   UNL     1      35.803 -25.960 -14.747  0.00  0.00    -0.215 N 
ATOM     14  N   UNL     1      35.917 -24.233 -13.273  0.00  0.00    -0.143 NA
ATOM     15  N   UNL     1      38.236 -26.299 -14.820  0.00  0.00    -0.309 NA
ATOM     16  N   UNL     1      39.522 -24.798 -13.436  0.00  0.00    -0.251 NA
ATOM     17  N   UNL     1      40.587 -26.410 -14.707  0.00  0.00    -0.283 N 
ATOM     18  C   UNL     1      37.118 -25.777 -14.476  0.00  0.00    +0.243 C 
ATOM     19  C   UNL     1      37.117 -24.654 -13.525  0.00  0.00    +0.241 C 
ATOM     20  C   UNL     1      38.390 -24.157 -12.991  0.00  0.00    +0.239 C 
ATOM     21  C   UNL     1      39.428 -25.797 -14.291  0.00  0.00    +0.208 C 
ATOM     22  H   UNL     1      35.429 -26.639 -15.355  0.00  0.00    +0.175 HD
ATOM     23  H   UNL     1      40.548 -27.159 -15.345  0.00  0.00    +0.156 HD
ATOM     24  H   UNL     1      41.458 -26.099 -14.367  0.00  0.00    +0.156 HD
ENDBRANCH   5  12
ENDBRANCH   3   6
BRANCH   2  25
ATOM     25  C   UNL     1      33.368 -21.985 -19.394  0.00  0.00    +0.117 C 
BRANCH  25  26
ATOM     26  C   UNL     1      34.703 -21.381 -19.720  0.00  0.00    +0.003 C 
ATOM     27  C   UNL     1      34.830 -20.317 -20.608  0.00  0.00    +0.027 C 
ATOM     28  C   UNL     1      35.828 -21.921 -19.102  0.00  0.00    -0.002 C 
ATOM     29  C   UNL     1      36.091 -19.789 -20.881  0.00  0.00    +0.006 C 
ATOM     30  C   UNL     1      37.089 -21.393 -19.375  0.00  0.00    -0.000 C 
ATOM     31  C   UNL     1      37.221 -20.326 -20.264  0.00  0.00    +0.000 C 
BRANCH  27  32
ATOM     32  S   UNL     1      33.413 -19.594 -21.424  0.00  0.00    -0.087 S 
BRANCH  32  33
ATOM     33  C   UNL     1      34.209 -18.587 -22.666  0.00  0.00    +0.028 C 
ATOM     34  C   UNL     1      34.730 -17.326 -22.367  0.00  0.00    +0.013 C 
ATOM     35  C   UNL     1      34.305 -19.089 -23.965  0.00  0.00    +0.006 C 
ATOM     36  C   UNL     1      35.345 -16.571 -23.365  0.00  0.00    -0.001 C 
ATOM     37  C   UNL     1      34.919 -18.332 -24.963  0.00  0.00    +0.000 C 
ATOM     38  C   UNL     1      35.440 -17.073 -24.663  0.00  0.00    -0.000 C 
BRANCH  34  39
ATOM     39  C   UNL     1      34.654 -16.744 -20.993  0.00  0.00    +0.164 C 
BRANCH  39  40
ATOM     40  O   UNL     1      34.722 -15.327 -21.080  0.00  0.00    -0.377 OA
ATOM     41  H   UNL     1      35.487 -15.074 -21.620  0.00  0.00    +0.211 HD
ENDBRANCH  39  40
ENDBRANCH  34  39
ENDBRANCH  32  33
ENDBRANCH  27  32
ENDBRANCH  25  26
ENDBRANCH   2  25
TORSDOF 8
ENDMDL
MODEL 8
REMARK VINA RESULT:     -12.7      4.687     12.690
REMARK  Name = 448408
REMARK  8 active torsions:
REMARK  status: ('A' for Active; 'I' for Inactive)
REMARK    1  A    between atoms: N_2  and  C_25
REMARK    2  A    between atoms: C_3  and  C_6
REMARK    3  A    between atoms: C_5  and  N_12
REMARK    4  A    between atoms: C_25  and  C_26
REMARK    5  A    between atoms: C_27  and  S_32
REMARK    6  A    between atoms: S_32  and  C_33
REMARK    7  A    between atoms: C_34  and  C_39
REMARK    8  A    between atoms: C_39  and  O_40
REMARK                            x       y       z     vdW  Elec       q    Type
REMARK                         _______ _______ _______ _____ _____    ______ ____
ROOT
ATOM      1  O   UNL     1      35.711 -14.854 -23.948  0.00  0.00    -0.270 OA
ATOM      2  N   UNL     1      33.396 -14.926 -24.062  0.00  0.00    -0.297 N 
ATOM      3  C   UNL     1      34.659 -15.517 -23.937  0.00  0.00    +0.246 C 
ATOM      4  H   UNL     1      32.605 -15.511 -24.046  0.00  0.00    +0.150 HD
ENDROOT
BRANCH   3   6
ATOM      5  C   UNL     1      34.570 -18.968 -22.440  0.00  0.00    +0.090 C 
ATOM      6  C   UNL     1      34.700 -16.966 -23.818  0.00  0.00    +0.055 C 
ATOM      7  C   UNL     1      34.532 -17.569 -22.571  0.00  0.00    +0.023 C 
ATOM      8  C   UNL     1      34.782 -19.746 -23.590  0.00  0.00    +0.018 C 
ATOM      9  C   UNL     1      34.910 -17.754 -24.951  0.00  0.00    +0.005 C 
ATOM     10  C   UNL     1      34.950 -19.142 -24.837  0.00  0.00    +0.002 C 
BRANCH   5  12
ATOM     11  O   UNL     1      36.998 -21.791 -18.817  0.00  0.00    -0.207 OA
ATOM     12  N   UNL     1      34.402 -19.569 -21.197  0.00  0.00    -0.137 N 
ATOM     13  N   UNL     1      33.258 -20.172 -20.776  0.00  0.00    -0.215 N 
ATOM     14  N   UNL     1      35.520 -20.104 -20.564  0.00  0.00    -0.143 NA
ATOM     15  N   UNL     1      32.974 -21.977 -19.132  0.00  0.00    -0.309 NA
ATOM     16  N   UNL     1      35.017 -22.784 -18.133  0.00  0.00    -0.251 NA
ATOM     17  N   UNL     1      32.982 -23.702 -17.527  0.00  0.00    -0.283 N 
ATOM     18  C   UNL     1      33.583 -21.116 -19.859  0.00  0.00    +0.243 C 
ATOM     19  C   UNL     1      35.049 -21.017 -19.773  0.00  0.00    +0.241 C 
ATOM     20  C   UNL     1      35.781 -21.902 -18.860  0.00  0.00    +0.239 C 
ATOM     21  C   UNL     1      33.707 -22.803 -18.275  0.00  0.00    +0.208 C 
ATOM     22  H   UNL     1      32.348 -19.958 -21.085  0.00  0.00    +0.175 HD
ATOM     23  H   UNL     1      32.002 -23.738 -17.611  0.00  0.00    +0.156 HD
ATOM     24  H   UNL     1      33.445 -24.310 -16.905  0.00  0.00    +0.156 HD
ENDBRANCH   5  12
ENDBRANCH   3   6
BRANCH   2  25
ATOM     25  C   UNL     1      33.192 -13.503 -24.213  0.00  0.00    +0.117 C 
BRANCH  25  26
ATOM     26  C   UNL     1      32.818 -12.849 -22.914  0.00  0.00    +0.003 C 
ATOM     27  C   UNL     1      32.910 -11.472 -22.734  0.00  0.00    +0.027 C 
ATOM     28  C   UNL     1      32.374 -13.667 -21.880  0.00  0.00    -0.002 C 
ATOM     29  C   UNL     1      32.553 -10.908 -21.509  0.00  0.00    +0.006 C 
ATOM     30  C   UNL     1      32.017 -13.103 -20.655  0.00  0.00    -0.000 C 
ATOM     31  C   UNL     1      32.106 -11.724 -20.470  0.00  0.00    +0.000 C 
BRANCH  27  32
ATOM     32  S   UNL     1      33.476 -10.384 -24.035  0.00  0.00    -0.087 S 
BRANCH  32  33
ATOM     33  C   UNL     1      32.797  -8.822 -23.495  0.00  0.00    +0.028 C 
ATOM     34  C   UNL     1      33.604  -7.700 -23.296  0.00  0.00    +0.013 C 
ATOM     35  C   UNL     1      31.422  -8.738 -23.270  0.00  0.00    +0.006 C 
ATOM     36  C   UNL     1      33.037  -6.497 -22.875  0.00  0.00    -0.001 C 
ATOM     37  C   UNL     1      30.856  -7.536 -22.848  0.00  0.00    +0.000 C 
ATOM     38  C   UNL     1      31.663  -6.415 -22.650  0.00  0.00    -0.000 C 
BRANCH  34  39
ATOM     39  C   UNL     1      35.082  -7.737 -23.523  0.00  0.00    +0.164 C 
BRANCH  39  40
ATOM     40  O   UNL     1      35.464  -6.610 -24.300  0.00  0.00    -0.377 OA
ATOM     41  H   UNL     1      35.475  -5.819 -23.739  0.00  0.00    +0.211 HD
ENDBRANCH  39  40
ENDBRANCH  34  39
ENDBRANCH  32  33
ENDBRANCH  27  32
ENDBRANCH  25  26
ENDBRANCH   2  25
TORSDOF 8
ENDMDL
MODEL 9
REMARK VINA RESULT:     -12.7      5.326     13.121
REMARK  Name = 448408
REMARK  8 active torsions:
REMARK  status: ('A' for Active; 'I' for Inactive)
REMARK    1  A    between atoms: N_2  and  C_25
REMARK    2  A    between atoms: C_3  and  C_6
REMARK    3  A    between atoms: C_5  and  N_12
REMARK    4  A    between atoms: C_25  and  C_26
REMARK    5  A    between atoms: C_27  and  S_32
REMARK    6  A    between atoms: S_32  and  C_33
REMARK    7  A    between atoms: C_34  and  C_39
REMARK    8  A    between atoms: C_39  and  O_40
REMARK                            x       y       z     vdW  Elec       q    Type
REMARK                         _______ _______ _______ _____ _____    ______ ____
ROOT
ATOM      1  O   UNL     1      35.125 -14.006 -22.133  0.00  0.00    -0.270 OA
ATOM      2  N   UNL     1      34.225 -13.172 -24.101  0.00  0.00    -0.297 N 
ATOM      3  C   UNL     1      34.655 -14.210 -23.267  0.00  0.00    +0.246 C 
ATOM      4  H   UNL     1      33.864 -13.405 -24.987  0.00  0.00    +0.150 HD
ENDROOT
BRANCH   3   6
ATOM      5  C   UNL     1      34.825 -17.962 -23.488  0.00  0.00    +0.090 C 
ATOM      6  C   UNL     1      34.555 -15.563 -23.792  0.00  0.00    +0.055 C 
ATOM      7  C   UNL     1      34.916 -16.649 -22.994  0.00  0.00    +0.023 C 
ATOM      8  C   UNL     1      34.365 -18.158 -24.800  0.00  0.00    +0.018 C 
ATOM      9  C   UNL     1      34.100 -15.774 -25.094  0.00  0.00    +0.005 C 
ATOM     10  C   UNL     1      34.005 -17.070 -25.598  0.00  0.00    +0.002 C 
BRANCH   5  12
ATOM     11  O   UNL     1      32.928 -21.570 -20.267  0.00  0.00    -0.207 OA
ATOM     12  N   UNL     1      35.183 -19.045 -22.693  0.00  0.00    -0.137 N 
ATOM     13  N   UNL     1      36.332 -19.132 -21.972  0.00  0.00    -0.215 N 
ATOM     14  N   UNL     1      34.170 -19.814 -22.125  0.00  0.00    -0.143 NA
ATOM     15  N   UNL     1      36.782 -20.409 -19.920  0.00  0.00    -0.309 NA
ATOM     16  N   UNL     1      34.914 -21.683 -19.076  0.00  0.00    -0.251 NA
ATOM     17  N   UNL     1      36.944 -21.721 -17.969  0.00  0.00    -0.283 N 
ATOM     18  C   UNL     1      36.116 -19.953 -20.915  0.00  0.00    +0.243 C 
ATOM     19  C   UNL     1      34.709 -20.353 -21.076  0.00  0.00    +0.241 C 
ATOM     20  C   UNL     1      34.099 -21.262 -20.100  0.00  0.00    +0.239 C 
ATOM     21  C   UNL     1      36.165 -21.272 -19.010  0.00  0.00    +0.208 C 
ATOM     22  H   UNL     1      37.179 -18.675 -22.182  0.00  0.00    +0.175 HD
ATOM     23  H   UNL     1      37.882 -21.431 -17.895  0.00  0.00    +0.156 HD
ATOM     24  H   UNL     1      36.563 -22.331 -17.297  0.00  0.00    +0.156 HD
ENDBRANCH   5  12
ENDBRANCH   3   6
BRANCH   2  25
ATOM     25  C   UNL     1      34.282 -11.775 -23.733  0.00  0.00    +0.117 C 
BRANCH  25  26
ATOM     26  C   UNL     1      33.072 -11.350 -22.953  0.00  0.00    +0.003 C 
ATOM     27  C   UNL     1      32.716 -10.010 -22.825  0.00  0.00    +0.027 C 
ATOM     28  C   UNL     1      32.304 -12.344 -22.353  0.00  0.00    -0.002 C 
ATOM     29  C   UNL     1      31.583  -9.662 -22.090  0.00  0.00    +0.006 C 
ATOM     30  C   UNL     1      31.171 -11.996 -21.618  0.00  0.00    -0.000 C 
ATOM     31  C   UNL     1      30.810 -10.655 -21.487  0.00  0.00    +0.000 C 
BRANCH  27  32
ATOM     32  S   UNL     1      33.673  -8.702 -23.578  0.00  0.00    -0.087 S 
BRANCH  32  33
ATOM     33  C   UNL     1      32.730  -7.264 -23.092  0.00  0.00    +0.028 C 
ATOM     34  C   UNL     1      32.750  -6.781 -21.782  0.00  0.00    +0.013 C 
ATOM     35  C   UNL     1      31.958  -6.619 -24.059  0.00  0.00    +0.006 C 
ATOM     36  C   UNL     1      32.001  -5.655 -21.442  0.00  0.00    -0.001 C 
ATOM     37  C   UNL     1      31.207  -5.494 -23.718  0.00  0.00    +0.000 C 
ATOM     38  C   UNL     1      31.229  -5.012 -22.410  0.00  0.00    -0.000 C 
BRANCH  34  39
ATOM     39  C   UNL     1      33.561  -7.435 -20.710  0.00  0.00    +0.164 C 
BRANCH  39  40
ATOM     40  O   UNL     1      33.304  -6.790 -19.470  0.00  0.00    -0.377 OA
ATOM     41  H   UNL     1      32.725  -7.350 -18.928  0.00  0.00    +0.211 HD
ENDBRANCH  39  40
ENDBRANCH  34  39
ENDBRANCH  32  33
ENDBRANCH  27  32
ENDBRANCH  25  26
ENDBRANCH   2  25
TORSDOF 8
ENDMDL
