MODEL 1
REMARK VINA RESULT:     -12.7      0.000      0.000
REMARK  Name = 118598754
REMARK  1 active torsions:
REMARK  status: ('A' for Active; 'I' for Inactive)
REMARK    1  A    between atoms: C_15  and  N_19
REMARK                            x       y       z     vdW  Elec       q    Type
REMARK                         _______ _______ _______ _____ _____    ______ ____
ROOT
ATOM      1  O   UNL     1      32.200 -24.686 -13.212  0.00  0.00    -0.269 OA
ATOM      2  O   UNL     1      36.892 -23.262 -16.379  0.00  0.00    -0.268 OA
ATOM      3  N   UNL     1      35.024 -23.830 -15.120  0.00  0.00    -0.238 N 
ATOM      4  N   UNL     1      34.534 -24.679 -13.042  0.00  0.00    -0.288 N 
ATOM      5  C   UNL     1      35.673 -24.309 -13.873  0.00  0.00    +0.124 C 
ATOM      6  C   UNL     1      36.551 -25.547 -14.137  0.00  0.00    +0.038 C 
ATOM      7  C   UNL     1      36.475 -23.183 -13.190  0.00  0.00    +0.038 C 
ATOM      8  C   UNL     1      37.226 -23.669 -11.948  0.00  0.00    +0.003 C 
ATOM      9  C   UNL     1      37.302 -26.012 -12.889  0.00  0.00    +0.003 C 
ATOM     10  C   UNL     1      38.102 -24.878 -12.257  0.00  0.00    +0.000 C 
ATOM     11  C   UNL     1      33.647 -23.921 -15.004  0.00  0.00    +0.105 C 
ATOM     12  C   UNL     1      33.310 -24.469 -13.664  0.00  0.00    +0.260 C 
ATOM     13  C   UNL     1      35.672 -23.355 -16.253  0.00  0.00    +0.267 C 
ATOM     14  C   UNL     1      32.827 -23.551 -15.998  0.00  0.00    -0.002 C 
ATOM     15  C   UNL     1      34.767 -22.933 -17.382  0.00  0.00    +0.104 C 
ATOM     16  C   UNL     1      33.438 -23.043 -17.215  0.00  0.00    +0.016 C 
ATOM     17  C   UNL     1      31.328 -23.598 -16.001  0.00  0.00    +0.033 C 
ATOM     18  H   UNL     1      34.622 -25.041 -12.131  0.00  0.00    +0.151 HD
ENDROOT
BRANCH  15  19
ATOM     19  N   UNL     1      35.379 -22.463 -18.507  0.00  0.00    -0.298 N 
ATOM     20  N   UNL     1      33.554 -21.501 -19.667  0.00  0.00    -0.233 NA
ATOM     21  N   UNL     1      33.955 -19.768 -21.293  0.00  0.00    -0.234 NA
ATOM     22  C   UNL     1      34.885 -21.553 -19.449  0.00  0.00    +0.113 C 
ATOM     23  C   UNL     1      35.801 -20.757 -20.105  0.00  0.00    +0.121 C 
ATOM     24  C   UNL     1      35.273 -19.874 -21.026  0.00  0.00    +0.107 C 
ATOM     25  C   UNL     1      33.164 -20.599 -20.588  0.00  0.00    +0.252 C 
ATOM     26  H   UNL     1      36.285 -22.807 -18.678  0.00  0.00    +0.153 HD
ATOM     27  N   UNL     1      36.182 -19.040 -21.723  0.00  0.00    -0.346 N 
ATOM     28  H   UNL     1      35.849 -18.395 -22.388  0.00  0.00    +0.143 HD
ATOM     29  H   UNL     1      37.148 -19.104 -21.541  0.00  0.00    +0.143 HD
ENDBRANCH  15  19
TORSDOF 1
ENDMDL
MODEL 2
REMARK VINA RESULT:     -12.0      7.366     10.828
REMARK  Name = 118598754
REMARK  1 active torsions:
REMARK  status: ('A' for Active; 'I' for Inactive)
REMARK    1  A    between atoms: C_15  and  N_19
REMARK                            x       y       z     vdW  Elec       q    Type
REMARK                         _______ _______ _______ _____ _____    ______ ____
ROOT
ATOM      1  O   UNL     1      34.860 -17.928 -25.934  0.00  0.00    -0.269 OA
ATOM      2  O   UNL     1      34.644 -15.842 -20.487  0.00  0.00    -0.268 OA
ATOM      3  N   UNL     1      34.731 -16.671 -22.655  0.00  0.00    -0.238 N 
ATOM      4  N   UNL     1      35.448 -18.555 -23.757  0.00  0.00    -0.288 N 
ATOM      5  C   UNL     1      35.371 -17.989 -22.416  0.00  0.00    +0.124 C 
ATOM      6  C   UNL     1      36.789 -17.828 -21.835  0.00  0.00    +0.038 C 
ATOM      7  C   UNL     1      34.493 -18.885 -21.520  0.00  0.00    +0.038 C 
ATOM      8  C   UNL     1      35.165 -20.218 -21.185  0.00  0.00    +0.003 C 
ATOM      9  C   UNL     1      37.441 -19.169 -21.497  0.00  0.00    +0.003 C 
ATOM     10  C   UNL     1      36.553 -20.015 -20.589  0.00  0.00    +0.000 C 
ATOM     11  C   UNL     1      34.471 -16.507 -24.005  0.00  0.00    +0.105 C 
ATOM     12  C   UNL     1      34.928 -17.718 -24.737  0.00  0.00    +0.260 C 
ATOM     13  C   UNL     1      34.425 -15.719 -21.690  0.00  0.00    +0.267 C 
ATOM     14  C   UNL     1      33.895 -15.396 -24.486  0.00  0.00    -0.002 C 
ATOM     15  C   UNL     1      33.777 -14.463 -22.210  0.00  0.00    +0.104 C 
ATOM     16  C   UNL     1      33.547 -14.357 -23.531  0.00  0.00    +0.016 C 
ATOM     17  C   UNL     1      33.560 -15.094 -25.916  0.00  0.00    +0.033 C 
ATOM     18  H   UNL     1      35.829 -19.442 -23.951  0.00  0.00    +0.151 HD
ENDROOT
BRANCH  15  19
ATOM     19  N   UNL     1      33.466 -13.511 -21.283  0.00  0.00    -0.298 N 
ATOM     20  N   UNL     1      32.914 -11.671 -22.665  0.00  0.00    -0.233 NA
ATOM     21  N   UNL     1      31.480  -9.930 -21.815  0.00  0.00    -0.234 NA
ATOM     22  C   UNL     1      32.797 -12.297 -21.475  0.00  0.00    +0.113 C 
ATOM     23  C   UNL     1      32.052 -11.808 -20.422  0.00  0.00    +0.121 C 
ATOM     24  C   UNL     1      31.409 -10.608 -20.651  0.00  0.00    +0.107 C 
ATOM     25  C   UNL     1      32.239 -10.509 -22.765  0.00  0.00    +0.252 C 
ATOM     26  H   UNL     1      33.748 -13.704 -20.360  0.00  0.00    +0.153 HD
ATOM     27  N   UNL     1      30.635 -10.072 -19.592  0.00  0.00    -0.346 N 
ATOM     28  H   UNL     1      30.159  -9.218 -19.713  0.00  0.00    +0.143 HD
ATOM     29  H   UNL     1      30.572 -10.553 -18.735  0.00  0.00    +0.143 HD
ENDBRANCH  15  19
TORSDOF 1
ENDMDL
MODEL 3
REMARK VINA RESULT:     -10.5      2.737      5.006
REMARK  Name = 118598754
REMARK  1 active torsions:
REMARK  status: ('A' for Active; 'I' for Inactive)
REMARK    1  A    between atoms: C_15  and  N_19
REMARK                            x       y       z     vdW  Elec       q    Type
REMARK                         _______ _______ _______ _____ _____    ______ ____
ROOT
ATOM      1  O   UNL     1      38.439 -22.169 -16.530  0.00  0.00    -0.269 OA
ATOM      2  O   UNL     1      33.585 -24.794 -14.628  0.00  0.00    -0.268 OA
ATOM      3  N   UNL     1      35.516 -23.748 -15.385  0.00  0.00    -0.238 N 
ATOM      4  N   UNL     1      37.700 -23.470 -14.731  0.00  0.00    -0.288 N 
ATOM      5  C   UNL     1      36.462 -24.107 -14.299  0.00  0.00    +0.124 C 
ATOM      6  C   UNL     1      36.015 -23.518 -12.947  0.00  0.00    +0.038 C 
ATOM      7  C   UNL     1      36.663 -25.633 -14.211  0.00  0.00    +0.038 C 
ATOM      8  C   UNL     1      37.566 -26.039 -13.045  0.00  0.00    +0.003 C 
ATOM      9  C   UNL     1      36.923 -23.942 -11.792  0.00  0.00    +0.003 C 
ATOM     10  C   UNL     1      37.075 -25.459 -11.723  0.00  0.00    +0.000 C 
ATOM     11  C   UNL     1      36.159 -22.980 -16.341  0.00  0.00    +0.105 C 
ATOM     12  C   UNL     1      37.576 -22.789 -15.935  0.00  0.00    +0.260 C 
ATOM     13  C   UNL     1      34.177 -24.112 -15.462  0.00  0.00    +0.267 C 
ATOM     14  C   UNL     1      35.522 -22.523 -17.429  0.00  0.00    -0.002 C 
ATOM     15  C   UNL     1      33.444 -23.609 -16.678  0.00  0.00    +0.104 C 
ATOM     16  C   UNL     1      34.118 -22.867 -17.574  0.00  0.00    +0.016 C 
ATOM     17  C   UNL     1      36.098 -21.688 -18.533  0.00  0.00    +0.033 C 
ATOM     18  H   UNL     1      38.541 -23.517 -14.220  0.00  0.00    +0.151 HD
ENDROOT
BRANCH  15  19
ATOM     19  N   UNL     1      32.127 -23.952 -16.778  0.00  0.00    -0.298 N 
ATOM     20  N   UNL     1      31.165 -22.629 -15.069  0.00  0.00    -0.233 NA
ATOM     21  N   UNL     1      28.828 -22.050 -15.182  0.00  0.00    -0.234 NA
ATOM     22  C   UNL     1      31.015 -23.303 -16.228  0.00  0.00    +0.113 C 
ATOM     23  C   UNL     1      29.821 -23.396 -16.913  0.00  0.00    +0.121 C 
ATOM     24  C   UNL     1      28.750 -22.743 -16.337  0.00  0.00    +0.107 C 
ATOM     25  C   UNL     1      30.047 -22.034 -14.609  0.00  0.00    +0.252 C 
ATOM     26  H   UNL     1      31.934 -24.759 -17.307  0.00  0.00    +0.153 HD
ATOM     27  N   UNL     1      27.505 -22.817 -17.008  0.00  0.00    -0.346 N 
ATOM     28  H   UNL     1      26.715 -22.365 -16.633  0.00  0.00    +0.143 HD
ATOM     29  H   UNL     1      27.429 -23.318 -17.852  0.00  0.00    +0.143 HD
ENDBRANCH  15  19
TORSDOF 1
ENDMDL
MODEL 4
REMARK VINA RESULT:     -10.5      2.757      6.549
REMARK  Name = 118598754
REMARK  1 active torsions:
REMARK  status: ('A' for Active; 'I' for Inactive)
REMARK    1  A    between atoms: C_15  and  N_19
REMARK                            x       y       z     vdW  Elec       q    Type
REMARK                         _______ _______ _______ _____ _____    ______ ____
ROOT
ATOM      1  O   UNL     1      32.360 -21.629 -19.581  0.00  0.00    -0.269 OA
ATOM      2  O   UNL     1      34.244 -24.019 -14.600  0.00  0.00    -0.268 OA
ATOM      3  N   UNL     1      33.496 -23.069 -16.584  0.00  0.00    -0.238 N 
ATOM      4  N   UNL     1      31.507 -22.644 -17.653  0.00  0.00    -0.288 N 
ATOM      5  C   UNL     1      32.028 -23.232 -16.424  0.00  0.00    +0.124 C 
ATOM      6  C   UNL     1      31.633 -24.719 -16.348  0.00  0.00    +0.038 C 
ATOM      7  C   UNL     1      31.505 -22.445 -15.207  0.00  0.00    +0.038 C 
ATOM      8  C   UNL     1      30.010 -22.663 -14.966  0.00  0.00    +0.003 C 
ATOM      9  C   UNL     1      30.138 -24.918 -16.097  0.00  0.00    +0.003 C 
ATOM     10  C   UNL     1      29.664 -24.145 -14.870  0.00  0.00    +0.000 C 
ATOM     11  C   UNL     1      33.777 -22.448 -17.789  0.00  0.00    +0.105 C 
ATOM     12  C   UNL     1      32.501 -22.165 -18.497  0.00  0.00    +0.260 C 
ATOM     13  C   UNL     1      34.469 -23.469 -15.677  0.00  0.00    +0.267 C 
ATOM     14  C   UNL     1      35.034 -22.185 -18.174  0.00  0.00    -0.002 C 
ATOM     15  C   UNL     1      35.889 -23.182 -16.091  0.00  0.00    +0.104 C 
ATOM     16  C   UNL     1      36.104 -22.577 -17.272  0.00  0.00    +0.016 C 
ATOM     17  C   UNL     1      35.473 -21.522 -19.445  0.00  0.00    +0.033 C 
ATOM     18  H   UNL     1      30.547 -22.592 -17.865  0.00  0.00    +0.151 HD
ENDROOT
BRANCH  15  19
ATOM     19  N   UNL     1      36.866 -23.565 -15.218  0.00  0.00    -0.298 N 
ATOM     20  N   UNL     1      36.722 -25.923 -15.357  0.00  0.00    -0.233 NA
ATOM     21  N   UNL     1      38.634 -27.270 -14.777  0.00  0.00    -0.234 NA
ATOM     22  C   UNL     1      37.455 -24.826 -15.073  0.00  0.00    +0.113 C 
ATOM     23  C   UNL     1      38.764 -24.870 -14.640  0.00  0.00    +0.121 C 
ATOM     24  C   UNL     1      39.308 -26.132 -14.509  0.00  0.00    +0.107 C 
ATOM     25  C   UNL     1      37.365 -27.095 -15.191  0.00  0.00    +0.252 C 
ATOM     26  H   UNL     1      37.200 -22.863 -14.614  0.00  0.00    +0.153 HD
ATOM     27  N   UNL     1      40.650 -26.220 -14.064  0.00  0.00    -0.346 N 
ATOM     28  H   UNL     1      41.077 -27.100 -13.957  0.00  0.00    +0.143 HD
ATOM     29  H   UNL     1      41.157 -25.400 -13.864  0.00  0.00    +0.143 HD
ENDBRANCH  15  19
TORSDOF 1
ENDMDL
MODEL 5
REMARK VINA RESULT:     -10.0     12.074     15.655
REMARK  Name = 118598754
REMARK  1 active torsions:
REMARK  status: ('A' for Active; 'I' for Inactive)
REMARK    1  A    between atoms: C_15  and  N_19
REMARK                            x       y       z     vdW  Elec       q    Type
REMARK                         _______ _______ _______ _____ _____    ______ ____
ROOT
ATOM      1  O   UNL     1      32.174  -6.940 -19.015  0.00  0.00    -0.269 OA
ATOM      2  O   UNL     1      32.190 -10.210 -23.850  0.00  0.00    -0.268 OA
ATOM      3  N   UNL     1      32.185  -8.910 -21.925  0.00  0.00    -0.238 N 
ATOM      4  N   UNL     1      32.357  -6.696 -21.335  0.00  0.00    -0.288 N 
ATOM      5  C   UNL     1      32.355  -7.556 -22.512  0.00  0.00    +0.124 C 
ATOM      6  C   UNL     1      33.701  -7.431 -23.253  0.00  0.00    +0.038 C 
ATOM      7  C   UNL     1      31.170  -7.188 -23.427  0.00  0.00    +0.038 C 
ATOM      8  C   UNL     1      31.359  -5.834 -24.114  0.00  0.00    +0.003 C 
ATOM      9  C   UNL     1      33.867  -6.076 -23.942  0.00  0.00    +0.003 C 
ATOM     10  C   UNL     1      32.688  -5.760 -24.857  0.00  0.00    +0.000 C 
ATOM     11  C   UNL     1      32.099  -8.821 -20.546  0.00  0.00    +0.105 C 
ATOM     12  C   UNL     1      32.208  -7.394 -20.144  0.00  0.00    +0.260 C 
ATOM     13  C   UNL     1      32.118 -10.107 -22.627  0.00  0.00    +0.267 C 
ATOM     14  C   UNL     1      31.943  -9.908 -19.775  0.00  0.00    -0.002 C 
ATOM     15  C   UNL     1      31.943 -11.339 -21.779  0.00  0.00    +0.104 C 
ATOM     16  C   UNL     1      31.865 -11.196 -20.444  0.00  0.00    +0.016 C 
ATOM     17  C   UNL     1      31.836  -9.951 -18.281  0.00  0.00    +0.033 C 
ATOM     18  H   UNL     1      32.454  -5.717 -21.379  0.00  0.00    +0.151 HD
ENDROOT
BRANCH  15  19
ATOM     19  N   UNL     1      31.875 -12.529 -22.443  0.00  0.00    -0.298 N 
ATOM     20  N   UNL     1      33.561 -12.251 -24.080  0.00  0.00    -0.233 NA
ATOM     21  N   UNL     1      34.599 -14.192 -25.062  0.00  0.00    -0.234 NA
ATOM     22  C   UNL     1      32.802 -13.082 -23.334  0.00  0.00    +0.113 C 
ATOM     23  C   UNL     1      32.882 -14.457 -23.396  0.00  0.00    +0.121 C 
ATOM     24  C   UNL     1      33.808 -14.962 -24.287  0.00  0.00    +0.107 C 
ATOM     25  C   UNL     1      34.426 -12.865 -24.910  0.00  0.00    +0.252 C 
ATOM     26  H   UNL     1      31.070 -13.070 -22.272  0.00  0.00    +0.153 HD
ATOM     27  N   UNL     1      33.920 -16.371 -24.382  0.00  0.00    -0.346 N 
ATOM     28  H   UNL     1      34.568 -16.773 -25.005  0.00  0.00    +0.143 HD
ATOM     29  H   UNL     1      33.350 -16.949 -23.824  0.00  0.00    +0.143 HD
ENDBRANCH  15  19
TORSDOF 1
ENDMDL
MODEL 6
REMARK VINA RESULT:      -9.9     10.484     14.636
REMARK  Name = 118598754
REMARK  1 active torsions:
REMARK  status: ('A' for Active; 'I' for Inactive)
REMARK    1  A    between atoms: C_15  and  N_19
REMARK                            x       y       z     vdW  Elec       q    Type
REMARK                         _______ _______ _______ _____ _____    ______ ____
ROOT
ATOM      1  O   UNL     1      31.510  -9.143 -19.522  0.00  0.00    -0.269 OA
ATOM      2  O   UNL     1      33.486 -10.828 -24.749  0.00  0.00    -0.268 OA
ATOM      3  N   UNL     1      32.701 -10.159 -22.668  0.00  0.00    -0.238 N 
ATOM      4  N   UNL     1      32.146  -8.216 -21.574  0.00  0.00    -0.288 N 
ATOM      5  C   UNL     1      32.639  -8.688 -22.863  0.00  0.00    +0.124 C 
ATOM      6  C   UNL     1      34.036  -8.098 -23.136  0.00  0.00    +0.038 C 
ATOM      7  C   UNL     1      31.639  -8.311 -23.974  0.00  0.00    +0.038 C 
ATOM      8  C   UNL     1      31.617  -6.807 -24.257  0.00  0.00    +0.003 C 
ATOM      9  C   UNL     1      33.993  -6.597 -23.426  0.00  0.00    +0.003 C 
ATOM     10  C   UNL     1      33.013  -6.268 -24.548  0.00  0.00    +0.000 C 
ATOM     11  C   UNL     1      32.283 -10.486 -21.389  0.00  0.00    +0.105 C 
ATOM     12  C   UNL     1      31.919  -9.241 -20.664  0.00  0.00    +0.260 C 
ATOM     13  C   UNL     1      33.113 -11.095 -23.608  0.00  0.00    +0.267 C 
ATOM     14  C   UNL     1      32.247 -11.756 -20.960  0.00  0.00    -0.002 C 
ATOM     15  C   UNL     1      33.080 -12.528 -23.144  0.00  0.00    +0.104 C 
ATOM     16  C   UNL     1      32.665 -12.789 -21.892  0.00  0.00    +0.016 C 
ATOM     17  C   UNL     1      31.818 -12.244 -19.609  0.00  0.00    +0.033 C 
ATOM     18  H   UNL     1      31.989  -7.266 -21.368  0.00  0.00    +0.151 HD
ENDROOT
BRANCH  15  19
ATOM     19  N   UNL     1      33.480 -13.468 -24.048  0.00  0.00    -0.298 N 
ATOM     20  N   UNL     1      34.811 -14.884 -22.697  0.00  0.00    -0.233 NA
ATOM     21  N   UNL     1      35.161 -17.175 -23.356  0.00  0.00    -0.234 NA
ATOM     22  C   UNL     1      34.055 -14.721 -23.803  0.00  0.00    +0.113 C 
ATOM     23  C   UNL     1      33.811 -15.723 -24.720  0.00  0.00    +0.121 C 
ATOM     24  C   UNL     1      34.396 -16.942 -24.442  0.00  0.00    +0.107 C 
ATOM     25  C   UNL     1      35.325 -16.118 -22.537  0.00  0.00    +0.252 C 
ATOM     26  H   UNL     1      33.347 -13.236 -24.996  0.00  0.00    +0.153 HD
ATOM     27  N   UNL     1      34.171 -17.996 -25.360  0.00  0.00    -0.346 N 
ATOM     28  H   UNL     1      34.569 -18.883 -25.200  0.00  0.00    +0.143 HD
ATOM     29  H   UNL     1      33.615 -17.844 -26.159  0.00  0.00    +0.143 HD
ENDBRANCH  15  19
TORSDOF 1
ENDMDL
