MODEL 1
REMARK VINA RESULT:     -12.2      0.000      0.000
REMARK  Name = 5288527
REMARK  4 active torsions:
REMARK  status: ('A' for Active; 'I' for Inactive)
REMARK    1  A    between atoms: N_1  and  C_18
REMARK    2  A    between atoms: C_4  and  C_11
REMARK    3  A    between atoms: C_19  and  S_24
REMARK    4  A    between atoms: S_24  and  N_27
REMARK                            x       y       z     vdW  Elec       q    Type
REMARK                         _______ _______ _______ _____ _____    ______ ____
ROOT
ATOM      1  N   UNL     1      32.576 -24.478 -13.316  0.00  0.00    -0.247 N 
ATOM      2  N   UNL     1      34.375 -23.653 -14.574  0.00  0.00    -0.336 NA
ATOM      3  N   UNL     1      34.739 -24.704 -12.437  0.00  0.00    -0.170 NA
ATOM      4  C   UNL     1      35.708 -23.472 -14.665  0.00  0.00    +0.161 C 
ATOM      5  C   UNL     1      33.965 -24.268 -13.449  0.00  0.00    +0.149 C 
ATOM      6  C   UNL     1      36.609 -23.870 -13.702  0.00  0.00    +0.056 C 
ATOM      7  C   UNL     1      36.061 -24.488 -12.597  0.00  0.00    +0.114 C 
ATOM      8  H   UNL     1      32.321 -24.930 -12.479  0.00  0.00    +0.165 HD
ENDROOT
BRANCH   4  11
ATOM      9  N   UNL     1      35.388 -22.674 -17.009  0.00  0.00    -0.246 N 
ATOM     10  N   UNL     1      37.353 -21.690 -17.430  0.00  0.00    -0.227 NA
ATOM     11  C   UNL     1      36.143 -22.811 -15.872  0.00  0.00    +0.107 C 
ATOM     12  C   UNL     1      36.171 -21.982 -17.931  0.00  0.00    +0.139 C 
ATOM     13  C   UNL     1      37.342 -22.200 -16.156  0.00  0.00    +0.118 C 
ATOM     14  C   UNL     1      34.092 -23.109 -17.271  0.00  0.00    +0.071 C 
ATOM     15  C   UNL     1      35.588 -21.719 -19.205  0.00  0.00    +0.035 C 
ATOM     16  C   UNL     1      33.551 -22.857 -18.473  0.00  0.00    +0.017 C 
ATOM     17  C   UNL     1      34.334 -22.137 -19.465  0.00  0.00    +0.004 C 
ENDBRANCH   4  11
BRANCH   1  18
ATOM     18  C   UNL     1      31.482 -24.169 -14.146  0.00  0.00    +0.058 C 
ATOM     19  C   UNL     1      29.312 -23.554 -15.793  0.00  0.00    +0.122 C 
ATOM     20  C   UNL     1      30.610 -25.177 -14.561  0.00  0.00    +0.017 C 
ATOM     21  C   UNL     1      31.265 -22.852 -14.557  0.00  0.00    +0.017 C 
ATOM     22  C   UNL     1      29.526 -24.870 -15.384  0.00  0.00    +0.021 C 
ATOM     23  C   UNL     1      30.182 -22.545 -15.379  0.00  0.00    +0.021 C 
BRANCH  19  24
ATOM     24  S   UNL     1      27.956 -23.169 -16.823  0.00  0.00    +0.057 S 
ATOM     25  O   UNL     1      28.277 -21.961 -17.571  0.00  0.00    -0.153 OA
ATOM     26  O   UNL     1      27.557 -24.375 -17.533  0.00  0.00    -0.153 OA
BRANCH  24  27
ATOM     27  N   UNL     1      26.759 -22.795 -15.661  0.00  0.00    -0.203 NA
ATOM     28  H   UNL     1      25.838 -22.843 -16.095  0.00  0.00    +0.144 HD
ATOM     29  H   UNL     1      26.918 -21.854 -15.301  0.00  0.00    +0.144 HD
ENDBRANCH  24  27
ENDBRANCH  19  24
ENDBRANCH   1  18
TORSDOF 4
ENDMDL
MODEL 2
REMARK VINA RESULT:     -11.7     12.988     15.209
REMARK  Name = 5288527
REMARK  4 active torsions:
REMARK  status: ('A' for Active; 'I' for Inactive)
REMARK    1  A    between atoms: N_1  and  C_18
REMARK    2  A    between atoms: C_4  and  C_11
REMARK    3  A    between atoms: C_19  and  S_24
REMARK    4  A    between atoms: S_24  and  N_27
REMARK                            x       y       z     vdW  Elec       q    Type
REMARK                         _______ _______ _______ _____ _____    ______ ____
ROOT
ATOM      1  N   UNL     1      32.548 -12.749 -21.037  0.00  0.00    -0.247 N 
ATOM      2  N   UNL     1      32.252 -10.549 -21.797  0.00  0.00    -0.336 NA
ATOM      3  N   UNL     1      31.987 -11.099 -19.466  0.00  0.00    -0.170 NA
ATOM      4  C   UNL     1      31.961  -9.270 -21.485  0.00  0.00    +0.161 C 
ATOM      5  C   UNL     1      32.247 -11.399 -20.753  0.00  0.00    +0.149 C 
ATOM      6  C   UNL     1      31.677  -8.832 -20.211  0.00  0.00    +0.056 C 
ATOM      7  C   UNL     1      31.705  -9.801 -19.230  0.00  0.00    +0.114 C 
ATOM      8  H   UNL     1      32.534 -13.334 -20.245  0.00  0.00    +0.165 HD
ENDROOT
BRANCH   4  11
ATOM      9  N   UNL     1      33.089  -7.799 -23.158  0.00  0.00    -0.246 N 
ATOM     10  N   UNL     1      31.350  -7.031 -24.338  0.00  0.00    -0.227 NA
ATOM     11  C   UNL     1      31.966  -8.363 -22.608  0.00  0.00    +0.107 C 
ATOM     12  C   UNL     1      32.660  -6.994 -24.211  0.00  0.00    +0.139 C 
ATOM     13  C   UNL     1      30.915  -7.876 -23.349  0.00  0.00    +0.118 C 
ATOM     14  C   UNL     1      34.425  -7.949 -22.796  0.00  0.00    +0.071 C 
ATOM     15  C   UNL     1      33.666  -6.296 -24.942  0.00  0.00    +0.035 C 
ATOM     16  C   UNL     1      35.366  -7.288 -23.490  0.00  0.00    +0.017 C 
ATOM     17  C   UNL     1      34.961  -6.436 -24.597  0.00  0.00    +0.004 C 
ENDBRANCH   4  11
BRANCH   1  18
ATOM     18  C   UNL     1      32.866 -13.423 -22.232  0.00  0.00    +0.058 C 
ATOM     19  C   UNL     1      33.497 -14.761 -24.600  0.00  0.00    +0.122 C 
ATOM     20  C   UNL     1      32.387 -12.946 -23.454  0.00  0.00    +0.017 C 
ATOM     21  C   UNL     1      33.662 -14.570 -22.198  0.00  0.00    +0.017 C 
ATOM     22  C   UNL     1      32.702 -13.614 -24.637  0.00  0.00    +0.021 C 
ATOM     23  C   UNL     1      33.976 -15.238 -23.381  0.00  0.00    +0.021 C 
BRANCH  19  24
ATOM     24  S   UNL     1      33.891 -15.598 -26.081  0.00  0.00    +0.057 S 
ATOM     25  O   UNL     1      34.018 -14.612 -27.145  0.00  0.00    -0.153 OA
ATOM     26  O   UNL     1      34.985 -16.520 -25.814  0.00  0.00    -0.153 OA
BRANCH  24  27
ATOM     27  N   UNL     1      32.462 -16.502 -26.334  0.00  0.00    -0.203 NA
ATOM     28  H   UNL     1      31.723 -15.883 -26.665  0.00  0.00    +0.144 HD
ATOM     29  H   UNL     1      32.175 -16.937 -25.457  0.00  0.00    +0.144 HD
ENDBRANCH  24  27
ENDBRANCH  19  24
ENDBRANCH   1  18
TORSDOF 4
ENDMDL
MODEL 3
REMARK VINA RESULT:     -11.6      4.308      6.738
REMARK  Name = 5288527
REMARK  4 active torsions:
REMARK  status: ('A' for Active; 'I' for Inactive)
REMARK    1  A    between atoms: N_1  and  C_18
REMARK    2  A    between atoms: C_4  and  C_11
REMARK    3  A    between atoms: C_19  and  S_24
REMARK    4  A    between atoms: S_24  and  N_27
REMARK                            x       y       z     vdW  Elec       q    Type
REMARK                         _______ _______ _______ _____ _____    ______ ____
ROOT
ATOM      1  N   UNL     1      32.676 -22.212 -18.663  0.00  0.00    -0.247 N 
ATOM      2  N   UNL     1      34.212 -22.895 -17.026  0.00  0.00    -0.336 NA
ATOM      3  N   UNL     1      31.905 -23.582 -16.923  0.00  0.00    -0.170 NA
ATOM      4  C   UNL     1      34.428 -23.595 -15.895  0.00  0.00    +0.161 C 
ATOM      5  C   UNL     1      32.944 -22.932 -17.479  0.00  0.00    +0.149 C 
ATOM      6  C   UNL     1      33.453 -24.303 -15.227  0.00  0.00    +0.056 C 
ATOM      7  C   UNL     1      32.196 -24.260 -15.793  0.00  0.00    +0.114 C 
ATOM      8  H   UNL     1      31.738 -22.267 -18.957  0.00  0.00    +0.165 HD
ENDROOT
BRANCH   4  11
ATOM      9  N   UNL     1      36.564 -24.652 -15.150  0.00  0.00    -0.246 N 
ATOM     10  N   UNL     1      37.823 -22.862 -14.686  0.00  0.00    -0.227 NA
ATOM     11  C   UNL     1      35.788 -23.552 -15.413  0.00  0.00    +0.107 C 
ATOM     12  C   UNL     1      37.797 -24.178 -14.709  0.00  0.00    +0.139 C 
ATOM     13  C   UNL     1      36.583 -22.469 -15.121  0.00  0.00    +0.118 C 
ATOM     14  C   UNL     1      36.257 -26.004 -15.273  0.00  0.00    +0.071 C 
ATOM     15  C   UNL     1      38.781 -25.153 -14.371  0.00  0.00    +0.035 C 
ATOM     16  C   UNL     1      37.188 -26.916 -14.952  0.00  0.00    +0.017 C 
ATOM     17  C   UNL     1      38.490 -26.464 -14.487  0.00  0.00    +0.004 C 
ENDBRANCH   4  11
BRANCH   1  18
ATOM     18  C   UNL     1      33.488 -21.431 -19.508  0.00  0.00    +0.058 C 
ATOM     19  C   UNL     1      35.097 -19.882 -21.183  0.00  0.00    +0.122 C 
ATOM     20  C   UNL     1      34.871 -21.622 -19.523  0.00  0.00    +0.017 C 
ATOM     21  C   UNL     1      32.912 -20.463 -20.334  0.00  0.00    +0.017 C 
ATOM     22  C   UNL     1      35.675 -20.848 -20.360  0.00  0.00    +0.021 C 
ATOM     23  C   UNL     1      33.716 -19.689 -21.170  0.00  0.00    +0.021 C 
BRANCH  19  24
ATOM     24  S   UNL     1      36.103 -18.912 -22.231  0.00  0.00    +0.057 S 
ATOM     25  O   UNL     1      37.475 -18.988 -21.748  0.00  0.00    -0.153 OA
ATOM     26  O   UNL     1      35.802 -19.258 -23.612  0.00  0.00    -0.153 OA
BRANCH  24  27
ATOM     27  N   UNL     1      35.492 -17.348 -21.913  0.00  0.00    -0.203 NA
ATOM     28  H   UNL     1      36.210 -16.655 -22.119  0.00  0.00    +0.144 HD
ATOM     29  H   UNL     1      35.225 -17.280 -20.930  0.00  0.00    +0.144 HD
ENDBRANCH  24  27
ENDBRANCH  19  24
ENDBRANCH   1  18
TORSDOF 4
ENDMDL
MODEL 4
REMARK VINA RESULT:     -11.5      4.929      6.968
REMARK  Name = 5288527
REMARK  4 active torsions:
REMARK  status: ('A' for Active; 'I' for Inactive)
REMARK    1  A    between atoms: N_1  and  C_18
REMARK    2  A    between atoms: C_4  and  C_11
REMARK    3  A    between atoms: C_19  and  S_24
REMARK    4  A    between atoms: S_24  and  N_27
REMARK                            x       y       z     vdW  Elec       q    Type
REMARK                         _______ _______ _______ _____ _____    ______ ____
ROOT
ATOM      1  N   UNL     1      34.744 -24.991 -13.254  0.00  0.00    -0.247 N 
ATOM      2  N   UNL     1      33.905 -23.941 -15.177  0.00  0.00    -0.336 NA
ATOM      3  N   UNL     1      32.464 -24.443 -13.312  0.00  0.00    -0.170 NA
ATOM      4  C   UNL     1      32.836 -23.414 -15.807  0.00  0.00    +0.161 C 
ATOM      5  C   UNL     1      33.650 -24.431 -13.949  0.00  0.00    +0.149 C 
ATOM      6  C   UNL     1      31.569 -23.365 -15.269  0.00  0.00    +0.056 C 
ATOM      7  C   UNL     1      31.441 -23.900 -14.004  0.00  0.00    +0.114 C 
ATOM      8  H   UNL     1      34.512 -25.336 -12.362  0.00  0.00    +0.165 HD
ENDROOT
BRANCH   4  11
ATOM      9  N   UNL     1      34.354 -22.523 -17.579  0.00  0.00    -0.246 N 
ATOM     10  N   UNL     1      32.926 -22.147 -19.259  0.00  0.00    -0.227 NA
ATOM     11  C   UNL     1      33.113 -22.891 -17.124  0.00  0.00    +0.107 C 
ATOM     12  C   UNL     1      34.187 -22.076 -18.887  0.00  0.00    +0.139 C 
ATOM     13  C   UNL     1      32.257 -22.652 -18.172  0.00  0.00    +0.118 C 
ATOM     14  C   UNL     1      35.583 -22.558 -16.927  0.00  0.00    +0.071 C 
ATOM     15  C   UNL     1      35.356 -21.635 -19.574  0.00  0.00    +0.035 C 
ATOM     16  C   UNL     1      36.680 -22.141 -17.580  0.00  0.00    +0.017 C 
ATOM     17  C   UNL     1      36.549 -21.666 -18.949  0.00  0.00    +0.004 C 
ENDBRANCH   4  11
BRANCH   1  18
ATOM     18  C   UNL     1      36.102 -25.152 -13.587  0.00  0.00    +0.058 C 
ATOM     19  C   UNL     1      38.797 -25.472 -14.248  0.00  0.00    +0.122 C 
ATOM     20  C   UNL     1      37.093 -24.590 -12.779  0.00  0.00    +0.017 C 
ATOM     21  C   UNL     1      36.463 -25.874 -14.727  0.00  0.00    +0.017 C 
ATOM     22  C   UNL     1      38.439 -24.750 -13.109  0.00  0.00    +0.021 C 
ATOM     23  C   UNL     1      37.808 -26.033 -15.057  0.00  0.00    +0.021 C 
BRANCH  19  24
ATOM     24  S   UNL     1      40.481 -25.671 -14.663  0.00  0.00    +0.057 S 
ATOM     25  O   UNL     1      41.175 -24.424 -14.375  0.00  0.00    -0.153 OA
ATOM     26  O   UNL     1      40.957 -26.916 -14.078  0.00  0.00    -0.153 OA
BRANCH  24  27
ATOM     27  N   UNL     1      40.379 -25.866 -16.358  0.00  0.00    -0.203 NA
ATOM     28  H   UNL     1      41.275 -25.629 -16.781  0.00  0.00    +0.144 HD
ATOM     29  H   UNL     1      39.653 -25.251 -16.728  0.00  0.00    +0.144 HD
ENDBRANCH  24  27
ENDBRANCH  19  24
ENDBRANCH   1  18
TORSDOF 4
ENDMDL
MODEL 5
REMARK VINA RESULT:     -11.3      9.449     12.588
REMARK  Name = 5288527
REMARK  4 active torsions:
REMARK  status: ('A' for Active; 'I' for Inactive)
REMARK    1  A    between atoms: N_1  and  C_18
REMARK    2  A    between atoms: C_4  and  C_11
REMARK    3  A    between atoms: C_19  and  S_24
REMARK    4  A    between atoms: S_24  and  N_27
REMARK                            x       y       z     vdW  Elec       q    Type
REMARK                         _______ _______ _______ _____ _____    ______ ____
ROOT
ATOM      1  N   UNL     1      34.752 -16.912 -25.200  0.00  0.00    -0.247 N 
ATOM      2  N   UNL     1      33.752 -15.080 -24.129  0.00  0.00    -0.336 NA
ATOM      3  N   UNL     1      34.081 -15.089 -26.516  0.00  0.00    -0.170 NA
ATOM      4  C   UNL     1      33.198 -13.857 -24.252  0.00  0.00    +0.161 C 
ATOM      5  C   UNL     1      34.166 -15.630 -25.285  0.00  0.00    +0.149 C 
ATOM      6  C   UNL     1      33.050 -13.193 -25.449  0.00  0.00    +0.056 C 
ATOM      7  C   UNL     1      33.515 -13.865 -26.561  0.00  0.00    +0.114 C 
ATOM      8  H   UNL     1      35.040 -17.275 -26.069  0.00  0.00    +0.165 HD
ENDROOT
BRANCH   4  11
ATOM      9  N   UNL     1      32.616 -11.926 -22.779  0.00  0.00    -0.246 N 
ATOM     10  N   UNL     1      32.031 -12.956 -20.882  0.00  0.00    -0.227 NA
ATOM     11  C   UNL     1      32.756 -13.271 -23.009  0.00  0.00    +0.107 C 
ATOM     12  C   UNL     1      32.172 -11.785 -21.467  0.00  0.00    +0.139 C 
ATOM     13  C   UNL     1      32.391 -13.879 -21.831  0.00  0.00    +0.118 C 
ATOM     14  C   UNL     1      32.851 -10.852 -23.633  0.00  0.00    +0.071 C 
ATOM     15  C   UNL     1      31.953 -10.456 -20.998  0.00  0.00    +0.035 C 
ATOM     16  C   UNL     1      32.643  -9.604 -23.184  0.00  0.00    +0.017 C 
ATOM     17  C   UNL     1      32.179  -9.412 -21.818  0.00  0.00    +0.004 C 
ENDBRANCH   4  11
BRANCH   1  18
ATOM     18  C   UNL     1      35.005 -17.773 -24.116  0.00  0.00    +0.058 C 
ATOM     19  C   UNL     1      35.506 -19.483 -21.965  0.00  0.00    +0.122 C 
ATOM     20  C   UNL     1      35.703 -17.308 -22.999  0.00  0.00    +0.017 C 
ATOM     21  C   UNL     1      34.558 -19.096 -24.153  0.00  0.00    +0.017 C 
ATOM     22  C   UNL     1      35.953 -18.162 -21.925  0.00  0.00    +0.021 C 
ATOM     23  C   UNL     1      34.809 -19.950 -23.080  0.00  0.00    +0.021 C 
BRANCH  19  24
ATOM     24  S   UNL     1      35.820 -20.553 -20.622  0.00  0.00    +0.057 S 
ATOM     25  O   UNL     1      36.076 -21.886 -21.147  0.00  0.00    -0.153 OA
ATOM     26  O   UNL     1      36.796 -19.921 -19.745  0.00  0.00    -0.153 OA
BRANCH  24  27
ATOM     27  N   UNL     1      34.300 -20.550 -19.840  0.00  0.00    -0.203 NA
ATOM     28  H   UNL     1      33.561 -20.640 -20.536  0.00  0.00    +0.144 HD
ATOM     29  H   UNL     1      34.182 -19.674 -19.329  0.00  0.00    +0.144 HD
ENDBRANCH  24  27
ENDBRANCH  19  24
ENDBRANCH   1  18
TORSDOF 4
ENDMDL
MODEL 6
REMARK VINA RESULT:     -10.7     13.290     15.529
REMARK  Name = 5288527
REMARK  4 active torsions:
REMARK  status: ('A' for Active; 'I' for Inactive)
REMARK    1  A    between atoms: N_1  and  C_18
REMARK    2  A    between atoms: C_4  and  C_11
REMARK    3  A    between atoms: C_19  and  S_24
REMARK    4  A    between atoms: S_24  and  N_27
REMARK                            x       y       z     vdW  Elec       q    Type
REMARK                         _______ _______ _______ _____ _____    ______ ____
ROOT
ATOM      1  N   UNL     1      32.062 -12.338 -21.180  0.00  0.00    -0.247 N 
ATOM      2  N   UNL     1      32.692 -10.211 -21.945  0.00  0.00    -0.336 NA
ATOM      3  N   UNL     1      31.539 -10.480 -19.846  0.00  0.00    -0.170 NA
ATOM      4  C   UNL     1      32.709  -8.883 -21.718  0.00  0.00    +0.161 C 
ATOM      5  C   UNL     1      32.100 -10.941 -20.981  0.00  0.00    +0.149 C 
ATOM      6  C   UNL     1      32.172  -8.283 -20.601  0.00  0.00    +0.056 C 
ATOM      7  C   UNL     1      31.593  -9.141 -19.688  0.00  0.00    +0.114 C 
ATOM      8  H   UNL     1      31.620 -12.830 -20.451  0.00  0.00    +0.165 HD
ENDROOT
BRANCH   4  11
ATOM      9  N   UNL     1      32.780  -7.026 -23.387  0.00  0.00    -0.246 N 
ATOM     10  N   UNL     1      34.812  -7.294 -24.283  0.00  0.00    -0.227 NA
ATOM     11  C   UNL     1      33.344  -8.105 -22.755  0.00  0.00    +0.107 C 
ATOM     12  C   UNL     1      33.715  -6.566 -24.311  0.00  0.00    +0.139 C 
ATOM     13  C   UNL     1      34.589  -8.247 -23.322  0.00  0.00    +0.118 C 
ATOM     14  C   UNL     1      31.529  -6.444 -23.201  0.00  0.00    +0.071 C 
ATOM     15  C   UNL     1      33.345  -5.435 -25.097  0.00  0.00    +0.035 C 
ATOM     16  C   UNL     1      31.188  -5.380 -23.945  0.00  0.00    +0.017 C 
ATOM     17  C   UNL     1      32.135  -4.868 -24.922  0.00  0.00    +0.004 C 
ENDBRANCH   4  11
BRANCH   1  18
ATOM     18  C   UNL     1      32.534 -13.165 -22.217  0.00  0.00    +0.058 C 
ATOM     19  C   UNL     1      33.470 -14.808 -24.272  0.00  0.00    +0.122 C 
ATOM     20  C   UNL     1      32.272 -12.838 -23.549  0.00  0.00    +0.017 C 
ATOM     21  C   UNL     1      33.265 -14.317 -21.916  0.00  0.00    +0.017 C 
ATOM     22  C   UNL     1      32.740 -13.658 -24.575  0.00  0.00    +0.021 C 
ATOM     23  C   UNL     1      33.732 -15.137 -22.942  0.00  0.00    +0.021 C 
BRANCH  19  24
ATOM     24  S   UNL     1      34.054 -15.835 -25.557  0.00  0.00    +0.057 S 
ATOM     25  O   UNL     1      33.174 -16.991 -25.656  0.00  0.00    -0.153 OA
ATOM     26  O   UNL     1      34.302 -15.012 -26.731  0.00  0.00    -0.153 OA
BRANCH  24  27
ATOM     27  N   UNL     1      35.556 -16.339 -24.914  0.00  0.00    -0.203 NA
ATOM     28  H   UNL     1      35.792 -15.760 -24.109  0.00  0.00    +0.144 HD
ATOM     29  H   UNL     1      36.280 -16.244 -25.626  0.00  0.00    +0.144 HD
ENDBRANCH  24  27
ENDBRANCH  19  24
ENDBRANCH   1  18
TORSDOF 4
ENDMDL
MODEL 7
REMARK VINA RESULT:     -10.6     14.013     16.218
REMARK  Name = 5288527
REMARK  4 active torsions:
REMARK  status: ('A' for Active; 'I' for Inactive)
REMARK    1  A    between atoms: N_1  and  C_18
REMARK    2  A    between atoms: C_4  and  C_11
REMARK    3  A    between atoms: C_19  and  S_24
REMARK    4  A    between atoms: S_24  and  N_27
REMARK                            x       y       z     vdW  Elec       q    Type
REMARK                         _______ _______ _______ _____ _____    ______ ____
ROOT
ATOM      1  N   UNL     1      32.314 -11.698 -21.622  0.00  0.00    -0.247 N 
ATOM      2  N   UNL     1      32.954  -9.567 -22.364  0.00  0.00    -0.336 NA
ATOM      3  N   UNL     1      31.930  -9.869 -20.204  0.00  0.00    -0.170 NA
ATOM      4  C   UNL     1      33.023  -8.247 -22.100  0.00  0.00    +0.161 C 
ATOM      5  C   UNL     1      32.404 -10.309 -21.385  0.00  0.00    +0.149 C 
ATOM      6  C   UNL     1      32.575  -7.668 -20.934  0.00  0.00    +0.056 C 
ATOM      7  C   UNL     1      32.032  -8.537 -20.010  0.00  0.00    +0.114 C 
ATOM      8  H   UNL     1      31.906 -12.201 -20.880  0.00  0.00    +0.165 HD
ENDROOT
BRANCH   4  11
ATOM      9  N   UNL     1      32.968  -6.460 -23.845  0.00  0.00    -0.246 N 
ATOM     10  N   UNL     1      35.042  -6.570 -24.677  0.00  0.00    -0.227 NA
ATOM     11  C   UNL     1      33.612  -7.454 -23.153  0.00  0.00    +0.107 C 
ATOM     12  C   UNL     1      33.883  -5.951 -24.764  0.00  0.00    +0.139 C 
ATOM     13  C   UNL     1      34.881  -7.501 -23.682  0.00  0.00    +0.118 C 
ATOM     14  C   UNL     1      31.663  -5.993 -23.716  0.00  0.00    +0.071 C 
ATOM     15  C   UNL     1      33.431  -4.893 -25.606  0.00  0.00    +0.035 C 
ATOM     16  C   UNL     1      31.246  -4.997 -24.513  0.00  0.00    +0.017 C 
ATOM     17  C   UNL     1      32.170  -4.437 -25.487  0.00  0.00    +0.004 C 
ENDBRANCH   4  11
BRANCH   1  18
ATOM     18  C   UNL     1      32.695 -12.506 -22.710  0.00  0.00    +0.058 C 
ATOM     19  C   UNL     1      33.450 -14.109 -24.868  0.00  0.00    +0.122 C 
ATOM     20  C   UNL     1      33.057 -11.920 -23.925  0.00  0.00    +0.017 C 
ATOM     21  C   UNL     1      32.712 -13.896 -22.578  0.00  0.00    +0.017 C 
ATOM     22  C   UNL     1      33.434 -12.720 -25.002  0.00  0.00    +0.021 C 
ATOM     23  C   UNL     1      33.088 -14.696 -23.656  0.00  0.00    +0.021 C 
BRANCH  19  24
ATOM     24  S   UNL     1      33.921 -15.112 -26.218  0.00  0.00    +0.057 S 
ATOM     25  O   UNL     1      34.121 -14.255 -27.378  0.00  0.00    -0.153 OA
ATOM     26  O   UNL     1      34.988 -16.001 -25.783  0.00  0.00    -0.153 OA
BRANCH  24  27
ATOM     27  N   UNL     1      32.501 -16.033 -26.451  0.00  0.00    -0.203 NA
ATOM     28  H   UNL     1      31.715 -15.565 -26.001  0.00  0.00    +0.144 HD
ATOM     29  H   UNL     1      32.625 -16.959 -26.042  0.00  0.00    +0.144 HD
ENDBRANCH  24  27
ENDBRANCH  19  24
ENDBRANCH   1  18
TORSDOF 4
ENDMDL
MODEL 8
REMARK VINA RESULT:     -10.2      1.723      2.640
REMARK  Name = 5288527
REMARK  4 active torsions:
REMARK  status: ('A' for Active; 'I' for Inactive)
REMARK    1  A    between atoms: N_1  and  C_18
REMARK    2  A    between atoms: C_4  and  C_11
REMARK    3  A    between atoms: C_19  and  S_24
REMARK    4  A    between atoms: S_24  and  N_27
REMARK                            x       y       z     vdW  Elec       q    Type
REMARK                         _______ _______ _______ _____ _____    ______ ____
ROOT
ATOM      1  N   UNL     1      34.426 -23.830 -14.797  0.00  0.00    -0.247 N 
ATOM      2  N   UNL     1      35.421 -22.708 -16.600  0.00  0.00    -0.336 NA
ATOM      3  N   UNL     1      36.769 -23.788 -14.920  0.00  0.00    -0.170 NA
ATOM      4  C   UNL     1      36.561 -22.337 -17.217  0.00  0.00    +0.161 C 
ATOM      5  C   UNL     1      35.596 -23.421 -15.473  0.00  0.00    +0.149 C 
ATOM      6  C   UNL     1      37.822 -22.646 -16.758  0.00  0.00    +0.056 C 
ATOM      7  C   UNL     1      37.866 -23.382 -15.592  0.00  0.00    +0.114 C 
ATOM      8  H   UNL     1      34.602 -24.348 -13.978  0.00  0.00    +0.165 HD
ENDROOT
BRANCH   4  11
ATOM      9  N   UNL     1      35.169 -21.408 -19.070  0.00  0.00    -0.246 N 
ATOM     10  N   UNL     1      36.687 -20.273 -20.258  0.00  0.00    -0.227 NA
ATOM     11  C   UNL     1      36.368 -21.572 -18.426  0.00  0.00    +0.107 C 
ATOM     12  C   UNL     1      35.415 -20.608 -20.183  0.00  0.00    +0.139 C 
ATOM     13  C   UNL     1      37.281 -20.866 -19.174  0.00  0.00    +0.118 C 
ATOM     14  C   UNL     1      33.911 -21.908 -18.743  0.00  0.00    +0.071 C 
ATOM     15  C   UNL     1      34.301 -20.298 -21.017  0.00  0.00    +0.035 C 
ATOM     16  C   UNL     1      32.867 -21.612 -19.534  0.00  0.00    +0.017 C 
ATOM     17  C   UNL     1      33.081 -20.779 -20.707  0.00  0.00    +0.004 C 
ENDBRANCH   4  11
BRANCH   1  18
ATOM     18  C   UNL     1      33.057 -23.642 -15.064  0.00  0.00    +0.058 C 
ATOM     19  C   UNL     1      30.340 -23.268 -15.592  0.00  0.00    +0.122 C 
ATOM     20  C   UNL     1      32.594 -23.635 -16.381  0.00  0.00    +0.017 C 
ATOM     21  C   UNL     1      32.157 -23.461 -14.011  0.00  0.00    +0.017 C 
ATOM     22  C   UNL     1      31.238 -23.449 -16.645  0.00  0.00    +0.021 C 
ATOM     23  C   UNL     1      30.800 -23.274 -14.275  0.00  0.00    +0.021 C 
BRANCH  19  24
ATOM     24  S   UNL     1      28.642 -23.034 -15.921  0.00  0.00    +0.057 S 
ATOM     25  O   UNL     1      27.947 -24.286 -15.660  0.00  0.00    -0.153 OA
ATOM     26  O   UNL     1      28.206 -21.813 -15.259  0.00  0.00    -0.153 OA
BRANCH  24  27
ATOM     27  N   UNL     1      28.672 -22.761 -17.609  0.00  0.00    -0.203 NA
ATOM     28  H   UNL     1      29.296 -21.982 -17.815  0.00  0.00    +0.144 HD
ATOM     29  H   UNL     1      27.730 -22.539 -17.934  0.00  0.00    +0.144 HD
ENDBRANCH  24  27
ENDBRANCH  19  24
ENDBRANCH   1  18
TORSDOF 4
ENDMDL
MODEL 9
REMARK VINA RESULT:     -10.0     10.542     13.399
REMARK  Name = 5288527
REMARK  4 active torsions:
REMARK  status: ('A' for Active; 'I' for Inactive)
REMARK    1  A    between atoms: N_1  and  C_18
REMARK    2  A    between atoms: C_4  and  C_11
REMARK    3  A    between atoms: C_19  and  S_24
REMARK    4  A    between atoms: S_24  and  N_27
REMARK                            x       y       z     vdW  Elec       q    Type
REMARK                         _______ _______ _______ _____ _____    ______ ____
ROOT
ATOM      1  N   UNL     1      32.950 -11.796 -24.730  0.00  0.00    -0.247 N 
ATOM      2  N   UNL     1      33.730 -13.804 -23.802  0.00  0.00    -0.336 NA
ATOM      3  N   UNL     1      33.457 -13.566 -26.184  0.00  0.00    -0.170 NA
ATOM      4  C   UNL     1      34.157 -15.064 -24.019  0.00  0.00    +0.161 C 
ATOM      5  C   UNL     1      33.401 -13.121 -24.914  0.00  0.00    +0.149 C 
ATOM      6  C   UNL     1      34.261 -15.640 -25.265  0.00  0.00    +0.056 C 
ATOM      7  C   UNL     1      33.894 -14.835 -26.324  0.00  0.00    +0.114 C 
ATOM      8  H   UNL     1      32.721 -11.335 -25.569  0.00  0.00    +0.165 HD
ENDROOT
BRANCH   4  11
ATOM      9  N   UNL     1      34.781 -17.137 -22.773  0.00  0.00    -0.246 N 
ATOM     10  N   UNL     1      34.992 -16.368 -20.683  0.00  0.00    -0.227 NA
ATOM     11  C   UNL     1      34.508 -15.794 -22.823  0.00  0.00    +0.107 C 
ATOM     12  C   UNL     1      35.071 -17.440 -21.445  0.00  0.00    +0.139 C 
ATOM     13  C   UNL     1      34.644 -15.347 -21.530  0.00  0.00    +0.118 C 
ATOM     14  C   UNL     1      34.790 -18.079 -23.798  0.00  0.00    +0.071 C 
ATOM     15  C   UNL     1      35.391 -18.797 -21.146  0.00  0.00    +0.035 C 
ATOM     16  C   UNL     1      35.091 -19.354 -23.509  0.00  0.00    +0.017 C 
ATOM     17  C   UNL     1      35.400 -19.713 -22.133  0.00  0.00    +0.004 C 
ENDBRANCH   4  11
BRANCH   1  18
ATOM     18  C   UNL     1      32.763 -11.004 -23.581  0.00  0.00    +0.058 C 
ATOM     19  C   UNL     1      32.394  -9.433 -21.302  0.00  0.00    +0.122 C 
ATOM     20  C   UNL     1      32.077 -11.518 -22.479  0.00  0.00    +0.017 C 
ATOM     21  C   UNL     1      33.265  -9.702 -23.539  0.00  0.00    +0.017 C 
ATOM     22  C   UNL     1      31.892 -10.734 -21.341  0.00  0.00    +0.021 C 
ATOM     23  C   UNL     1      33.081  -8.917 -22.402  0.00  0.00    +0.021 C 
BRANCH  19  24
ATOM     24  S   UNL     1      32.163  -8.449 -19.878  0.00  0.00    +0.057 S 
ATOM     25  O   UNL     1      31.051  -7.541 -20.123  0.00  0.00    -0.153 OA
ATOM     26  O   UNL     1      32.141  -9.321 -18.712  0.00  0.00    -0.153 OA
BRANCH  24  27
ATOM     27  N   UNL     1      33.616  -7.550 -19.863  0.00  0.00    -0.203 NA
ATOM     28  H   UNL     1      33.888  -7.361 -18.899  0.00  0.00    +0.144 HD
ATOM     29  H   UNL     1      33.475  -6.668 -20.357  0.00  0.00    +0.144 HD
ENDBRANCH  24  27
ENDBRANCH  19  24
ENDBRANCH   1  18
TORSDOF 4
ENDMDL
