MODEL 1
REMARK VINA RESULT:     -12.5      0.000      0.000
REMARK  Name = 24748573
REMARK  3 active torsions:
REMARK  status: ('A' for Active; 'I' for Inactive)
REMARK    1  A    between atoms: N_2  and  C_18
REMARK    2  A    between atoms: C_13  and  C_25
REMARK    3  A    between atoms: C_25  and  O_26
REMARK                            x       y       z     vdW  Elec       q    Type
REMARK                         _______ _______ _______ _____ _____    ______ ____
ROOT
ATOM      1  N   UNL     1      35.208 -23.422 -16.355  0.00  0.00    -0.391 NA
ATOM      2  N   UNL     1      33.807 -22.734 -18.109  0.00  0.00    -0.288 N 
ATOM      3  N   UNL     1      30.556 -23.752 -14.384  0.00  0.00    -0.243 NA
ATOM      4  C   UNL     1      34.325 -24.080 -14.203  0.00  0.00    +0.098 C 
ATOM      5  C   UNL     1      32.996 -23.827 -14.676  0.00  0.00    +0.011 C 
ATOM      6  C   UNL     1      32.813 -23.372 -15.994  0.00  0.00    +0.044 C 
ATOM      7  C   UNL     1      35.396 -23.856 -15.100  0.00  0.00    +0.119 C 
ATOM      8  C   UNL     1      33.946 -23.192 -16.775  0.00  0.00    +0.183 C 
ATOM      9  C   UNL     1      34.630 -24.539 -12.898  0.00  0.00    -0.015 C 
ATOM     10  C   UNL     1      36.700 -24.093 -14.672  0.00  0.00    +0.035 C 
ATOM     11  C   UNL     1      31.529 -23.114 -16.492  0.00  0.00    +0.024 C 
ATOM     12  C   UNL     1      31.811 -23.992 -13.933  0.00  0.00    +0.095 C 
ATOM     13  C   UNL     1      36.981 -24.545 -13.384  0.00  0.00    +0.077 C 
ATOM     14  C   UNL     1      35.943 -24.769 -12.494  0.00  0.00    +0.003 C 
ATOM     15  C   UNL     1      30.448 -23.319 -15.655  0.00  0.00    +0.099 C 
ATOM     16  H   UNL     1      32.962 -23.006 -18.537  0.00  0.00    +0.155 HD
ENDROOT
BRANCH   2  18
ATOM     17 CL   UNL     1      34.241 -19.542 -22.094  0.00  0.00    -0.082 Cl
ATOM     18  C   UNL     1      34.640 -21.968 -18.939  0.00  0.00    +0.051 C 
ATOM     19  C   UNL     1      34.090 -21.224 -19.984  0.00  0.00    +0.026 C 
ATOM     20  C   UNL     1      36.017 -21.948 -18.718  0.00  0.00    +0.015 C 
ATOM     21  C   UNL     1      34.918 -20.460 -20.806  0.00  0.00    +0.059 C 
ATOM     22  C   UNL     1      36.844 -21.183 -19.541  0.00  0.00    +0.002 C 
ATOM     23  C   UNL     1      36.294 -20.439 -20.584  0.00  0.00    +0.011 C 
ENDBRANCH   2  18
BRANCH  13  25
ATOM     24  O   UNL     1      39.097 -23.945 -12.444  0.00  0.00    -0.245 OA
ATOM     25  C   UNL     1      38.357 -24.778 -12.976  0.00  0.00    +0.338 C 
BRANCH  25  26
ATOM     26  O   UNL     1      38.771 -26.048 -13.242  0.00  0.00    -0.477 OA
ATOM     27  H   UNL     1      39.652 -26.205 -13.520  0.00  0.00    +0.295 HD
ENDBRANCH  25  26
ENDBRANCH  13  25
TORSDOF 3
ENDMDL
MODEL 2
REMARK VINA RESULT:     -11.3      3.472      6.218
REMARK  Name = 24748573
REMARK  3 active torsions:
REMARK  status: ('A' for Active; 'I' for Inactive)
REMARK    1  A    between atoms: N_2  and  C_18
REMARK    2  A    between atoms: C_13  and  C_25
REMARK    3  A    between atoms: C_25  and  O_26
REMARK                            x       y       z     vdW  Elec       q    Type
REMARK                         _______ _______ _______ _____ _____    ______ ____
ROOT
ATOM      1  N   UNL     1      35.188 -23.247 -15.938  0.00  0.00    -0.391 NA
ATOM      2  N   UNL     1      35.115 -24.264 -13.822  0.00  0.00    -0.288 N 
ATOM      3  N   UNL     1      30.266 -24.201 -15.227  0.00  0.00    -0.243 NA
ATOM      4  C   UNL     1      33.187 -22.877 -17.243  0.00  0.00    +0.098 C 
ATOM      5  C   UNL     1      32.403 -23.471 -16.201  0.00  0.00    +0.011 C 
ATOM      6  C   UNL     1      33.047 -23.941 -15.042  0.00  0.00    +0.044 C 
ATOM      7  C   UNL     1      34.585 -22.795 -17.048  0.00  0.00    +0.119 C 
ATOM      8  C   UNL     1      34.425 -23.802 -14.972  0.00  0.00    +0.183 C 
ATOM      9  C   UNL     1      32.649 -22.370 -18.451  0.00  0.00    -0.015 C 
ATOM     10  C   UNL     1      35.377 -22.223 -18.041  0.00  0.00    +0.035 C 
ATOM     11  C   UNL     1      32.313 -24.528 -14.002  0.00  0.00    +0.024 C 
ATOM     12  C   UNL     1      31.005 -23.639 -16.215  0.00  0.00    +0.095 C 
ATOM     13  C   UNL     1      34.830 -21.728 -19.224  0.00  0.00    +0.077 C 
ATOM     14  C   UNL     1      33.462 -21.802 -19.430  0.00  0.00    +0.003 C 
ATOM     15  C   UNL     1      30.942 -24.631 -14.144  0.00  0.00    +0.099 C 
ATOM     16  H   UNL     1      34.581 -24.222 -12.996  0.00  0.00    +0.155 HD
ENDROOT
BRANCH   2  18
ATOM     17 CL   UNL     1      39.901 -24.742 -15.587  0.00  0.00    -0.082 Cl
ATOM     18  C   UNL     1      36.410 -24.767 -13.634  0.00  0.00    +0.051 C 
ATOM     19  C   UNL     1      37.396 -24.534 -14.593  0.00  0.00    +0.026 C 
ATOM     20  C   UNL     1      36.715 -25.499 -12.485  0.00  0.00    +0.015 C 
ATOM     21  C   UNL     1      38.685 -25.031 -14.404  0.00  0.00    +0.059 C 
ATOM     22  C   UNL     1      38.004 -25.996 -12.297  0.00  0.00    +0.002 C 
ATOM     23  C   UNL     1      38.989 -25.762 -13.256  0.00  0.00    +0.011 C 
ENDBRANCH   2  18
BRANCH  13  25
ATOM     24  O   UNL     1      35.307 -20.490 -21.214  0.00  0.00    -0.245 OA
ATOM     25  C   UNL     1      35.691 -21.140 -20.236  0.00  0.00    +0.338 C 
BRANCH  25  26
ATOM     26  O   UNL     1      37.011 -21.378 -20.000  0.00  0.00    -0.477 OA
ATOM     27  H   UNL     1      37.612 -21.436 -20.716  0.00  0.00    +0.295 HD
ENDBRANCH  25  26
ENDBRANCH  13  25
TORSDOF 3
ENDMDL
MODEL 3
REMARK VINA RESULT:     -11.2      4.266      7.251
REMARK  Name = 24748573
REMARK  3 active torsions:
REMARK  status: ('A' for Active; 'I' for Inactive)
REMARK    1  A    between atoms: N_2  and  C_18
REMARK    2  A    between atoms: C_13  and  C_25
REMARK    3  A    between atoms: C_25  and  O_26
REMARK                            x       y       z     vdW  Elec       q    Type
REMARK                         _______ _______ _______ _____ _____    ______ ____
ROOT
ATOM      1  N   UNL     1      33.758 -22.754 -17.906  0.00  0.00    -0.391 NA
ATOM      2  N   UNL     1      33.111 -24.091 -16.087  0.00  0.00    -0.288 N 
ATOM      3  N   UNL     1      37.984 -23.166 -15.147  0.00  0.00    -0.243 NA
ATOM      4  C   UNL     1      36.014 -21.913 -18.130  0.00  0.00    +0.098 C 
ATOM      5  C   UNL     1      36.374 -22.567 -16.906  0.00  0.00    +0.011 C 
ATOM      6  C   UNL     1      35.399 -23.304 -16.210  0.00  0.00    +0.044 C 
ATOM      7  C   UNL     1      34.680 -22.047 -18.579  0.00  0.00    +0.119 C 
ATOM      8  C   UNL     1      34.124 -23.359 -16.756  0.00  0.00    +0.183 C 
ATOM      9  C   UNL     1      36.910 -21.146 -18.914  0.00  0.00    -0.015 C 
ATOM     10  C   UNL     1      34.297 -21.426 -19.765  0.00  0.00    +0.035 C 
ATOM     11  C   UNL     1      35.713 -23.956 -15.011  0.00  0.00    +0.024 C 
ATOM     12  C   UNL     1      37.647 -22.547 -16.305  0.00  0.00    +0.095 C 
ATOM     13  C   UNL     1      35.192 -20.674 -20.524  0.00  0.00    +0.077 C 
ATOM     14  C   UNL     1      36.502 -20.533 -20.097  0.00  0.00    +0.003 C 
ATOM     15  C   UNL     1      37.005 -23.856 -14.530  0.00  0.00    +0.099 C 
ATOM     16  H   UNL     1      33.450 -24.857 -15.570  0.00  0.00    +0.155 HD
ENDROOT
BRANCH   2  18
ATOM     17 CL   UNL     1      28.599 -25.897 -14.464  0.00  0.00    -0.082 Cl
ATOM     18  C   UNL     1      31.718 -23.935 -16.020  0.00  0.00    +0.051 C 
ATOM     19  C   UNL     1      30.941 -24.884 -15.355  0.00  0.00    +0.026 C 
ATOM     20  C   UNL     1      31.110 -22.828 -16.614  0.00  0.00    +0.015 C 
ATOM     21  C   UNL     1      29.557 -24.727 -15.285  0.00  0.00    +0.059 C 
ATOM     22  C   UNL     1      29.726 -22.672 -16.543  0.00  0.00    +0.002 C 
ATOM     23  C   UNL     1      28.950 -23.621 -15.878  0.00  0.00    +0.011 C 
ENDBRANCH   2  18
BRANCH  13  25
ATOM     24  O   UNL     1      35.489 -19.685 -22.681  0.00  0.00    -0.245 OA
ATOM     25  C   UNL     1      34.752 -20.040 -21.756  0.00  0.00    +0.338 C 
BRANCH  25  26
ATOM     26  O   UNL     1      33.402 -19.869 -21.800  0.00  0.00    -0.477 OA
ATOM     27  H   UNL     1      32.900 -19.902 -21.009  0.00  0.00    +0.295 HD
ENDBRANCH  25  26
ENDBRANCH  13  25
TORSDOF 3
ENDMDL
MODEL 4
REMARK VINA RESULT:     -11.1      3.348      6.256
REMARK  Name = 24748573
REMARK  3 active torsions:
REMARK  status: ('A' for Active; 'I' for Inactive)
REMARK    1  A    between atoms: N_2  and  C_18
REMARK    2  A    between atoms: C_13  and  C_25
REMARK    3  A    between atoms: C_25  and  O_26
REMARK                            x       y       z     vdW  Elec       q    Type
REMARK                         _______ _______ _______ _____ _____    ______ ____
ROOT
ATOM      1  N   UNL     1      34.063 -23.695 -15.859  0.00  0.00    -0.391 NA
ATOM      2  N   UNL     1      32.849 -24.860 -14.221  0.00  0.00    -0.288 N 
ATOM      3  N   UNL     1      37.143 -23.687 -11.840  0.00  0.00    -0.243 NA
ATOM      4  C   UNL     1      36.269 -22.809 -15.420  0.00  0.00    +0.098 C 
ATOM      5  C   UNL     1      36.204 -23.322 -14.083  0.00  0.00    +0.011 C 
ATOM      6  C   UNL     1      35.052 -24.016 -13.671  0.00  0.00    +0.044 C 
ATOM      7  C   UNL     1      35.157 -23.031 -16.264  0.00  0.00    +0.119 C 
ATOM      8  C   UNL     1      34.028 -24.168 -14.595  0.00  0.00    +0.183 C 
ATOM      9  C   UNL     1      37.375 -22.097 -15.944  0.00  0.00    -0.015 C 
ATOM     10  C   UNL     1      35.188 -22.547 -17.569  0.00  0.00    +0.035 C 
ATOM     11  C   UNL     1      34.952 -24.532 -12.372  0.00  0.00    +0.024 C 
ATOM     12  C   UNL     1      37.208 -23.201 -13.103  0.00  0.00    +0.095 C 
ATOM     13  C   UNL     1      36.285 -21.847 -18.068  0.00  0.00    +0.077 C 
ATOM     14  C   UNL     1      37.382 -21.621 -17.254  0.00  0.00    +0.003 C 
ATOM     15  C   UNL     1      36.014 -24.342 -11.508  0.00  0.00    +0.099 C 
ATOM     16  H   UNL     1      32.997 -25.558 -13.543  0.00  0.00    +0.155 HD
ENDROOT
BRANCH   2  18
ATOM     17 CL   UNL     1      29.317 -22.260 -16.870  0.00  0.00    -0.082 Cl
ATOM     18  C   UNL     1      31.512 -24.743 -14.631  0.00  0.00    +0.051 C 
ATOM     19  C   UNL     1      31.124 -23.681 -15.449  0.00  0.00    +0.026 C 
ATOM     20  C   UNL     1      30.572 -25.690 -14.223  0.00  0.00    +0.015 C 
ATOM     21  C   UNL     1      29.796 -23.568 -15.860  0.00  0.00    +0.059 C 
ATOM     22  C   UNL     1      29.244 -25.575 -14.634  0.00  0.00    +0.002 C 
ATOM     23  C   UNL     1      28.856 -24.514 -15.453  0.00  0.00    +0.011 C 
ENDBRANCH   2  18
BRANCH  13  25
ATOM     24  O   UNL     1      36.858 -20.342 -19.837  0.00  0.00    -0.245 OA
ATOM     25  C   UNL     1      36.277 -21.357 -19.437  0.00  0.00    +0.338 C 
BRANCH  25  26
ATOM     26  O   UNL     1      35.545 -22.147 -20.269  0.00  0.00    -0.477 OA
ATOM     27  H   UNL     1      35.958 -22.853 -20.727  0.00  0.00    +0.295 HD
ENDBRANCH  25  26
ENDBRANCH  13  25
TORSDOF 3
ENDMDL
MODEL 5
REMARK VINA RESULT:     -10.9     12.811     15.654
REMARK  Name = 24748573
REMARK  3 active torsions:
REMARK  status: ('A' for Active; 'I' for Inactive)
REMARK    1  A    between atoms: N_2  and  C_18
REMARK    2  A    between atoms: C_13  and  C_25
REMARK    3  A    between atoms: C_25  and  O_26
REMARK                            x       y       z     vdW  Elec       q    Type
REMARK                         _______ _______ _______ _____ _____    ______ ____
ROOT
ATOM      1  N   UNL     1      32.805  -9.823 -23.545  0.00  0.00    -0.391 NA
ATOM      2  N   UNL     1      32.567  -7.551 -23.000  0.00  0.00    -0.288 N 
ATOM      3  N   UNL     1      31.603  -9.881 -18.627  0.00  0.00    -0.243 NA
ATOM      4  C   UNL     1      32.483 -11.567 -21.903  0.00  0.00    +0.098 C 
ATOM      5  C   UNL     1      32.194 -10.574 -20.911  0.00  0.00    +0.011 C 
ATOM      6  C   UNL     1      32.221  -9.215 -21.274  0.00  0.00    +0.044 C 
ATOM      7  C   UNL     1      32.783 -11.122 -23.211  0.00  0.00    +0.119 C 
ATOM      8  C   UNL     1      32.529  -8.908 -22.592  0.00  0.00    +0.183 C 
ATOM      9  C   UNL     1      32.486 -12.962 -21.653  0.00  0.00    -0.015 C 
ATOM     10  C   UNL     1      33.067 -12.062 -24.199  0.00  0.00    +0.035 C 
ATOM     11  C   UNL     1      31.944  -8.215 -20.332  0.00  0.00    +0.024 C 
ATOM     12  C   UNL     1      31.875 -10.823 -19.562  0.00  0.00    +0.095 C 
ATOM     13  C   UNL     1      33.065 -13.430 -23.935  0.00  0.00    +0.077 C 
ATOM     14  C   UNL     1      32.774 -13.882 -22.658  0.00  0.00    +0.003 C 
ATOM     15  C   UNL     1      31.644  -8.599 -19.038  0.00  0.00    +0.099 C 
ATOM     16  H   UNL     1      31.954  -6.968 -22.497  0.00  0.00    +0.155 HD
ENDROOT
BRANCH   2  18
ATOM     17 CL   UNL     1      32.636  -4.201 -26.877  0.00  0.00    -0.082 Cl
ATOM     18  C   UNL     1      33.310  -6.879 -23.983  0.00  0.00    +0.051 C 
ATOM     19  C   UNL     1      32.677  -5.981 -24.843  0.00  0.00    +0.026 C 
ATOM     20  C   UNL     1      34.682  -7.106 -24.097  0.00  0.00    +0.015 C 
ATOM     21  C   UNL     1      33.416  -5.310 -25.817  0.00  0.00    +0.059 C 
ATOM     22  C   UNL     1      35.420  -6.434 -25.072  0.00  0.00    +0.002 C 
ATOM     23  C   UNL     1      34.787  -5.536 -25.931  0.00  0.00    +0.011 C 
ENDBRANCH   2  18
BRANCH  13  25
ATOM     24  O   UNL     1      34.214 -15.278 -24.930  0.00  0.00    -0.245 OA
ATOM     25  C   UNL     1      33.369 -14.378 -24.994  0.00  0.00    +0.338 C 
BRANCH  25  26
ATOM     26  O   UNL     1      32.608 -14.180 -26.105  0.00  0.00    -0.477 OA
ATOM     27  H   UNL     1      31.766 -14.585 -26.175  0.00  0.00    +0.295 HD
ENDBRANCH  25  26
ENDBRANCH  13  25
TORSDOF 3
ENDMDL
MODEL 6
REMARK VINA RESULT:     -10.9      3.736      6.616
REMARK  Name = 24748573
REMARK  3 active torsions:
REMARK  status: ('A' for Active; 'I' for Inactive)
REMARK    1  A    between atoms: N_2  and  C_18
REMARK    2  A    between atoms: C_13  and  C_25
REMARK    3  A    between atoms: C_25  and  O_26
REMARK                            x       y       z     vdW  Elec       q    Type
REMARK                         _______ _______ _______ _____ _____    ______ ____
ROOT
ATOM      1  N   UNL     1      34.575 -24.048 -15.627  0.00  0.00    -0.391 NA
ATOM      2  N   UNL     1      36.861 -23.717 -16.054  0.00  0.00    -0.288 N 
ATOM      3  N   UNL     1      34.620 -21.166 -19.790  0.00  0.00    -0.243 NA
ATOM      4  C   UNL     1      32.864 -23.094 -17.043  0.00  0.00    +0.098 C 
ATOM      5  C   UNL     1      33.879 -22.508 -17.868  0.00  0.00    +0.011 C 
ATOM      6  C   UNL     1      35.231 -22.714 -17.540  0.00  0.00    +0.044 C 
ATOM      7  C   UNL     1      33.282 -23.859 -15.930  0.00  0.00    +0.119 C 
ATOM      8  C   UNL     1      35.511 -23.485 -16.421  0.00  0.00    +0.183 C 
ATOM      9  C   UNL     1      31.473 -22.955 -17.275  0.00  0.00    -0.015 C 
ATOM     10  C   UNL     1      32.321 -24.443 -15.109  0.00  0.00    +0.035 C 
ATOM     11  C   UNL     1      36.252 -22.156 -18.322  0.00  0.00    +0.024 C 
ATOM     12  C   UNL     1      33.657 -21.718 -19.013  0.00  0.00    +0.095 C 
ATOM     13  C   UNL     1      30.956 -24.296 -15.353  0.00  0.00    +0.077 C 
ATOM     14  C   UNL     1      30.531 -23.549 -16.439  0.00  0.00    +0.003 C 
ATOM     15  C   UNL     1      35.895 -21.401 -19.423  0.00  0.00    +0.099 C 
ATOM     16  H   UNL     1      37.483 -23.726 -16.817  0.00  0.00    +0.155 HD
ENDROOT
BRANCH   2  18
ATOM     17 CL   UNL     1      37.026 -22.724 -11.030  0.00  0.00    -0.082 Cl
ATOM     18  C   UNL     1      37.481 -23.936 -14.815  0.00  0.00    +0.051 C 
ATOM     19  C   UNL     1      37.003 -23.294 -13.672  0.00  0.00    +0.026 C 
ATOM     20  C   UNL     1      38.573 -24.799 -14.724  0.00  0.00    +0.015 C 
ATOM     21  C   UNL     1      37.616 -23.515 -12.439  0.00  0.00    +0.059 C 
ATOM     22  C   UNL     1      39.186 -25.020 -13.491  0.00  0.00    +0.002 C 
ATOM     23  C   UNL     1      38.708 -24.378 -12.349  0.00  0.00    +0.011 C 
ENDBRANCH   2  18
BRANCH  13  25
ATOM     24  O   UNL     1      28.831 -25.234 -14.782  0.00  0.00    -0.245 OA
ATOM     25  C   UNL     1      29.985 -24.921 -14.470  0.00  0.00    +0.338 C 
BRANCH  25  26
ATOM     26  O   UNL     1      30.482 -25.140 -13.221  0.00  0.00    -0.477 OA
ATOM     27  H   UNL     1      30.894 -25.957 -13.018  0.00  0.00    +0.295 HD
ENDBRANCH  25  26
ENDBRANCH  13  25
TORSDOF 3
ENDMDL
MODEL 7
REMARK VINA RESULT:     -10.5     13.890     16.685
REMARK  Name = 24748573
REMARK  3 active torsions:
REMARK  status: ('A' for Active; 'I' for Inactive)
REMARK    1  A    between atoms: N_2  and  C_18
REMARK    2  A    between atoms: C_13  and  C_25
REMARK    3  A    between atoms: C_25  and  O_26
REMARK                            x       y       z     vdW  Elec       q    Type
REMARK                         _______ _______ _______ _____ _____    ______ ____
ROOT
ATOM      1  N   UNL     1      32.743  -8.630 -23.548  0.00  0.00    -0.391 NA
ATOM      2  N   UNL     1      32.669  -6.284 -23.601  0.00  0.00    -0.288 N 
ATOM      3  N   UNL     1      31.527  -7.355 -18.802  0.00  0.00    -0.243 NA
ATOM      4  C   UNL     1      32.292  -9.874 -21.525  0.00  0.00    +0.098 C 
ATOM      5  C   UNL     1      32.073  -8.643 -20.823  0.00  0.00    +0.011 C 
ATOM      6  C   UNL     1      32.198  -7.427 -21.517  0.00  0.00    +0.044 C 
ATOM      7  C   UNL     1      32.626  -9.797 -22.897  0.00  0.00    +0.119 C 
ATOM      8  C   UNL     1      32.531  -7.487 -22.863  0.00  0.00    +0.183 C 
ATOM      9  C   UNL     1      32.193 -11.156 -20.931  0.00  0.00    -0.015 C 
ATOM     10  C   UNL     1      32.844 -10.974 -23.609  0.00  0.00    +0.035 C 
ATOM     11  C   UNL     1      31.992  -6.204 -20.865  0.00  0.00    +0.024 C 
ATOM     12  C   UNL     1      31.733  -8.520 -19.462  0.00  0.00    +0.095 C 
ATOM     13  C   UNL     1      32.743 -12.227 -23.007  0.00  0.00    +0.077 C 
ATOM     14  C   UNL     1      32.417 -12.319 -21.665  0.00  0.00    +0.003 C 
ATOM     15  C   UNL     1      31.662  -6.225 -19.523  0.00  0.00    +0.099 C 
ATOM     16  H   UNL     1      32.098  -5.551 -23.275  0.00  0.00    +0.155 HD
ENDROOT
BRANCH   2  18
ATOM     17 CL   UNL     1      33.021  -3.934 -28.141  0.00  0.00    -0.082 Cl
ATOM     18  C   UNL     1      33.461  -5.936 -24.705  0.00  0.00    +0.051 C 
ATOM     19  C   UNL     1      32.911  -5.197 -25.753  0.00  0.00    +0.026 C 
ATOM     20  C   UNL     1      34.800  -6.326 -24.755  0.00  0.00    +0.015 C 
ATOM     21  C   UNL     1      33.699  -4.847 -26.849  0.00  0.00    +0.059 C 
ATOM     22  C   UNL     1      35.587  -5.977 -25.852  0.00  0.00    +0.002 C 
ATOM     23  C   UNL     1      35.037  -5.237 -26.898  0.00  0.00    +0.011 C 
ENDBRANCH   2  18
BRANCH  13  25
ATOM     24  O   UNL     1      33.046 -13.487 -25.018  0.00  0.00    -0.245 OA
ATOM     25  C   UNL     1      32.981 -13.432 -23.786  0.00  0.00    +0.338 C 
BRANCH  25  26
ATOM     26  O   UNL     1      33.133 -14.536 -23.004  0.00  0.00    -0.477 OA
ATOM     27  H   UNL     1      33.114 -15.390 -23.390  0.00  0.00    +0.295 HD
ENDBRANCH  25  26
ENDBRANCH  13  25
TORSDOF 3
ENDMDL
MODEL 8
REMARK VINA RESULT:     -10.5      8.734     12.390
REMARK  Name = 24748573
REMARK  3 active torsions:
REMARK  status: ('A' for Active; 'I' for Inactive)
REMARK    1  A    between atoms: N_2  and  C_18
REMARK    2  A    between atoms: C_13  and  C_25
REMARK    3  A    between atoms: C_25  and  O_26
REMARK                            x       y       z     vdW  Elec       q    Type
REMARK                         _______ _______ _______ _____ _____    ______ ____
ROOT
ATOM      1  N   UNL     1      34.046 -14.139 -22.658  0.00  0.00    -0.391 NA
ATOM      2  N   UNL     1      33.261 -12.016 -23.283  0.00  0.00    -0.288 N 
ATOM      3  N   UNL     1      33.372 -14.527 -27.662  0.00  0.00    -0.243 NA
ATOM      4  C   UNL     1      34.357 -15.909 -24.275  0.00  0.00    +0.098 C 
ATOM      5  C   UNL     1      33.909 -15.031 -25.315  0.00  0.00    +0.011 C 
ATOM      6  C   UNL     1      33.537 -13.715 -24.988  0.00  0.00    +0.044 C 
ATOM      7  C   UNL     1      34.403 -15.397 -22.958  0.00  0.00    +0.119 C 
ATOM      8  C   UNL     1      33.627 -13.334 -23.657  0.00  0.00    +0.183 C 
ATOM      9  C   UNL     1      34.757 -17.251 -24.486  0.00  0.00    -0.015 C 
ATOM     10  C   UNL     1      34.836 -16.223 -21.924  0.00  0.00    +0.035 C 
ATOM     11  C   UNL     1      33.093 -12.828 -25.978  0.00  0.00    +0.024 C 
ATOM     12  C   UNL     1      33.797 -15.360 -26.680  0.00  0.00    +0.095 C 
ATOM     13  C   UNL     1      35.225 -17.542 -22.149  0.00  0.00    +0.077 C 
ATOM     14  C   UNL     1      35.185 -18.058 -23.434  0.00  0.00    +0.003 C 
ATOM     15  C   UNL     1      33.031 -13.279 -27.283  0.00  0.00    +0.099 C 
ATOM     16  H   UNL     1      33.411 -11.347 -23.990  0.00  0.00    +0.155 HD
ENDROOT
BRANCH   2  18
ATOM     17 CL   UNL     1      31.916  -7.863 -20.601  0.00  0.00    -0.082 Cl
ATOM     18  C   UNL     1      32.728 -11.481 -22.101  0.00  0.00    +0.051 C 
ATOM     19  C   UNL     1      32.604 -10.098 -21.955  0.00  0.00    +0.026 C 
ATOM     20  C   UNL     1      32.318 -12.330 -21.073  0.00  0.00    +0.015 C 
ATOM     21  C   UNL     1      32.070  -9.567 -20.781  0.00  0.00    +0.059 C 
ATOM     22  C   UNL     1      31.785 -11.798 -19.900  0.00  0.00    +0.002 C 
ATOM     23  C   UNL     1      31.660 -10.416 -19.754  0.00  0.00    +0.011 C 
ENDBRANCH   2  18
BRANCH  13  25
ATOM     24  O   UNL     1      36.751 -18.266 -20.455  0.00  0.00    -0.245 OA
ATOM     25  C   UNL     1      35.668 -18.373 -21.041  0.00  0.00    +0.338 C 
BRANCH  25  26
ATOM     26  O   UNL     1      34.747 -19.313 -20.693  0.00  0.00    -0.477 OA
ATOM     27  H   UNL     1      35.026 -20.173 -20.447  0.00  0.00    +0.295 HD
ENDBRANCH  25  26
ENDBRANCH  13  25
TORSDOF 3
ENDMDL
MODEL 9
REMARK VINA RESULT:     -10.3      3.174      4.913
REMARK  Name = 24748573
REMARK  3 active torsions:
REMARK  status: ('A' for Active; 'I' for Inactive)
REMARK    1  A    between atoms: N_2  and  C_18
REMARK    2  A    between atoms: C_13  and  C_25
REMARK    3  A    between atoms: C_25  and  O_26
REMARK                            x       y       z     vdW  Elec       q    Type
REMARK                         _______ _______ _______ _____ _____    ______ ____
ROOT
ATOM      1  N   UNL     1      34.276 -22.800 -16.468  0.00  0.00    -0.391 NA
ATOM      2  N   UNL     1      36.328 -22.052 -17.332  0.00  0.00    -0.288 N 
ATOM      3  N   UNL     1      37.719 -25.415 -13.833  0.00  0.00    -0.243 NA
ATOM      4  C   UNL     1      34.161 -24.460 -14.715  0.00  0.00    +0.098 C 
ATOM      5  C   UNL     1      35.593 -24.528 -14.692  0.00  0.00    +0.011 C 
ATOM      6  C   UNL     1      36.331 -23.718 -15.573  0.00  0.00    +0.044 C 
ATOM      7  C   UNL     1      33.560 -23.568 -15.633  0.00  0.00    +0.119 C 
ATOM      8  C   UNL     1      35.622 -22.885 -16.427  0.00  0.00    +0.183 C 
ATOM      9  C   UNL     1      33.316 -25.226 -13.875  0.00  0.00    -0.015 C 
ATOM     10  C   UNL     1      32.171 -23.476 -15.680  0.00  0.00    +0.035 C 
ATOM     11  C   UNL     1      37.732 -23.759 -15.581  0.00  0.00    +0.024 C 
ATOM     12  C   UNL     1      36.365 -25.352 -13.851  0.00  0.00    +0.095 C 
ATOM     13  C   UNL     1      31.355 -24.239 -14.846  0.00  0.00    +0.077 C 
ATOM     14  C   UNL     1      31.928 -25.117 -13.941  0.00  0.00    +0.003 C 
ATOM     15  C   UNL     1      38.368 -24.613 -14.700  0.00  0.00    +0.099 C 
ATOM     16  H   UNL     1      37.213 -21.771 -17.005  0.00  0.00    +0.155 HD
ENDROOT
BRANCH   2  18
ATOM     17 CL   UNL     1      37.628 -19.071 -21.291  0.00  0.00    -0.082 Cl
ATOM     18  C   UNL     1      36.008 -21.550 -18.602  0.00  0.00    +0.051 C 
ATOM     19  C   UNL     1      36.874 -20.661 -19.240  0.00  0.00    +0.026 C 
ATOM     20  C   UNL     1      34.824 -21.941 -19.229  0.00  0.00    +0.015 C 
ATOM     21  C   UNL     1      36.558 -20.166 -20.504  0.00  0.00    +0.059 C 
ATOM     22  C   UNL     1      34.509 -21.444 -20.494  0.00  0.00    +0.002 C 
ATOM     23  C   UNL     1      35.376 -20.557 -21.131  0.00  0.00    +0.011 C 
ENDBRANCH   2  18
BRANCH  13  25
ATOM     24  O   UNL     1      29.296 -23.101 -15.283  0.00  0.00    -0.245 OA
ATOM     25  C   UNL     1      29.909 -24.114 -14.928  0.00  0.00    +0.338 C 
BRANCH  25  26
ATOM     26  O   UNL     1      29.266 -25.258 -14.565  0.00  0.00    -0.477 OA
ATOM     27  H   UNL     1      28.672 -25.252 -13.840  0.00  0.00    +0.295 HD
ENDBRANCH  25  26
ENDBRANCH  13  25
TORSDOF 3
ENDMDL
