MODEL 1
REMARK VINA RESULT:     -13.5      0.000      0.000
REMARK  Name = 447736
REMARK  4 active torsions:
REMARK  status: ('A' for Active; 'I' for Inactive)
REMARK    1  A    between atoms: N_2  and  C_13
REMARK    2  A    between atoms: C_3  and  C_20
REMARK    3  A    between atoms: C_6  and  C_17
REMARK    4  A    between atoms: C_28  and  C_32
REMARK                            x       y       z     vdW  Elec       q    Type
REMARK                         _______ _______ _______ _____ _____    ______ ____
ROOT
ATOM      1  O   UNL     1      32.768 -20.956 -20.643  0.00  0.00    -0.270 OA
ATOM      2  N   UNL     1      34.979 -20.201 -20.909  0.00  0.00    -0.280 N 
ATOM      3  C   UNL     1      33.944 -20.921 -20.298  0.00  0.00    +0.249 C 
ATOM      4  H   UNL     1      35.869 -20.288 -20.497  0.00  0.00    +0.155 HD
ENDROOT
BRANCH   2  13
ATOM      5  N   UNL     1      34.384 -14.896 -24.050  0.00  0.00    +0.388 N 
ATOM      6  C   UNL     1      34.769 -15.622 -22.822  0.00  0.00    -0.039 C 
ATOM      7  C   UNL     1      34.780 -17.136 -22.987  0.00  0.00    -0.045 C 
ATOM      8  C   UNL     1      34.786 -17.710 -24.275  0.00  0.00    -0.030 C 
ATOM      9  C   UNL     1      34.717 -16.840 -25.504  0.00  0.00    +0.003 C 
ATOM     10  C   UNL     1      35.122 -15.398 -25.207  0.00  0.00    -0.076 C 
ATOM     11  C   UNL     1      34.865 -17.987 -21.873  0.00  0.00    +0.008 C 
ATOM     12  C   UNL     1      34.812 -19.104 -24.423  0.00  0.00    -0.003 C 
ATOM     13  C   UNL     1      34.903 -19.374 -22.031  0.00  0.00    +0.050 C 
ATOM     14  C   UNL     1      34.870 -19.933 -23.304  0.00  0.00    +0.014 C 
ATOM     15  H   UNL     1      34.588 -13.904 -23.929  0.00  0.00    -0.084 HD
ATOM     16  H   UNL     1      33.387 -15.039 -24.213  0.00  0.00    -0.084 HD
BRANCH   6  17
ATOM     17  C   UNL     1      33.824 -15.139 -21.714  0.00  0.00    -0.015 C 
ATOM     18  C   UNL     1      34.622 -14.539 -20.562  0.00  0.00    -0.002 C 
ATOM     19  C   UNL     1      32.828 -14.127 -22.270  0.00  0.00    -0.002 C 
ENDBRANCH   6  17
ENDBRANCH   2  13
BRANCH   3  20
ATOM     20  C   UNL     1      34.336 -21.695 -19.091  0.00  0.00    +0.054 C 
ATOM     21  C   UNL     1      36.019 -22.322 -17.491  0.00  0.00    +0.000 C 
ATOM     22  C   UNL     1      35.632 -21.596 -18.630  0.00  0.00    +0.005 C 
ATOM     23  C   UNL     1      35.069 -23.143 -16.838  0.00  0.00    +0.000 C 
ATOM     24  C   UNL     1      33.394 -22.486 -18.475  0.00  0.00    +0.005 C 
ATOM     25  C   UNL     1      33.760 -23.214 -17.343  0.00  0.00    +0.000 C 
ATOM     26  C   UNL     1      35.456 -23.869 -15.700  0.00  0.00    +0.003 C 
ATOM     27  C   UNL     1      37.327 -22.251 -16.986  0.00  0.00    +0.000 C 
ATOM     28  C   UNL     1      36.760 -23.786 -15.212  0.00  0.00    +0.031 C 
ATOM     29  C   UNL     1      37.694 -22.978 -15.854  0.00  0.00    +0.003 C 
BRANCH  28  32
ATOM     30  N   UNL     1      36.408 -25.649 -13.608  0.00  0.00    -0.343 N 
ATOM     31  N   UNL     1      38.211 -24.187 -13.339  0.00  0.00    -0.285 NA
ATOM     32  C   UNL     1      37.144 -24.545 -14.032  0.00  0.00    +0.117 C 
ATOM     33  H   UNL     1      36.687 -26.149 -12.807  0.00  0.00    +0.144 HD
ATOM     34  H   UNL     1      35.609 -25.930 -14.110  0.00  0.00    +0.144 HD
ATOM     35  H   UNL     1      38.473 -24.700 -12.540  0.00  0.00    +0.188 HD
ENDBRANCH  28  32
ENDBRANCH   3  20
TORSDOF 4
ENDMDL
MODEL 2
REMARK VINA RESULT:     -13.2      2.245     10.343
REMARK  Name = 447736
REMARK  4 active torsions:
REMARK  status: ('A' for Active; 'I' for Inactive)
REMARK    1  A    between atoms: N_2  and  C_13
REMARK    2  A    between atoms: C_3  and  C_20
REMARK    3  A    between atoms: C_6  and  C_17
REMARK    4  A    between atoms: C_28  and  C_32
REMARK                            x       y       z     vdW  Elec       q    Type
REMARK                         _______ _______ _______ _____ _____    ______ ____
ROOT
ATOM      1  O   UNL     1      33.883 -23.933 -18.137  0.00  0.00    -0.270 OA
ATOM      2  N   UNL     1      34.985 -22.364 -16.778  0.00  0.00    -0.280 N 
ATOM      3  C   UNL     1      34.368 -22.823 -17.949  0.00  0.00    +0.249 C 
ATOM      4  H   UNL     1      35.321 -21.439 -16.801  0.00  0.00    +0.155 HD
ENDROOT
BRANCH   2  13
ATOM      5  N   UNL     1      38.105 -25.599 -12.517  0.00  0.00    +0.388 N 
ATOM      6  C   UNL     1      38.089 -24.629 -13.630  0.00  0.00    -0.039 C 
ATOM      7  C   UNL     1      36.689 -24.189 -14.036  0.00  0.00    -0.045 C 
ATOM      8  C   UNL     1      35.596 -24.417 -13.175  0.00  0.00    -0.030 C 
ATOM      9  C   UNL     1      35.784 -25.153 -11.873  0.00  0.00    +0.003 C 
ATOM     10  C   UNL     1      37.243 -25.155 -11.424  0.00  0.00    -0.076 C 
ATOM     11  C   UNL     1      36.467 -23.482 -15.229  0.00  0.00    +0.008 C 
ATOM     12  C   UNL     1      34.310 -23.998 -13.545  0.00  0.00    -0.003 C 
ATOM     13  C   UNL     1      35.184 -23.058 -15.583  0.00  0.00    +0.050 C 
ATOM     14  C   UNL     1      34.106 -23.321 -14.745  0.00  0.00    +0.014 C 
ATOM     15  H   UNL     1      39.060 -25.694 -12.171  0.00  0.00    -0.084 HD
ATOM     16  H   UNL     1      37.759 -26.495 -12.861  0.00  0.00    -0.084 HD
BRANCH   6  17
ATOM     17  C   UNL     1      38.882 -25.266 -14.778  0.00  0.00    -0.015 C 
ATOM     18  C   UNL     1      40.343 -25.441 -14.381  0.00  0.00    -0.002 C 
ATOM     19  C   UNL     1      38.263 -26.603 -15.171  0.00  0.00    -0.002 C 
ENDBRANCH   6  17
ENDBRANCH   2  13
BRANCH   3  20
ATOM     20  C   UNL     1      34.333 -21.851 -19.072  0.00  0.00    +0.054 C 
ATOM     21  C   UNL     1      35.504 -20.377 -20.570  0.00  0.00    +0.000 C 
ATOM     22  C   UNL     1      35.520 -21.299 -19.509  0.00  0.00    +0.005 C 
ATOM     23  C   UNL     1      34.269 -20.033 -21.170  0.00  0.00    +0.000 C 
ATOM     24  C   UNL     1      33.121 -21.533 -19.638  0.00  0.00    +0.005 C 
ATOM     25  C   UNL     1      33.086 -20.619 -20.692  0.00  0.00    +0.000 C 
ATOM     26  C   UNL     1      34.255 -19.112 -22.229  0.00  0.00    +0.003 C 
ATOM     27  C   UNL     1      36.687 -19.791 -21.048  0.00  0.00    +0.000 C 
ATOM     28  C   UNL     1      35.439 -18.539 -22.692  0.00  0.00    +0.031 C 
ATOM     29  C   UNL     1      36.654 -18.879 -22.102  0.00  0.00    +0.003 C 
BRANCH  28  32
ATOM     30  N   UNL     1      34.898 -17.937 -25.039  0.00  0.00    -0.343 N 
ATOM     31  N   UNL     1      35.868 -16.361 -23.612  0.00  0.00    -0.285 NA
ATOM     32  C   UNL     1      35.407 -17.586 -23.790  0.00  0.00    +0.117 C 
ATOM     33  H   UNL     1      34.885 -17.275 -25.769  0.00  0.00    +0.144 HD
ATOM     34  H   UNL     1      34.552 -18.845 -25.192  0.00  0.00    +0.144 HD
ATOM     35  H   UNL     1      35.847 -15.714 -24.354  0.00  0.00    +0.188 HD
ENDBRANCH  28  32
ENDBRANCH   3  20
TORSDOF 4
ENDMDL
MODEL 3
REMARK VINA RESULT:     -13.2      0.647      1.561
REMARK  Name = 447736
REMARK  4 active torsions:
REMARK  status: ('A' for Active; 'I' for Inactive)
REMARK    1  A    between atoms: N_2  and  C_13
REMARK    2  A    between atoms: C_3  and  C_20
REMARK    3  A    between atoms: C_6  and  C_17
REMARK    4  A    between atoms: C_28  and  C_32
REMARK                            x       y       z     vdW  Elec       q    Type
REMARK                         _______ _______ _______ _____ _____    ______ ____
ROOT
ATOM      1  O   UNL     1      33.427 -21.144 -20.571  0.00  0.00    -0.270 OA
ATOM      2  N   UNL     1      35.439 -19.986 -20.943  0.00  0.00    -0.280 N 
ATOM      3  C   UNL     1      34.587 -20.878 -20.277  0.00  0.00    +0.249 C 
ATOM      4  H   UNL     1      36.345 -19.893 -20.569  0.00  0.00    +0.155 HD
ENDROOT
BRANCH   2  13
ATOM      5  N   UNL     1      34.010 -14.878 -24.140  0.00  0.00    +0.388 N 
ATOM      6  C   UNL     1      34.597 -15.520 -22.947  0.00  0.00    -0.039 C 
ATOM      7  C   UNL     1      34.726 -17.033 -23.068  0.00  0.00    -0.045 C 
ATOM      8  C   UNL     1      34.636 -17.653 -24.331  0.00  0.00    -0.030 C 
ATOM      9  C   UNL     1      34.349 -16.840 -25.568  0.00  0.00    +0.003 C 
ATOM     10  C   UNL     1      34.653 -15.359 -25.361  0.00  0.00    -0.076 C 
ATOM     11  C   UNL     1      35.015 -17.830 -21.949  0.00  0.00    +0.008 C 
ATOM     12  C   UNL     1      34.771 -19.045 -24.442  0.00  0.00    -0.003 C 
ATOM     13  C   UNL     1      35.160 -19.213 -22.071  0.00  0.00    +0.050 C 
ATOM     14  C   UNL     1      35.032 -19.821 -23.315  0.00  0.00    +0.014 C 
ATOM     15  H   UNL     1      34.136 -13.869 -24.072  0.00  0.00    -0.084 HD
ATOM     16  H   UNL     1      33.018 -15.113 -24.181  0.00  0.00    -0.084 HD
BRANCH   6  17
ATOM     17  C   UNL     1      33.745 -15.079 -21.749  0.00  0.00    -0.015 C 
ATOM     18  C   UNL     1      34.636 -14.535 -20.637  0.00  0.00    -0.002 C 
ATOM     19  C   UNL     1      32.721 -14.036 -22.182  0.00  0.00    -0.002 C 
ENDBRANCH   6  17
ENDBRANCH   2  13
BRANCH   3  20
ATOM     20  C   UNL     1      35.169 -21.538 -19.079  0.00  0.00    +0.054 C 
ATOM     21  C   UNL     1      34.880 -22.931 -17.140  0.00  0.00    +0.000 C 
ATOM     22  C   UNL     1      34.346 -22.302 -18.277  0.00  0.00    +0.005 C 
ATOM     23  C   UNL     1      36.254 -22.768 -16.838  0.00  0.00    +0.000 C 
ATOM     24  C   UNL     1      36.506 -21.363 -18.808  0.00  0.00    +0.005 C 
ATOM     25  C   UNL     1      37.053 -21.980 -17.683  0.00  0.00    +0.000 C 
ATOM     26  C   UNL     1      36.787 -23.396 -15.702  0.00  0.00    +0.003 C 
ATOM     27  C   UNL     1      34.081 -23.718 -16.296  0.00  0.00    +0.000 C 
ATOM     28  C   UNL     1      35.978 -24.175 -14.874  0.00  0.00    +0.031 C 
ATOM     29  C   UNL     1      34.627 -24.336 -15.171  0.00  0.00    +0.003 C 
BRANCH  28  32
ATOM     30  N   UNL     1      37.924 -24.931 -13.530  0.00  0.00    -0.343 N 
ATOM     31  N   UNL     1      35.747 -25.314 -12.771  0.00  0.00    -0.285 NA
ATOM     32  C   UNL     1      36.546 -24.819 -13.700  0.00  0.00    +0.117 C 
ATOM     33  H   UNL     1      38.287 -25.370 -12.726  0.00  0.00    +0.144 HD
ATOM     34  H   UNL     1      38.535 -24.570 -14.212  0.00  0.00    +0.144 HD
ATOM     35  H   UNL     1      36.130 -25.750 -11.975  0.00  0.00    +0.188 HD
ENDBRANCH  28  32
ENDBRANCH   3  20
TORSDOF 4
ENDMDL
MODEL 4
REMARK VINA RESULT:     -13.0      1.674      2.909
REMARK  Name = 447736
REMARK  4 active torsions:
REMARK  status: ('A' for Active; 'I' for Inactive)
REMARK    1  A    between atoms: N_2  and  C_13
REMARK    2  A    between atoms: C_3  and  C_20
REMARK    3  A    between atoms: C_6  and  C_17
REMARK    4  A    between atoms: C_28  and  C_32
REMARK                            x       y       z     vdW  Elec       q    Type
REMARK                         _______ _______ _______ _____ _____    ______ ____
ROOT
ATOM      1  O   UNL     1      34.965 -20.013 -22.998  0.00  0.00    -0.270 OA
ATOM      2  N   UNL     1      34.928 -18.103 -21.627  0.00  0.00    -0.280 N 
ATOM      3  C   UNL     1      35.026 -19.475 -21.898  0.00  0.00    +0.249 C 
ATOM      4  H   UNL     1      34.998 -17.843 -20.680  0.00  0.00    +0.155 HD
ENDROOT
BRANCH   2  13
ATOM      5  N   UNL     1      33.069 -12.539 -23.613  0.00  0.00    +0.388 N 
ATOM      6  C   UNL     1      33.496 -13.430 -22.516  0.00  0.00    -0.039 C 
ATOM      7  C   UNL     1      34.026 -14.776 -22.993  0.00  0.00    -0.045 C 
ATOM      8  C   UNL     1      34.399 -14.953 -24.342  0.00  0.00    -0.030 C 
ATOM      9  C   UNL     1      34.221 -13.839 -25.341  0.00  0.00    +0.003 C 
ATOM     10  C   UNL     1      34.085 -12.479 -24.662  0.00  0.00    -0.076 C 
ATOM     11  C   UNL     1      34.230 -15.837 -22.096  0.00  0.00    +0.008 C 
ATOM     12  C   UNL     1      34.902 -16.189 -24.775  0.00  0.00    -0.003 C 
ATOM     13  C   UNL     1      34.742 -17.060 -22.535  0.00  0.00    +0.050 C 
ATOM     14  C   UNL     1      35.072 -17.238 -23.874  0.00  0.00    +0.014 C 
ATOM     15  H   UNL     1      32.918 -11.601 -23.241  0.00  0.00    -0.084 HD
ATOM     16  H   UNL     1      32.208 -12.908 -24.016  0.00  0.00    -0.084 HD
BRANCH   6  17
ATOM     17  C   UNL     1      32.300 -13.554 -21.562  0.00  0.00    -0.015 C 
ATOM     18  C   UNL     1      32.641 -14.484 -20.403  0.00  0.00    -0.002 C 
ATOM     19  C   UNL     1      31.886 -12.179 -21.051  0.00  0.00    -0.002 C 
ENDBRANCH   6  17
ENDBRANCH   2  13
BRANCH   3  20
ATOM     20  C   UNL     1      35.195 -20.347 -20.707  0.00  0.00    +0.054 C 
ATOM     21  C   UNL     1      34.221 -21.776 -19.034  0.00  0.00    +0.000 C 
ATOM     22  C   UNL     1      34.079 -20.949 -20.161  0.00  0.00    +0.005 C 
ATOM     23  C   UNL     1      35.508 -21.976 -18.480  0.00  0.00    +0.000 C 
ATOM     24  C   UNL     1      36.455 -20.524 -20.187  0.00  0.00    +0.005 C 
ATOM     25  C   UNL     1      36.615 -21.342 -19.068  0.00  0.00    +0.000 C 
ATOM     26  C   UNL     1      35.650 -22.802 -17.353  0.00  0.00    +0.003 C 
ATOM     27  C   UNL     1      33.115 -22.409 -18.447  0.00  0.00    +0.000 C 
ATOM     28  C   UNL     1      34.539 -23.423 -16.782  0.00  0.00    +0.031 C 
ATOM     29  C   UNL     1      33.274 -23.227 -17.328  0.00  0.00    +0.003 C 
BRANCH  28  32
ATOM     30  N   UNL     1      33.775 -24.267 -14.575  0.00  0.00    -0.343 N 
ATOM     31  N   UNL     1      35.750 -25.077 -15.528  0.00  0.00    -0.285 NA
ATOM     32  C   UNL     1      34.703 -24.276 -15.615  0.00  0.00    +0.117 C 
ATOM     33  H   UNL     1      33.905 -24.853 -13.795  0.00  0.00    +0.144 HD
ATOM     34  H   UNL     1      32.990 -23.675 -14.621  0.00  0.00    +0.144 HD
ATOM     35  H   UNL     1      35.862 -25.655 -14.738  0.00  0.00    +0.188 HD
ENDBRANCH  28  32
ENDBRANCH   3  20
TORSDOF 4
ENDMDL
MODEL 5
REMARK VINA RESULT:     -12.9      6.447     11.015
REMARK  Name = 447736
REMARK  4 active torsions:
REMARK  status: ('A' for Active; 'I' for Inactive)
REMARK    1  A    between atoms: N_2  and  C_13
REMARK    2  A    between atoms: C_3  and  C_20
REMARK    3  A    between atoms: C_6  and  C_17
REMARK    4  A    between atoms: C_28  and  C_32
REMARK                            x       y       z     vdW  Elec       q    Type
REMARK                         _______ _______ _______ _____ _____    ______ ____
ROOT
ATOM      1  O   UNL     1      30.567 -10.647 -22.353  0.00  0.00    -0.270 OA
ATOM      2  N   UNL     1      32.693  -9.645 -22.338  0.00  0.00    -0.280 N 
ATOM      3  C   UNL     1      31.789 -10.713 -22.275  0.00  0.00    +0.249 C 
ATOM      4  H   UNL     1      33.646  -9.880 -22.257  0.00  0.00    +0.155 HD
ENDROOT
BRANCH   2  13
ATOM      5  N   UNL     1      32.677  -4.122 -25.139  0.00  0.00    +0.388 N 
ATOM      6  C   UNL     1      32.742  -5.595 -25.213  0.00  0.00    -0.039 C 
ATOM      7  C   UNL     1      32.443  -6.287 -23.890  0.00  0.00    -0.045 C 
ATOM      8  C   UNL     1      31.814  -5.579 -22.845  0.00  0.00    -0.030 C 
ATOM      9  C   UNL     1      31.485  -4.116 -22.998  0.00  0.00    +0.003 C 
ATOM     10  C   UNL     1      31.456  -3.686 -24.463  0.00  0.00    -0.076 C 
ATOM     11  C   UNL     1      32.712  -7.653 -23.707  0.00  0.00    +0.008 C 
ATOM     12  C   UNL     1      31.526  -6.223 -21.633  0.00  0.00    -0.003 C 
ATOM     13  C   UNL     1      32.410  -8.288 -22.500  0.00  0.00    +0.050 C 
ATOM     14  C   UNL     1      31.824  -7.573 -21.462  0.00  0.00    +0.014 C 
ATOM     15  H   UNL     1      32.688  -3.739 -26.085  0.00  0.00    -0.084 HD
ATOM     16  H   UNL     1      33.480  -3.786 -24.607  0.00  0.00    -0.084 HD
BRANCH   6  17
ATOM     17  C   UNL     1      34.124  -5.944 -25.781  0.00  0.00    -0.015 C 
ATOM     18  C   UNL     1      34.651  -4.797 -26.636  0.00  0.00    -0.002 C 
ATOM     19  C   UNL     1      35.095  -6.268 -24.651  0.00  0.00    -0.002 C 
ENDBRANCH   6  17
ENDBRANCH   2  13
BRANCH   3  20
ATOM     20  C   UNL     1      32.399 -12.052 -22.066  0.00  0.00    +0.054 C 
ATOM     21  C   UNL     1      33.783 -13.845 -22.877  0.00  0.00    +0.000 C 
ATOM     22  C   UNL     1      33.199 -12.580 -23.059  0.00  0.00    +0.005 C 
ATOM     23  C   UNL     1      33.538 -14.555 -21.677  0.00  0.00    +0.000 C 
ATOM     24  C   UNL     1      32.145 -12.721 -20.891  0.00  0.00    +0.005 C 
ATOM     25  C   UNL     1      32.716 -13.979 -20.694  0.00  0.00    +0.000 C 
ATOM     26  C   UNL     1      34.121 -15.819 -21.496  0.00  0.00    +0.003 C 
ATOM     27  C   UNL     1      34.604 -14.420 -23.860  0.00  0.00    +0.000 C 
ATOM     28  C   UNL     1      34.935 -16.375 -22.483  0.00  0.00    +0.031 C 
ATOM     29  C   UNL     1      35.175 -15.677 -23.663  0.00  0.00    +0.003 C 
BRANCH  28  32
ATOM     30  N   UNL     1      35.448 -18.338 -21.051  0.00  0.00    -0.343 N 
ATOM     31  N   UNL     1      36.169 -18.279 -23.273  0.00  0.00    -0.285 NA
ATOM     32  C   UNL     1      35.531 -17.686 -22.280  0.00  0.00    +0.117 C 
ATOM     33  H   UNL     1      35.858 -19.226 -20.936  0.00  0.00    +0.144 HD
ATOM     34  H   UNL     1      34.979 -17.911 -20.298  0.00  0.00    +0.144 HD
ATOM     35  H   UNL     1      36.573 -19.167 -23.138  0.00  0.00    +0.188 HD
ENDBRANCH  28  32
ENDBRANCH   3  20
TORSDOF 4
ENDMDL
MODEL 6
REMARK VINA RESULT:     -12.4      6.073     10.578
REMARK  Name = 447736
REMARK  4 active torsions:
REMARK  status: ('A' for Active; 'I' for Inactive)
REMARK    1  A    between atoms: N_2  and  C_13
REMARK    2  A    between atoms: C_3  and  C_20
REMARK    3  A    between atoms: C_6  and  C_17
REMARK    4  A    between atoms: C_28  and  C_32
REMARK                            x       y       z     vdW  Elec       q    Type
REMARK                         _______ _______ _______ _____ _____    ______ ____
ROOT
ATOM      1  O   UNL     1      31.191 -11.481 -22.022  0.00  0.00    -0.270 OA
ATOM      2  N   UNL     1      33.060 -10.321 -22.853  0.00  0.00    -0.280 N 
ATOM      3  C   UNL     1      32.310 -11.458 -22.523  0.00  0.00    +0.249 C 
ATOM      4  H   UNL     1      33.946 -10.488 -23.250  0.00  0.00    +0.155 HD
ENDROOT
BRANCH   2  13
ATOM      5  N   UNL     1      32.385  -4.368 -24.419  0.00  0.00    +0.388 N 
ATOM      6  C   UNL     1      32.488  -5.789 -24.804  0.00  0.00    -0.039 C 
ATOM      7  C   UNL     1      32.438  -6.747 -23.621  0.00  0.00    -0.045 C 
ATOM      8  C   UNL     1      31.968  -6.304 -22.368  0.00  0.00    -0.030 C 
ATOM      9  C   UNL     1      31.567  -4.865 -22.164  0.00  0.00    +0.003 C 
ATOM     10  C   UNL     1      31.280  -4.158 -23.486  0.00  0.00    -0.076 C 
ATOM     11  C   UNL     1      32.781  -8.102 -23.768  0.00  0.00    +0.008 C 
ATOM     12  C   UNL     1      31.908  -7.192 -21.285  0.00  0.00    -0.003 C 
ATOM     13  C   UNL     1      32.707  -8.981 -22.686  0.00  0.00    +0.050 C 
ATOM     14  C   UNL     1      32.277  -8.526 -21.444  0.00  0.00    +0.014 C 
ATOM     15  H   UNL     1      32.225  -3.806 -25.256  0.00  0.00    -0.084 HD
ATOM     16  H   UNL     1      33.253  -4.090 -23.962  0.00  0.00    -0.084 HD
BRANCH   6  17
ATOM     17  C   UNL     1      33.768  -5.924 -25.640  0.00  0.00    -0.015 C 
ATOM     18  C   UNL     1      33.987  -4.671 -26.481  0.00  0.00    -0.002 C 
ATOM     19  C   UNL     1      34.966  -6.187 -24.736  0.00  0.00    -0.002 C 
ENDBRANCH   6  17
ENDBRANCH   2  13
BRANCH   3  20
ATOM     20  C   UNL     1      32.974 -12.759 -22.797  0.00  0.00    +0.054 C 
ATOM     21  C   UNL     1      33.990 -14.777 -21.972  0.00  0.00    +0.000 C 
ATOM     22  C   UNL     1      33.360 -13.545 -21.730  0.00  0.00    +0.005 C 
ATOM     23  C   UNL     1      34.218 -15.189 -23.307  0.00  0.00    +0.000 C 
ATOM     24  C   UNL     1      33.185 -13.136 -24.102  0.00  0.00    +0.005 C 
ATOM     25  C   UNL     1      33.809 -14.356 -24.361  0.00  0.00    +0.000 C 
ATOM     26  C   UNL     1      34.848 -16.420 -23.547  0.00  0.00    +0.003 C 
ATOM     27  C   UNL     1      34.399 -15.609 -20.917  0.00  0.00    +0.000 C 
ATOM     28  C   UNL     1      35.247 -17.235 -22.488  0.00  0.00    +0.031 C 
ATOM     29  C   UNL     1      35.023 -16.830 -21.175  0.00  0.00    +0.003 C 
BRANCH  28  32
ATOM     30  N   UNL     1      37.281 -18.651 -22.642  0.00  0.00    -0.343 N 
ATOM     31  N   UNL     1      35.178 -19.554 -23.113  0.00  0.00    -0.285 NA
ATOM     32  C   UNL     1      35.899 -18.507 -22.754  0.00  0.00    +0.117 C 
ATOM     33  H   UNL     1      37.702 -19.522 -22.826  0.00  0.00    +0.144 HD
ATOM     34  H   UNL     1      37.836 -17.882 -22.378  0.00  0.00    +0.144 HD
ATOM     35  H   UNL     1      35.618 -20.416 -23.293  0.00  0.00    +0.188 HD
ENDBRANCH  28  32
ENDBRANCH   3  20
TORSDOF 4
ENDMDL
MODEL 7
REMARK VINA RESULT:     -12.4      1.857     10.067
REMARK  Name = 447736
REMARK  4 active torsions:
REMARK  status: ('A' for Active; 'I' for Inactive)
REMARK    1  A    between atoms: N_2  and  C_13
REMARK    2  A    between atoms: C_3  and  C_20
REMARK    3  A    between atoms: C_6  and  C_17
REMARK    4  A    between atoms: C_28  and  C_32
REMARK                            x       y       z     vdW  Elec       q    Type
REMARK                         _______ _______ _______ _____ _____    ______ ____
ROOT
ATOM      1  O   UNL     1      37.556 -19.549 -19.902  0.00  0.00    -0.270 OA
ATOM      2  N   UNL     1      35.618 -20.858 -19.662  0.00  0.00    -0.280 N 
ATOM      3  C   UNL     1      36.441 -19.901 -20.271  0.00  0.00    +0.249 C 
ATOM      4  H   UNL     1      34.747 -21.017 -20.094  0.00  0.00    +0.155 HD
ENDROOT
BRANCH   2  13
ATOM      5  N   UNL     1      34.312 -24.298 -14.681  0.00  0.00    +0.388 N 
ATOM      6  C   UNL     1      33.954 -23.803 -16.025  0.00  0.00    -0.039 C 
ATOM      7  C   UNL     1      35.079 -23.043 -16.716  0.00  0.00    -0.045 C 
ATOM      8  C   UNL     1      36.403 -23.155 -16.245  0.00  0.00    -0.030 C 
ATOM      9  C   UNL     1      36.717 -23.974 -15.019  0.00  0.00    +0.003 C 
ATOM     10  C   UNL     1      35.608 -24.974 -14.701  0.00  0.00    -0.076 C 
ATOM     11  C   UNL     1      34.840 -22.285 -17.873  0.00  0.00    +0.008 C 
ATOM     12  C   UNL     1      37.439 -22.467 -16.893  0.00  0.00    -0.003 C 
ATOM     13  C   UNL     1      35.880 -21.613 -18.518  0.00  0.00    +0.050 C 
ATOM     14  C   UNL     1      37.178 -21.698 -18.025  0.00  0.00    +0.014 C 
ATOM     15  H   UNL     1      33.598 -24.956 -14.366  0.00  0.00    -0.084 HD
ATOM     16  H   UNL     1      34.370 -23.502 -14.045  0.00  0.00    -0.084 HD
BRANCH   6  17
ATOM     17  C   UNL     1      32.674 -22.973 -15.859  0.00  0.00    -0.015 C 
ATOM     18  C   UNL     1      31.632 -23.393 -16.890  0.00  0.00    -0.002 C 
ATOM     19  C   UNL     1      32.127 -23.120 -14.444  0.00  0.00    -0.002 C 
ENDBRANCH   6  17
ENDBRANCH   2  13
BRANCH   3  20
ATOM     20  C   UNL     1      35.866 -19.240 -21.471  0.00  0.00    +0.054 C 
ATOM     21  C   UNL     1      35.152 -17.230 -22.584  0.00  0.00    +0.000 C 
ATOM     22  C   UNL     1      35.695 -17.871 -21.458  0.00  0.00    +0.005 C 
ATOM     23  C   UNL     1      34.790 -18.004 -23.713  0.00  0.00    +0.000 C 
ATOM     24  C   UNL     1      35.522 -20.014 -22.554  0.00  0.00    +0.005 C 
ATOM     25  C   UNL     1      34.981 -19.395 -23.682  0.00  0.00    +0.000 C 
ATOM     26  C   UNL     1      34.247 -17.364 -24.839  0.00  0.00    +0.003 C 
ATOM     27  C   UNL     1      34.961 -15.840 -22.615  0.00  0.00    +0.000 C 
ATOM     28  C   UNL     1      34.064 -15.981 -24.852  0.00  0.00    +0.031 C 
ATOM     29  C   UNL     1      34.421 -15.220 -23.742  0.00  0.00    +0.003 C 
BRANCH  28  32
ATOM     30  N   UNL     1      33.901 -14.056 -26.412  0.00  0.00    -0.343 N 
ATOM     31  N   UNL     1      32.586 -15.958 -26.746  0.00  0.00    -0.285 NA
ATOM     32  C   UNL     1      33.500 -15.334 -26.026  0.00  0.00    +0.117 C 
ATOM     33  H   UNL     1      33.507 -13.637 -27.211  0.00  0.00    +0.144 HD
ATOM     34  H   UNL     1      34.580 -13.574 -25.887  0.00  0.00    +0.144 HD
ATOM     35  H   UNL     1      32.203 -15.521 -27.541  0.00  0.00    +0.188 HD
ENDBRANCH  28  32
ENDBRANCH   3  20
TORSDOF 4
ENDMDL
MODEL 8
REMARK VINA RESULT:     -12.3      2.081     10.178
REMARK  Name = 447736
REMARK  4 active torsions:
REMARK  status: ('A' for Active; 'I' for Inactive)
REMARK    1  A    between atoms: N_2  and  C_13
REMARK    2  A    between atoms: C_3  and  C_20
REMARK    3  A    between atoms: C_6  and  C_17
REMARK    4  A    between atoms: C_28  and  C_32
REMARK                            x       y       z     vdW  Elec       q    Type
REMARK                         _______ _______ _______ _____ _____    ______ ____
ROOT
ATOM      1  O   UNL     1      34.466 -23.242 -18.201  0.00  0.00    -0.270 OA
ATOM      2  N   UNL     1      36.470 -22.130 -17.675  0.00  0.00    -0.280 N 
ATOM      3  C   UNL     1      35.284 -22.347 -18.389  0.00  0.00    +0.249 C 
ATOM      4  H   UNL     1      37.012 -21.359 -17.962  0.00  0.00    +0.155 HD
ENDROOT
BRANCH   2  13
ATOM      5  N   UNL     1      36.300 -25.451 -12.450  0.00  0.00    +0.388 N 
ATOM      6  C   UNL     1      35.646 -24.970 -13.684  0.00  0.00    -0.039 C 
ATOM      7  C   UNL     1      36.593 -24.251 -14.636  0.00  0.00    -0.045 C 
ATOM      8  C   UNL     1      37.988 -24.388 -14.487  0.00  0.00    -0.030 C 
ATOM      9  C   UNL     1      38.564 -25.194 -13.351  0.00  0.00    +0.003 C 
ATOM     10  C   UNL     1      37.541 -26.159 -12.759  0.00  0.00    -0.076 C 
ATOM     11  C   UNL     1      36.104 -23.506 -15.722  0.00  0.00    +0.008 C 
ATOM     12  C   UNL     1      38.857 -23.737 -15.375  0.00  0.00    -0.003 C 
ATOM     13  C   UNL     1      36.978 -22.872 -16.607  0.00  0.00    +0.050 C 
ATOM     14  C   UNL     1      38.353 -22.981 -16.431  0.00  0.00    +0.014 C 
ATOM     15  H   UNL     1      35.667 -26.084 -11.962  0.00  0.00    -0.084 HD
ATOM     16  H   UNL     1      36.522 -24.646 -11.864  0.00  0.00    -0.084 HD
BRANCH   6  17
ATOM     17  C   UNL     1      34.459 -24.105 -13.241  0.00  0.00    -0.015 C 
ATOM     18  C   UNL     1      33.148 -24.717 -13.722  0.00  0.00    -0.002 C 
ATOM     19  C   UNL     1      34.458 -23.941 -11.725  0.00  0.00    -0.002 C 
ENDBRANCH   6  17
ENDBRANCH   2  13
BRANCH   3  20
ATOM     20  C   UNL     1      35.027 -21.395 -19.501  0.00  0.00    +0.054 C 
ATOM     21  C   UNL     1      35.873 -19.843 -21.132  0.00  0.00    +0.000 C 
ATOM     22  C   UNL     1      36.099 -20.748 -20.080  0.00  0.00    +0.005 C 
ATOM     23  C   UNL     1      34.549 -19.614 -21.577  0.00  0.00    +0.000 C 
ATOM     24  C   UNL     1      33.732 -21.190 -19.914  0.00  0.00    +0.005 C 
ATOM     25  C   UNL     1      33.489 -20.296 -20.956  0.00  0.00    +0.000 C 
ATOM     26  C   UNL     1      34.324 -18.711 -22.627  0.00  0.00    +0.003 C 
ATOM     27  C   UNL     1      36.933 -19.162 -21.752  0.00  0.00    +0.000 C 
ATOM     28  C   UNL     1      35.389 -18.043 -23.232  0.00  0.00    +0.031 C 
ATOM     29  C   UNL     1      36.691 -18.269 -22.795  0.00  0.00    +0.003 C 
BRANCH  28  32
ATOM     30  N   UNL     1      35.330 -15.738 -24.156  0.00  0.00    -0.343 N 
ATOM     31  N   UNL     1      34.720 -17.558 -25.489  0.00  0.00    -0.285 NA
ATOM     32  C   UNL     1      35.139 -17.109 -24.319  0.00  0.00    +0.117 C 
ATOM     33  H   UNL     1      35.156 -15.124 -24.905  0.00  0.00    +0.144 HD
ATOM     34  H   UNL     1      35.640 -15.385 -23.291  0.00  0.00    +0.144 HD
ATOM     35  H   UNL     1      34.550 -16.927 -26.225  0.00  0.00    +0.188 HD
ENDBRANCH  28  32
ENDBRANCH   3  20
TORSDOF 4
ENDMDL
MODEL 9
REMARK VINA RESULT:     -11.8      6.838     11.410
REMARK  Name = 447736
REMARK  4 active torsions:
REMARK  status: ('A' for Active; 'I' for Inactive)
REMARK    1  A    between atoms: N_2  and  C_13
REMARK    2  A    between atoms: C_3  and  C_20
REMARK    3  A    between atoms: C_6  and  C_17
REMARK    4  A    between atoms: C_28  and  C_32
REMARK                            x       y       z     vdW  Elec       q    Type
REMARK                         _______ _______ _______ _____ _____    ______ ____
ROOT
ATOM      1  O   UNL     1      31.061 -10.331 -22.504  0.00  0.00    -0.270 OA
ATOM      2  N   UNL     1      33.070  -9.242 -23.057  0.00  0.00    -0.280 N 
ATOM      3  C   UNL     1      32.249 -10.350 -22.804  0.00  0.00    +0.249 C 
ATOM      4  H   UNL     1      34.007  -9.442 -23.286  0.00  0.00    +0.155 HD
ENDROOT
BRANCH   2  13
ATOM      5  N   UNL     1      32.231  -3.520 -25.272  0.00  0.00    +0.388 N 
ATOM      6  C   UNL     1      32.312  -4.978 -25.489  0.00  0.00    -0.039 C 
ATOM      7  C   UNL     1      32.364  -5.786 -24.199  0.00  0.00    -0.045 C 
ATOM      8  C   UNL     1      31.993  -5.193 -22.975  0.00  0.00    -0.030 C 
ATOM      9  C   UNL     1      31.601  -3.738 -22.914  0.00  0.00    +0.003 C 
ATOM     10  C   UNL     1      31.203  -3.196 -24.284  0.00  0.00    -0.076 C 
ATOM     11  C   UNL     1      32.703  -7.149 -24.208  0.00  0.00    +0.008 C 
ATOM     12  C   UNL     1      32.027  -5.944 -21.791  0.00  0.00    -0.003 C 
ATOM     13  C   UNL     1      32.722  -7.891 -23.026  0.00  0.00    +0.050 C 
ATOM     14  C   UNL     1      32.391  -7.288 -21.817  0.00  0.00    +0.014 C 
ATOM     15  H   UNL     1      32.001  -3.063 -26.154  0.00  0.00    -0.084 HD
ATOM     16  H   UNL     1      33.131  -3.192 -24.923  0.00  0.00    -0.084 HD
BRANCH   6  17
ATOM     17  C   UNL     1      33.521  -5.217 -26.403  0.00  0.00    -0.015 C 
ATOM     18  C   UNL     1      33.784  -3.989 -27.267  0.00  0.00    -0.002 C 
ATOM     19  C   UNL     1      34.750  -5.571 -25.574  0.00  0.00    -0.002 C 
ENDBRANCH   6  17
ENDBRANCH   2  13
BRANCH   3  20
ATOM     20  C   UNL     1      32.923 -11.672 -22.888  0.00  0.00    +0.054 C 
ATOM     21  C   UNL     1      33.467 -13.785 -21.876  0.00  0.00    +0.000 C 
ATOM     22  C   UNL     1      32.835 -12.532 -21.813  0.00  0.00    +0.005 C 
ATOM     23  C   UNL     1      34.183 -14.142 -23.045  0.00  0.00    +0.000 C 
ATOM     24  C   UNL     1      33.612 -11.994 -24.034  0.00  0.00    +0.005 C 
ATOM     25  C   UNL     1      34.246 -13.234 -24.115  0.00  0.00    +0.000 C 
ATOM     26  C   UNL     1      34.814 -15.394 -23.108  0.00  0.00    +0.003 C 
ATOM     27  C   UNL     1      33.404 -14.692 -20.807  0.00  0.00    +0.000 C 
ATOM     28  C   UNL     1      34.741 -16.283 -22.035  0.00  0.00    +0.031 C 
ATOM     29  C   UNL     1      34.037 -15.933 -20.887  0.00  0.00    +0.003 C 
BRANCH  28  32
ATOM     30  N   UNL     1      36.086 -17.970 -23.264  0.00  0.00    -0.343 N 
ATOM     31  N   UNL     1      35.355 -18.404 -21.088  0.00  0.00    -0.285 NA
ATOM     32  C   UNL     1      35.401 -17.576 -22.116  0.00  0.00    +0.117 C 
ATOM     33  H   UNL     1      36.527 -18.850 -23.297  0.00  0.00    +0.144 HD
ATOM     34  H   UNL     1      36.130 -17.368 -24.042  0.00  0.00    +0.144 HD
ATOM     35  H   UNL     1      35.801 -19.280 -21.141  0.00  0.00    +0.188 HD
ENDBRANCH  28  32
ENDBRANCH   3  20
TORSDOF 4
ENDMDL
