MODEL 1
REMARK VINA RESULT:     -13.1      0.000      0.000
REMARK  Name = 44123754
REMARK  11 active torsions:
REMARK  status: ('A' for Active; 'I' for Inactive)
REMARK    1  A    between atoms: C_3  and  C_22
REMARK    2  A    between atoms: C_4  and  C_7
REMARK    3  A    between atoms: N_6  and  C_15
REMARK    4  A    between atoms: C_8  and  N_12
REMARK    5  A    between atoms: C_15  and  O_16
REMARK    6  A    between atoms: O_16  and  P_17
REMARK    7  A    between atoms: P_17  and  O_20
REMARK    8  A    between atoms: C_22  and  C_23
REMARK    9  A    between atoms: C_26  and  C_29
REMARK   10  A    between atoms: C_29  and  O_30
REMARK   11  A    between atoms: O_30  and  C_32
REMARK                            x       y       z     vdW  Elec       q    Type
REMARK                         _______ _______ _______ _____ _____    ______ ____
ROOT
ATOM      1  O   UNL     1      34.824 -15.854 -21.048  0.00  0.00    -0.354 OA
ATOM      2  N   UNL     1      35.333 -17.121 -20.790  0.00  0.00    -0.081 NA
ATOM      3  C   UNL     1      35.382 -17.723 -21.981  0.00  0.00    +0.105 C 
ATOM      4  C   UNL     1      34.582 -15.730 -22.378  0.00  0.00    +0.175 C 
ATOM      5  C   UNL     1      34.920 -16.893 -23.018  0.00  0.00    +0.058 C 
ENDROOT
BRANCH   4   7
ATOM      6  N   UNL     1      32.597 -12.615 -22.505  0.00  0.00    -0.266 N 
ATOM      7  C   UNL     1      34.046 -14.457 -22.801  0.00  0.00    +0.048 C 
ATOM      8  C   UNL     1      33.065 -13.795 -22.077  0.00  0.00    +0.156 C 
ATOM      9  C   UNL     1      34.526 -13.874 -23.969  0.00  0.00    +0.003 C 
ATOM     10  C   UNL     1      33.040 -12.031 -23.626  0.00  0.00    +0.064 C 
ATOM     11  C   UNL     1      34.020 -12.647 -24.390  0.00  0.00    +0.016 C 
BRANCH   8  12
ATOM     12  N   UNL     1      32.551 -14.353 -20.886  0.00  0.00    -0.303 NA
ATOM     13  H   UNL     1      31.730 -14.895 -20.911  0.00  0.00    +0.121 HD
ATOM     14  H   UNL     1      33.015 -14.199 -20.032  0.00  0.00    +0.121 HD
ENDBRANCH   8  12
BRANCH   6  15
ATOM     15  C   UNL     1      31.561 -11.916 -21.740  0.00  0.00    +0.251 C 
BRANCH  15  16
ATOM     16  O   UNL     1      32.138 -11.427 -20.537  0.00  0.00    -0.250 OA
BRANCH  16  17
ATOM     17  P   UNL     1      31.764  -9.920 -20.026  0.00  0.00    +0.504 P 
ATOM     18  O   UNL     1      30.574  -9.977 -19.092  0.00  0.00    -0.225 OA
ATOM     19  O   UNL     1      31.754  -8.997 -21.225  0.00  0.00    -0.116 OA
BRANCH  17  20
ATOM     20  O   UNL     1      33.101  -9.596 -19.146  0.00  0.00    -0.301 OA
ATOM     21  H   UNL     1      33.761 -10.292 -19.292  0.00  0.00    +0.222 HD
ENDBRANCH  17  20
ENDBRANCH  16  17
ENDBRANCH  15  16
ENDBRANCH   6  15
ENDBRANCH   4   7
BRANCH   3  22
ATOM     22  C   UNL     1      35.880 -19.104 -22.086  0.00  0.00    +0.075 C 
BRANCH  22  23
ATOM     23  C   UNL     1      35.251 -20.082 -21.102  0.00  0.00    -0.016 C 
ATOM     24  C   UNL     1      36.064 -20.880 -20.297  0.00  0.00    -0.004 C 
ATOM     25  C   UNL     1      33.863 -20.178 -21.005  0.00  0.00    -0.004 C 
ATOM     26  C   UNL     1      34.100 -21.872 -19.298  0.00  0.00    +0.021 C 
ATOM     27  C   UNL     1      35.488 -21.775 -19.395  0.00  0.00    -0.001 C 
ATOM     28  C   UNL     1      33.287 -21.074 -20.103  0.00  0.00    -0.001 C 
BRANCH  26  29
ATOM     29  C   UNL     1      33.485 -22.827 -18.333  0.00  0.00    +0.234 C 
BRANCH  29  30
ATOM     30  O   UNL     1      32.128 -22.465 -18.109  0.00  0.00    -0.455 OA
BRANCH  30  32
ATOM     31  N   UNL     1      30.228 -22.842 -16.831  0.00  0.00    -0.210 NA
ATOM     32  C   UNL     1      31.578 -22.840 -16.911  0.00  0.00    +0.225 C 
ATOM     33  C   UNL     1      32.418 -23.193 -15.868  0.00  0.00    +0.058 C 
ATOM     34  C   UNL     1      31.836 -23.572 -14.663  0.00  0.00    +0.006 C 
ATOM     35  C   UNL     1      29.698 -23.217 -15.644  0.00  0.00    +0.102 C 
ATOM     36  C   UNL     1      30.451 -23.587 -14.541  0.00  0.00    +0.021 C 
ENDBRANCH  30  32
ENDBRANCH  29  30
ENDBRANCH  26  29
ENDBRANCH  22  23
ENDBRANCH   3  22
TORSDOF 11
ENDMDL
MODEL 2
REMARK VINA RESULT:     -13.0      3.920     10.416
REMARK  Name = 44123754
REMARK  11 active torsions:
REMARK  status: ('A' for Active; 'I' for Inactive)
REMARK    1  A    between atoms: C_3  and  C_22
REMARK    2  A    between atoms: C_4  and  C_7
REMARK    3  A    between atoms: N_6  and  C_15
REMARK    4  A    between atoms: C_8  and  N_12
REMARK    5  A    between atoms: C_15  and  O_16
REMARK    6  A    between atoms: O_16  and  P_17
REMARK    7  A    between atoms: P_17  and  O_20
REMARK    8  A    between atoms: C_22  and  C_23
REMARK    9  A    between atoms: C_26  and  C_29
REMARK   10  A    between atoms: C_29  and  O_30
REMARK   11  A    between atoms: O_30  and  C_32
REMARK                            x       y       z     vdW  Elec       q    Type
REMARK                         _______ _______ _______ _____ _____    ______ ____
ROOT
ATOM      1  O   UNL     1      33.957 -23.376 -18.598  0.00  0.00    -0.354 OA
ATOM      2  N   UNL     1      34.800 -22.857 -19.574  0.00  0.00    -0.081 NA
ATOM      3  C   UNL     1      35.714 -22.151 -18.901  0.00  0.00    +0.105 C 
ATOM      4  C   UNL     1      34.384 -22.970 -17.375  0.00  0.00    +0.175 C 
ATOM      5  C   UNL     1      35.500 -22.188 -17.512  0.00  0.00    +0.058 C 
ENDROOT
BRANCH   4   7
ATOM      6  N   UNL     1      31.556 -23.615 -15.084  0.00  0.00    -0.266 N 
ATOM      7  C   UNL     1      33.601 -23.434 -16.253  0.00  0.00    +0.048 C 
ATOM      8  C   UNL     1      32.245 -23.163 -16.141  0.00  0.00    +0.156 C 
ATOM      9  C   UNL     1      34.221 -24.177 -15.254  0.00  0.00    +0.003 C 
ATOM     10  C   UNL     1      32.128 -24.331 -14.107  0.00  0.00    +0.064 C 
ATOM     11  C   UNL     1      33.480 -24.632 -14.166  0.00  0.00    +0.016 C 
BRANCH   8  12
ATOM     12  N   UNL     1      31.577 -22.414 -17.134  0.00  0.00    -0.303 NA
ATOM     13  H   UNL     1      30.850 -21.800 -16.881  0.00  0.00    +0.121 HD
ATOM     14  H   UNL     1      31.839 -22.506 -18.078  0.00  0.00    +0.121 HD
ENDBRANCH   8  12
BRANCH   6  15
ATOM     15  C   UNL     1      30.124 -23.328 -14.966  0.00  0.00    +0.251 C 
BRANCH  15  16
ATOM     16  O   UNL     1      29.423 -24.116 -15.919  0.00  0.00    -0.250 OA
BRANCH  16  17
ATOM     17  P   UNL     1      28.112 -23.488 -16.665  0.00  0.00    +0.504 P 
ATOM     18  O   UNL     1      27.108 -23.024 -15.631  0.00  0.00    -0.225 OA
ATOM     19  O   UNL     1      27.693 -24.431 -17.771  0.00  0.00    -0.116 OA
BRANCH  17  20
ATOM     20  O   UNL     1      28.797 -22.173 -17.351  0.00  0.00    -0.301 OA
ATOM     21  H   UNL     1      29.601 -22.438 -17.824  0.00  0.00    +0.222 HD
ENDBRANCH  17  20
ENDBRANCH  16  17
ENDBRANCH  15  16
ENDBRANCH   6  15
ENDBRANCH   4   7
BRANCH   3  22
ATOM     22  C   UNL     1      36.783 -21.451 -19.630  0.00  0.00    +0.075 C 
BRANCH  22  23
ATOM     23  C   UNL     1      36.298 -20.349 -20.564  0.00  0.00    -0.016 C 
ATOM     24  C   UNL     1      37.195 -19.393 -21.040  0.00  0.00    -0.004 C 
ATOM     25  C   UNL     1      34.956 -20.297 -20.944  0.00  0.00    -0.004 C 
ATOM     26  C   UNL     1      35.410 -18.333 -22.275  0.00  0.00    +0.021 C 
ATOM     27  C   UNL     1      36.752 -18.385 -21.895  0.00  0.00    -0.001 C 
ATOM     28  C   UNL     1      34.513 -19.289 -21.799  0.00  0.00    -0.001 C 
BRANCH  26  29
ATOM     29  C   UNL     1      34.936 -17.256 -23.192  0.00  0.00    +0.234 C 
BRANCH  29  30
ATOM     30  O   UNL     1      35.300 -15.988 -22.659  0.00  0.00    -0.455 OA
BRANCH  30  32
ATOM     31  N   UNL     1      33.799 -14.263 -23.049  0.00  0.00    -0.210 NA
ATOM     32  C   UNL     1      34.281 -15.197 -22.199  0.00  0.00    +0.225 C 
ATOM     33  C   UNL     1      33.807 -15.394 -20.912  0.00  0.00    +0.058 C 
ATOM     34  C   UNL     1      32.771 -14.579 -20.468  0.00  0.00    +0.006 C 
ATOM     35  C   UNL     1      32.792 -13.490 -22.583  0.00  0.00    +0.102 C 
ATOM     36  C   UNL     1      32.248 -13.607 -21.314  0.00  0.00    +0.021 C 
ENDBRANCH  30  32
ENDBRANCH  29  30
ENDBRANCH  26  29
ENDBRANCH  22  23
ENDBRANCH   3  22
TORSDOF 11
ENDMDL
MODEL 3
REMARK VINA RESULT:     -12.9      1.546      2.132
REMARK  Name = 44123754
REMARK  11 active torsions:
REMARK  status: ('A' for Active; 'I' for Inactive)
REMARK    1  A    between atoms: C_3  and  C_22
REMARK    2  A    between atoms: C_4  and  C_7
REMARK    3  A    between atoms: N_6  and  C_15
REMARK    4  A    between atoms: C_8  and  N_12
REMARK    5  A    between atoms: C_15  and  O_16
REMARK    6  A    between atoms: O_16  and  P_17
REMARK    7  A    between atoms: P_17  and  O_20
REMARK    8  A    between atoms: C_22  and  C_23
REMARK    9  A    between atoms: C_26  and  C_29
REMARK   10  A    between atoms: C_29  and  O_30
REMARK   11  A    between atoms: O_30  and  C_32
REMARK                            x       y       z     vdW  Elec       q    Type
REMARK                         _______ _______ _______ _____ _____    ______ ____
ROOT
ATOM      1  O   UNL     1      34.249 -16.306 -23.446  0.00  0.00    -0.354 OA
ATOM      2  N   UNL     1      34.969 -17.496 -23.453  0.00  0.00    -0.081 NA
ATOM      3  C   UNL     1      35.432 -17.627 -22.207  0.00  0.00    +0.105 C 
ATOM      4  C   UNL     1      34.300 -15.759 -22.204  0.00  0.00    +0.175 C 
ATOM      5  C   UNL     1      35.041 -16.561 -21.377  0.00  0.00    +0.058 C 
ENDROOT
BRANCH   4   7
ATOM      6  N   UNL     1      33.084 -12.308 -22.730  0.00  0.00    -0.266 N 
ATOM      7  C   UNL     1      33.592 -14.511 -22.041  0.00  0.00    +0.048 C 
ATOM      8  C   UNL     1      33.762 -13.449 -22.918  0.00  0.00    +0.156 C 
ATOM      9  C   UNL     1      32.711 -14.364 -20.974  0.00  0.00    +0.003 C 
ATOM     10  C   UNL     1      32.231 -12.141 -21.711  0.00  0.00    +0.064 C 
ATOM     11  C   UNL     1      32.021 -13.168 -20.803  0.00  0.00    +0.016 C 
BRANCH   8  12
ATOM     12  N   UNL     1      34.646 -13.557 -24.013  0.00  0.00    -0.303 NA
ATOM     13  H   UNL     1      34.959 -14.443 -24.308  0.00  0.00    +0.121 HD
ATOM     14  H   UNL     1      34.950 -12.746 -24.481  0.00  0.00    +0.121 HD
ENDBRANCH   8  12
BRANCH   6  15
ATOM     15  C   UNL     1      33.265 -11.188 -23.656  0.00  0.00    +0.251 C 
BRANCH  15  16
ATOM     16  O   UNL     1      32.445 -10.109 -23.229  0.00  0.00    -0.250 OA
BRANCH  16  17
ATOM     17  P   UNL     1      33.079  -8.605 -23.153  0.00  0.00    +0.504 P 
ATOM     18  O   UNL     1      32.154  -7.624 -23.839  0.00  0.00    -0.225 OA
ATOM     19  O   UNL     1      34.540  -8.680 -23.540  0.00  0.00    -0.116 OA
BRANCH  17  20
ATOM     20  O   UNL     1      32.995  -8.359 -21.540  0.00  0.00    -0.301 OA
ATOM     21  H   UNL     1      33.675  -8.889 -21.096  0.00  0.00    +0.222 HD
ENDBRANCH  17  20
ENDBRANCH  16  17
ENDBRANCH  15  16
ENDBRANCH   6  15
ENDBRANCH   4   7
BRANCH   3  22
ATOM     22  C   UNL     1      36.252 -18.795 -21.847  0.00  0.00    +0.075 C 
BRANCH  22  23
ATOM     23  C   UNL     1      35.537 -19.833 -20.992  0.00  0.00    -0.016 C 
ATOM     24  C   UNL     1      36.275 -20.708 -20.196  0.00  0.00    -0.004 C 
ATOM     25  C   UNL     1      34.143 -19.907 -21.005  0.00  0.00    -0.004 C 
ATOM     26  C   UNL     1      34.227 -21.733 -19.425  0.00  0.00    +0.021 C 
ATOM     27  C   UNL     1      35.620 -21.659 -19.413  0.00  0.00    -0.001 C 
ATOM     28  C   UNL     1      33.489 -20.858 -20.222  0.00  0.00    -0.001 C 
BRANCH  26  29
ATOM     29  C   UNL     1      33.527 -22.748 -18.586  0.00  0.00    +0.234 C 
BRANCH  29  30
ATOM     30  O   UNL     1      32.191 -22.323 -18.347  0.00  0.00    -0.455 OA
BRANCH  30  32
ATOM     31  N   UNL     1      30.271 -22.617 -17.078  0.00  0.00    -0.210 NA
ATOM     32  C   UNL     1      31.615 -22.730 -17.172  0.00  0.00    +0.225 C 
ATOM     33  C   UNL     1      32.424 -23.227 -16.164  0.00  0.00    +0.058 C 
ATOM     34  C   UNL     1      31.815 -23.635 -14.982  0.00  0.00    +0.006 C 
ATOM     35  C   UNL     1      29.714 -23.023 -15.915  0.00  0.00    +0.102 C 
ATOM     36  C   UNL     1      30.435 -23.535 -14.847  0.00  0.00    +0.021 C 
ENDBRANCH  30  32
ENDBRANCH  29  30
ENDBRANCH  26  29
ENDBRANCH  22  23
ENDBRANCH   3  22
TORSDOF 11
ENDMDL
MODEL 4
REMARK VINA RESULT:     -12.9      1.327      1.831
REMARK  Name = 44123754
REMARK  11 active torsions:
REMARK  status: ('A' for Active; 'I' for Inactive)
REMARK    1  A    between atoms: C_3  and  C_22
REMARK    2  A    between atoms: C_4  and  C_7
REMARK    3  A    between atoms: N_6  and  C_15
REMARK    4  A    between atoms: C_8  and  N_12
REMARK    5  A    between atoms: C_15  and  O_16
REMARK    6  A    between atoms: O_16  and  P_17
REMARK    7  A    between atoms: P_17  and  O_20
REMARK    8  A    between atoms: C_22  and  C_23
REMARK    9  A    between atoms: C_26  and  C_29
REMARK   10  A    between atoms: C_29  and  O_30
REMARK   11  A    between atoms: O_30  and  C_32
REMARK                            x       y       z     vdW  Elec       q    Type
REMARK                         _______ _______ _______ _____ _____    ______ ____
ROOT
ATOM      1  O   UNL     1      34.956 -16.373 -21.624  0.00  0.00    -0.354 OA
ATOM      2  N   UNL     1      35.517 -17.422 -20.904  0.00  0.00    -0.081 NA
ATOM      3  C   UNL     1      35.894 -18.312 -21.826  0.00  0.00    +0.105 C 
ATOM      4  C   UNL     1      35.011 -16.660 -22.950  0.00  0.00    +0.175 C 
ATOM      5  C   UNL     1      35.600 -17.884 -23.133  0.00  0.00    +0.058 C 
ENDROOT
BRANCH   4   7
ATOM      6  N   UNL     1      33.671 -13.468 -24.245  0.00  0.00    -0.266 N 
ATOM      7  C   UNL     1      34.462 -15.656 -23.831  0.00  0.00    +0.048 C 
ATOM      8  C   UNL     1      34.180 -14.370 -23.393  0.00  0.00    +0.156 C 
ATOM      9  C   UNL     1      34.208 -15.983 -25.159  0.00  0.00    +0.003 C 
ATOM     10  C   UNL     1      33.417 -13.756 -25.528  0.00  0.00    +0.064 C 
ATOM     11  C   UNL     1      33.679 -15.026 -26.020  0.00  0.00    +0.016 C 
BRANCH   8  12
ATOM     12  N   UNL     1      34.423 -13.997 -22.054  0.00  0.00    -0.303 NA
ATOM     13  H   UNL     1      34.215 -13.083 -21.751  0.00  0.00    +0.121 HD
ATOM     14  H   UNL     1      34.802 -14.650 -21.423  0.00  0.00    +0.121 HD
ENDBRANCH   8  12
BRANCH   6  15
ATOM     15  C   UNL     1      33.374 -12.110 -23.782  0.00  0.00    +0.251 C 
BRANCH  15  16
ATOM     16  O   UNL     1      32.079 -12.104 -23.196  0.00  0.00    -0.250 OA
BRANCH  16  17
ATOM     17  P   UNL     1      31.858 -11.361 -21.757  0.00  0.00    +0.504 P 
ATOM     18  O   UNL     1      32.348  -9.932 -21.837  0.00  0.00    -0.225 OA
ATOM     19  O   UNL     1      32.352 -12.281 -20.662  0.00  0.00    -0.116 OA
BRANCH  17  20
ATOM     20  O   UNL     1      30.225 -11.349 -21.711  0.00  0.00    -0.301 OA
ATOM     21  H   UNL     1      29.893 -12.259 -21.772  0.00  0.00    +0.222 HD
ENDBRANCH  17  20
ENDBRANCH  16  17
ENDBRANCH  15  16
ENDBRANCH   6  15
ENDBRANCH   4   7
BRANCH   3  22
ATOM     22  C   UNL     1      36.537 -19.570 -21.414  0.00  0.00    +0.075 C 
BRANCH  22  23
ATOM     23  C   UNL     1      35.672 -20.467 -20.537  0.00  0.00    -0.016 C 
ATOM     24  C   UNL     1      36.269 -21.318 -19.608  0.00  0.00    -0.004 C 
ATOM     25  C   UNL     1      34.283 -20.436 -20.664  0.00  0.00    -0.004 C 
ATOM     26  C   UNL     1      34.088 -22.108 -18.932  0.00  0.00    +0.021 C 
ATOM     27  C   UNL     1      35.477 -22.139 -18.805  0.00  0.00    -0.001 C 
ATOM     28  C   UNL     1      33.491 -21.257 -19.861  0.00  0.00    -0.001 C 
BRANCH  26  29
ATOM     29  C   UNL     1      33.242 -22.984 -18.072  0.00  0.00    +0.234 C 
BRANCH  29  30
ATOM     30  O   UNL     1      31.948 -22.409 -17.940  0.00  0.00    -0.455 OA
BRANCH  30  32
ATOM     31  N   UNL     1      29.805 -22.668 -17.088  0.00  0.00    -0.210 NA
ATOM     32  C   UNL     1      31.122 -22.957 -16.993  0.00  0.00    +0.225 C 
ATOM     33  C   UNL     1      31.671 -23.762 -16.009  0.00  0.00    +0.058 C 
ATOM     34  C   UNL     1      30.813 -24.307 -15.060  0.00  0.00    +0.006 C 
ATOM     35  C   UNL     1      29.001 -23.216 -16.149  0.00  0.00    +0.102 C 
ATOM     36  C   UNL     1      29.451 -24.034 -15.124  0.00  0.00    +0.021 C 
ENDBRANCH  30  32
ENDBRANCH  29  30
ENDBRANCH  26  29
ENDBRANCH  22  23
ENDBRANCH   3  22
TORSDOF 11
ENDMDL
MODEL 5
REMARK VINA RESULT:     -12.5      3.960      5.047
REMARK  Name = 44123754
REMARK  11 active torsions:
REMARK  status: ('A' for Active; 'I' for Inactive)
REMARK    1  A    between atoms: C_3  and  C_22
REMARK    2  A    between atoms: C_4  and  C_7
REMARK    3  A    between atoms: N_6  and  C_15
REMARK    4  A    between atoms: C_8  and  N_12
REMARK    5  A    between atoms: C_15  and  O_16
REMARK    6  A    between atoms: O_16  and  P_17
REMARK    7  A    between atoms: P_17  and  O_20
REMARK    8  A    between atoms: C_22  and  C_23
REMARK    9  A    between atoms: C_26  and  C_29
REMARK   10  A    between atoms: C_29  and  O_30
REMARK   11  A    between atoms: O_30  and  C_32
REMARK                            x       y       z     vdW  Elec       q    Type
REMARK                         _______ _______ _______ _____ _____    ______ ____
ROOT
ATOM      1  O   UNL     1      36.342 -17.583 -20.843  0.00  0.00    -0.354 OA
ATOM      2  N   UNL     1      36.785 -18.886 -20.648  0.00  0.00    -0.081 NA
ATOM      3  C   UNL     1      35.752 -19.658 -20.995  0.00  0.00    +0.105 C 
ATOM      4  C   UNL     1      35.063 -17.608 -21.299  0.00  0.00    +0.175 C 
ATOM      5  C   UNL     1      34.640 -18.906 -21.413  0.00  0.00    +0.058 C 
ENDROOT
BRANCH   4   7
ATOM      6  N   UNL     1      34.172 -14.389 -22.882  0.00  0.00    -0.266 N 
ATOM      7  C   UNL     1      34.463 -16.319 -21.549  0.00  0.00    +0.048 C 
ATOM      8  C   UNL     1      34.752 -15.582 -22.689  0.00  0.00    +0.156 C 
ATOM      9  C   UNL     1      33.566 -15.796 -20.623  0.00  0.00    +0.003 C 
ATOM     10  C   UNL     1      33.306 -13.862 -22.007  0.00  0.00    +0.064 C 
ATOM     11  C   UNL     1      32.980 -14.554 -20.850  0.00  0.00    +0.016 C 
BRANCH   8  12
ATOM     12  N   UNL     1      35.656 -16.077 -23.654  0.00  0.00    -0.303 NA
ATOM     13  H   UNL     1      36.011 -15.477 -24.350  0.00  0.00    +0.121 HD
ATOM     14  H   UNL     1      35.931 -17.021 -23.630  0.00  0.00    +0.121 HD
ENDBRANCH   8  12
BRANCH   6  15
ATOM     15  C   UNL     1      34.478 -13.612 -24.086  0.00  0.00    +0.251 C 
BRANCH  15  16
ATOM     16  O   UNL     1      33.362 -13.675 -24.963  0.00  0.00    -0.250 OA
BRANCH  16  17
ATOM     17  P   UNL     1      33.526 -14.409 -26.414  0.00  0.00    +0.504 P 
ATOM     18  O   UNL     1      34.110 -15.792 -26.224  0.00  0.00    -0.225 OA
ATOM     19  O   UNL     1      34.165 -13.432 -27.376  0.00  0.00    -0.116 OA
BRANCH  17  20
ATOM     20  O   UNL     1      31.950 -14.561 -26.816  0.00  0.00    -0.301 OA
ATOM     21  H   UNL     1      31.866 -14.609 -27.782  0.00  0.00    +0.222 HD
ENDBRANCH  17  20
ENDBRANCH  16  17
ENDBRANCH  15  16
ENDBRANCH   6  15
ENDBRANCH   4   7
BRANCH   3  22
ATOM     22  C   UNL     1      35.870 -21.123 -20.912  0.00  0.00    +0.075 C 
BRANCH  22  23
ATOM     23  C   UNL     1      35.609 -21.703 -19.527  0.00  0.00    -0.016 C 
ATOM     24  C   UNL     1      36.616 -21.683 -18.562  0.00  0.00    -0.004 C 
ATOM     25  C   UNL     1      34.363 -22.252 -19.224  0.00  0.00    -0.004 C 
ATOM     26  C   UNL     1      35.131 -22.763 -16.992  0.00  0.00    +0.021 C 
ATOM     27  C   UNL     1      36.377 -22.213 -17.295  0.00  0.00    -0.001 C 
ATOM     28  C   UNL     1      34.124 -22.782 -17.957  0.00  0.00    -0.001 C 
BRANCH  26  29
ATOM     29  C   UNL     1      34.876 -23.327 -15.635  0.00  0.00    +0.234 C 
BRANCH  29  30
ATOM     30  O   UNL     1      35.234 -24.704 -15.621  0.00  0.00    -0.455 OA
BRANCH  30  32
ATOM     31  N   UNL     1      37.072 -26.100 -15.380  0.00  0.00    -0.210 NA
ATOM     32  C   UNL     1      36.366 -25.040 -14.926  0.00  0.00    +0.225 C 
ATOM     33  C   UNL     1      36.722 -24.288 -13.818  0.00  0.00    +0.058 C 
ATOM     34  C   UNL     1      37.876 -24.648 -13.131  0.00  0.00    +0.006 C 
ATOM     35  C   UNL     1      38.188 -26.419 -14.687  0.00  0.00    +0.102 C 
ATOM     36  C   UNL     1      38.629 -25.732 -13.568  0.00  0.00    +0.021 C 
ENDBRANCH  30  32
ENDBRANCH  29  30
ENDBRANCH  26  29
ENDBRANCH  22  23
ENDBRANCH   3  22
TORSDOF 11
ENDMDL
MODEL 6
REMARK VINA RESULT:     -12.4      5.818     12.303
REMARK  Name = 44123754
REMARK  11 active torsions:
REMARK  status: ('A' for Active; 'I' for Inactive)
REMARK    1  A    between atoms: C_3  and  C_22
REMARK    2  A    between atoms: C_4  and  C_7
REMARK    3  A    between atoms: N_6  and  C_15
REMARK    4  A    between atoms: C_8  and  N_12
REMARK    5  A    between atoms: C_15  and  O_16
REMARK    6  A    between atoms: O_16  and  P_17
REMARK    7  A    between atoms: P_17  and  O_20
REMARK    8  A    between atoms: C_22  and  C_23
REMARK    9  A    between atoms: C_26  and  C_29
REMARK   10  A    between atoms: C_29  and  O_30
REMARK   11  A    between atoms: O_30  and  C_32
REMARK                            x       y       z     vdW  Elec       q    Type
REMARK                         _______ _______ _______ _____ _____    ______ ____
ROOT
ATOM      1  O   UNL     1      36.367 -22.800 -16.815  0.00  0.00    -0.354 OA
ATOM      2  N   UNL     1      35.879 -22.327 -18.028  0.00  0.00    -0.081 NA
ATOM      3  C   UNL     1      34.563 -22.553 -17.982  0.00  0.00    +0.105 C 
ATOM      4  C   UNL     1      35.338 -23.293 -16.080  0.00  0.00    +0.175 C 
ATOM      5  C   UNL     1      34.167 -23.160 -16.777  0.00  0.00    +0.058 C 
ENDROOT
BRANCH   4   7
ATOM      6  N   UNL     1      37.301 -24.496 -13.187  0.00  0.00    -0.266 N 
ATOM      7  C   UNL     1      35.694 -23.823 -14.784  0.00  0.00    +0.048 C 
ATOM      8  C   UNL     1      37.015 -24.001 -14.400  0.00  0.00    +0.156 C 
ATOM      9  C   UNL     1      34.684 -24.167 -13.891  0.00  0.00    +0.003 C 
ATOM     10  C   UNL     1      36.348 -24.835 -12.309  0.00  0.00    +0.064 C 
ATOM     11  C   UNL     1      35.010 -24.680 -12.638  0.00  0.00    +0.016 C 
BRANCH   8  12
ATOM     12  N   UNL     1      38.070 -23.665 -15.276  0.00  0.00    -0.303 NA
ATOM     13  H   UNL     1      38.855 -23.176 -14.937  0.00  0.00    +0.121 HD
ATOM     14  H   UNL     1      38.019 -23.918 -16.226  0.00  0.00    +0.121 HD
ENDBRANCH   8  12
BRANCH   6  15
ATOM     15  C   UNL     1      38.696 -24.683 -12.782  0.00  0.00    +0.251 C 
BRANCH  15  16
ATOM     16  O   UNL     1      39.163 -25.915 -13.316  0.00  0.00    -0.250 OA
BRANCH  16  17
ATOM     17  P   UNL     1      40.285 -25.897 -14.503  0.00  0.00    +0.504 P 
ATOM     18  O   UNL     1      41.185 -27.107 -14.375  0.00  0.00    -0.225 OA
ATOM     19  O   UNL     1      40.875 -24.507 -14.585  0.00  0.00    -0.116 OA
BRANCH  17  20
ATOM     20  O   UNL     1      39.309 -26.111 -15.796  0.00  0.00    -0.301 OA
ATOM     21  H   UNL     1      38.914 -26.996 -15.761  0.00  0.00    +0.222 HD
ENDBRANCH  17  20
ENDBRANCH  16  17
ENDBRANCH  15  16
ENDBRANCH   6  15
ENDBRANCH   4   7
BRANCH   3  22
ATOM     22  C   UNL     1      33.712 -22.171 -19.121  0.00  0.00    +0.075 C 
BRANCH  22  23
ATOM     23  C   UNL     1      34.327 -21.134 -20.052  0.00  0.00    -0.016 C 
ATOM     24  C   UNL     1      33.503 -20.282 -20.788  0.00  0.00    -0.004 C 
ATOM     25  C   UNL     1      35.714 -21.035 -20.168  0.00  0.00    -0.004 C 
ATOM     26  C   UNL     1      35.452 -19.234 -21.757  0.00  0.00    +0.021 C 
ATOM     27  C   UNL     1      34.065 -19.333 -21.641  0.00  0.00    -0.001 C 
ATOM     28  C   UNL     1      36.276 -20.085 -21.021  0.00  0.00    -0.001 C 
BRANCH  26  29
ATOM     29  C   UNL     1      36.053 -18.217 -22.666  0.00  0.00    +0.234 C 
BRANCH  29  30
ATOM     30  O   UNL     1      35.344 -18.207 -23.899  0.00  0.00    -0.455 OA
BRANCH  30  32
ATOM     31  N   UNL     1      34.341 -16.922 -25.551  0.00  0.00    -0.210 NA
ATOM     32  C   UNL     1      34.771 -17.019 -24.272  0.00  0.00    +0.225 C 
ATOM     33  C   UNL     1      34.663 -16.003 -23.338  0.00  0.00    +0.058 C 
ATOM     34  C   UNL     1      34.076 -14.808 -23.741  0.00  0.00    +0.006 C 
ATOM     35  C   UNL     1      33.776 -15.746 -25.906  0.00  0.00    +0.102 C 
ATOM     36  C   UNL     1      33.621 -14.669 -25.047  0.00  0.00    +0.021 C 
ENDBRANCH  30  32
ENDBRANCH  29  30
ENDBRANCH  26  29
ENDBRANCH  22  23
ENDBRANCH   3  22
TORSDOF 11
ENDMDL
MODEL 7
REMARK VINA RESULT:     -12.3      2.454      3.459
REMARK  Name = 44123754
REMARK  11 active torsions:
REMARK  status: ('A' for Active; 'I' for Inactive)
REMARK    1  A    between atoms: C_3  and  C_22
REMARK    2  A    between atoms: C_4  and  C_7
REMARK    3  A    between atoms: N_6  and  C_15
REMARK    4  A    between atoms: C_8  and  N_12
REMARK    5  A    between atoms: C_15  and  O_16
REMARK    6  A    between atoms: O_16  and  P_17
REMARK    7  A    between atoms: P_17  and  O_20
REMARK    8  A    between atoms: C_22  and  C_23
REMARK    9  A    between atoms: C_26  and  C_29
REMARK   10  A    between atoms: C_29  and  O_30
REMARK   11  A    between atoms: O_30  and  C_32
REMARK                            x       y       z     vdW  Elec       q    Type
REMARK                         _______ _______ _______ _____ _____    ______ ____
ROOT
ATOM      1  O   UNL     1      33.263 -14.928 -24.705  0.00  0.00    -0.354 OA
ATOM      2  N   UNL     1      33.871 -16.070 -25.212  0.00  0.00    -0.081 NA
ATOM      3  C   UNL     1      34.602 -16.550 -24.202  0.00  0.00    +0.105 C 
ATOM      4  C   UNL     1      33.643 -14.754 -23.413  0.00  0.00    +0.175 C 
ATOM      5  C   UNL     1      34.496 -15.760 -23.044  0.00  0.00    +0.058 C 
ENDROOT
BRANCH   4   7
ATOM      6  N   UNL     1      32.620 -11.284 -22.654  0.00  0.00    -0.266 N 
ATOM      7  C   UNL     1      33.087 -13.598 -22.749  0.00  0.00    +0.048 C 
ATOM      8  C   UNL     1      33.150 -12.329 -23.304  0.00  0.00    +0.156 C 
ATOM      9  C   UNL     1      32.468 -13.759 -21.513  0.00  0.00    +0.003 C 
ATOM     10  C   UNL     1      32.019 -11.410 -21.463  0.00  0.00    +0.064 C 
ATOM     11  C   UNL     1      31.927 -12.656 -20.859  0.00  0.00    +0.016 C 
BRANCH   8  12
ATOM     12  N   UNL     1      33.768 -12.123 -24.557  0.00  0.00    -0.303 NA
ATOM     13  H   UNL     1      33.250 -11.751 -25.307  0.00  0.00    +0.121 HD
ATOM     14  H   UNL     1      34.718 -12.351 -24.679  0.00  0.00    +0.121 HD
ENDBRANCH   8  12
BRANCH   6  15
ATOM     15  C   UNL     1      32.686  -9.944 -23.241  0.00  0.00    +0.251 C 
BRANCH  15  16
ATOM     16  O   UNL     1      31.896  -9.063 -22.455  0.00  0.00    -0.250 OA
BRANCH  16  17
ATOM     17  P   UNL     1      32.284  -7.477 -22.398  0.00  0.00    +0.504 P 
ATOM     18  O   UNL     1      33.048  -7.183 -21.125  0.00  0.00    -0.225 OA
ATOM     19  O   UNL     1      31.056  -6.670 -22.759  0.00  0.00    -0.116 OA
BRANCH  17  20
ATOM     20  O   UNL     1      33.323  -7.410 -23.656  0.00  0.00    -0.301 OA
ATOM     21  H   UNL     1      32.837  -7.193 -24.466  0.00  0.00    +0.222 HD
ENDBRANCH  17  20
ENDBRANCH  16  17
ENDBRANCH  15  16
ENDBRANCH   6  15
ENDBRANCH   4   7
BRANCH   3  22
ATOM     22  C   UNL     1      35.395 -17.776 -24.387  0.00  0.00    +0.075 C 
BRANCH  22  23
ATOM     23  C   UNL     1      35.641 -18.570 -23.110  0.00  0.00    -0.016 C 
ATOM     24  C   UNL     1      34.644 -19.403 -22.604  0.00  0.00    -0.004 C 
ATOM     25  C   UNL     1      36.865 -18.465 -22.448  0.00  0.00    -0.004 C 
ATOM     26  C   UNL     1      36.093 -20.025 -20.773  0.00  0.00    +0.021 C 
ATOM     27  C   UNL     1      34.869 -20.130 -21.435  0.00  0.00    -0.001 C 
ATOM     28  C   UNL     1      37.090 -19.192 -21.280  0.00  0.00    -0.001 C 
BRANCH  26  29
ATOM     29  C   UNL     1      36.334 -20.804 -19.525  0.00  0.00    +0.234 C 
BRANCH  29  30
ATOM     30  O   UNL     1      35.691 -22.069 -19.626  0.00  0.00    -0.455 OA
BRANCH  30  32
ATOM     31  N   UNL     1      35.550 -22.761 -17.416  0.00  0.00    -0.210 NA
ATOM     32  C   UNL     1      34.911 -22.451 -18.566  0.00  0.00    +0.225 C 
ATOM     33  C   UNL     1      33.536 -22.496 -18.727  0.00  0.00    +0.058 C 
ATOM     34  C   UNL     1      32.765 -22.885 -17.636  0.00  0.00    +0.006 C 
ATOM     35  C   UNL     1      34.768 -23.134 -16.377  0.00  0.00    +0.102 C 
ATOM     36  C   UNL     1      33.386 -23.211 -16.435  0.00  0.00    +0.021 C 
ENDBRANCH  30  32
ENDBRANCH  29  30
ENDBRANCH  26  29
ENDBRANCH  22  23
ENDBRANCH   3  22
TORSDOF 11
ENDMDL
MODEL 8
REMARK VINA RESULT:     -12.2      3.444      5.693
REMARK  Name = 44123754
REMARK  11 active torsions:
REMARK  status: ('A' for Active; 'I' for Inactive)
REMARK    1  A    between atoms: C_3  and  C_22
REMARK    2  A    between atoms: C_4  and  C_7
REMARK    3  A    between atoms: N_6  and  C_15
REMARK    4  A    between atoms: C_8  and  N_12
REMARK    5  A    between atoms: C_15  and  O_16
REMARK    6  A    between atoms: O_16  and  P_17
REMARK    7  A    between atoms: P_17  and  O_20
REMARK    8  A    between atoms: C_22  and  C_23
REMARK    9  A    between atoms: C_26  and  C_29
REMARK   10  A    between atoms: C_29  and  O_30
REMARK   11  A    between atoms: O_30  and  C_32
REMARK                            x       y       z     vdW  Elec       q    Type
REMARK                         _______ _______ _______ _____ _____    ______ ____
ROOT
ATOM      1  O   UNL     1      33.909 -11.420 -23.788  0.00  0.00    -0.354 OA
ATOM      2  N   UNL     1      34.216 -12.399 -24.725  0.00  0.00    -0.081 NA
ATOM      3  C   UNL     1      33.311 -13.362 -24.528  0.00  0.00    +0.105 C 
ATOM      4  C   UNL     1      32.836 -11.819 -23.058  0.00  0.00    +0.175 C 
ATOM      5  C   UNL     1      32.417 -13.049 -23.489  0.00  0.00    +0.058 C 
ENDROOT
BRANCH   4   7
ATOM      6  N   UNL     1      32.103  -8.703 -21.209  0.00  0.00    -0.266 N 
ATOM      7  C   UNL     1      32.397 -10.897 -22.036  0.00  0.00    +0.048 C 
ATOM      8  C   UNL     1      32.524  -9.523 -22.182  0.00  0.00    +0.156 C 
ATOM      9  C   UNL     1      31.830 -11.397 -20.869  0.00  0.00    +0.003 C 
ATOM     10  C   UNL     1      31.554  -9.158 -20.075  0.00  0.00    +0.064 C 
ATOM     11  C   UNL     1      31.402 -10.522 -19.874  0.00  0.00    +0.016 C 
BRANCH   8  12
ATOM     12  N   UNL     1      33.094  -8.974 -23.351  0.00  0.00    -0.303 NA
ATOM     13  H   UNL     1      32.643  -9.088 -24.219  0.00  0.00    +0.121 HD
ATOM     14  H   UNL     1      33.942  -8.478 -23.299  0.00  0.00    +0.121 HD
ENDBRANCH   8  12
BRANCH   6  15
ATOM     15  C   UNL     1      32.236  -7.252 -21.365  0.00  0.00    +0.251 C 
BRANCH  15  16
ATOM     16  O   UNL     1      31.416  -6.834 -22.447  0.00  0.00    -0.250 OA
BRANCH  16  17
ATOM     17  P   UNL     1      31.892  -5.571 -23.368  0.00  0.00    +0.504 P 
ATOM     18  O   UNL     1      30.718  -5.052 -24.171  0.00  0.00    -0.225 OA
ATOM     19  O   UNL     1      33.188  -5.940 -24.056  0.00  0.00    -0.116 OA
BRANCH  17  20
ATOM     20  O   UNL     1      32.232  -4.493 -22.189  0.00  0.00    -0.301 OA
ATOM     21  H   UNL     1      31.407  -4.105 -21.857  0.00  0.00    +0.222 HD
ENDBRANCH  17  20
ENDBRANCH  16  17
ENDBRANCH  15  16
ENDBRANCH   6  15
ENDBRANCH   4   7
BRANCH   3  22
ATOM     22  C   UNL     1      33.336 -14.576 -25.361  0.00  0.00    +0.075 C 
BRANCH  22  23
ATOM     23  C   UNL     1      34.056 -15.762 -24.731  0.00  0.00    -0.016 C 
ATOM     24  C   UNL     1      34.687 -15.619 -23.496  0.00  0.00    -0.004 C 
ATOM     25  C   UNL     1      34.083 -16.991 -25.390  0.00  0.00    -0.004 C 
ATOM     26  C   UNL     1      35.372 -17.934 -23.578  0.00  0.00    +0.021 C 
ATOM     27  C   UNL     1      35.345 -16.704 -22.919  0.00  0.00    -0.001 C 
ATOM     28  C   UNL     1      34.741 -18.077 -24.813  0.00  0.00    -0.001 C 
BRANCH  26  29
ATOM     29  C   UNL     1      36.074 -19.095 -22.960  0.00  0.00    +0.234 C 
BRANCH  29  30
ATOM     30  O   UNL     1      36.059 -18.958 -21.544  0.00  0.00    -0.455 OA
BRANCH  30  32
ATOM     31  N   UNL     1      36.117 -20.738 -20.057  0.00  0.00    -0.210 NA
ATOM     32  C   UNL     1      35.381 -19.916 -20.838  0.00  0.00    +0.225 C 
ATOM     33  C   UNL     1      34.003 -19.990 -20.959  0.00  0.00    +0.058 C 
ATOM     34  C   UNL     1      33.337 -20.970 -20.231  0.00  0.00    +0.006 C 
ATOM     35  C   UNL     1      35.436 -21.677 -19.363  0.00  0.00    +0.102 C 
ATOM     36  C   UNL     1      34.060 -21.834 -19.415  0.00  0.00    +0.021 C 
ENDBRANCH  30  32
ENDBRANCH  29  30
ENDBRANCH  26  29
ENDBRANCH  22  23
ENDBRANCH   3  22
TORSDOF 11
ENDMDL
MODEL 9
REMARK VINA RESULT:     -12.1      1.475      1.987
REMARK  Name = 44123754
REMARK  11 active torsions:
REMARK  status: ('A' for Active; 'I' for Inactive)
REMARK    1  A    between atoms: C_3  and  C_22
REMARK    2  A    between atoms: C_4  and  C_7
REMARK    3  A    between atoms: N_6  and  C_15
REMARK    4  A    between atoms: C_8  and  N_12
REMARK    5  A    between atoms: C_15  and  O_16
REMARK    6  A    between atoms: O_16  and  P_17
REMARK    7  A    between atoms: P_17  and  O_20
REMARK    8  A    between atoms: C_22  and  C_23
REMARK    9  A    between atoms: C_26  and  C_29
REMARK   10  A    between atoms: C_29  and  O_30
REMARK   11  A    between atoms: O_30  and  C_32
REMARK                            x       y       z     vdW  Elec       q    Type
REMARK                         _______ _______ _______ _____ _____    ______ ____
ROOT
ATOM      1  O   UNL     1      34.822 -15.785 -21.150  0.00  0.00    -0.354 OA
ATOM      2  N   UNL     1      35.297 -17.063 -20.882  0.00  0.00    -0.081 NA
ATOM      3  C   UNL     1      35.299 -17.686 -22.064  0.00  0.00    +0.105 C 
ATOM      4  C   UNL     1      34.552 -15.676 -22.477  0.00  0.00    +0.175 C 
ATOM      5  C   UNL     1      34.839 -16.859 -23.104  0.00  0.00    +0.058 C 
ENDROOT
BRANCH   4   7
ATOM      6  N   UNL     1      32.649 -12.510 -22.622  0.00  0.00    -0.266 N 
ATOM      7  C   UNL     1      34.047 -14.393 -22.909  0.00  0.00    +0.048 C 
ATOM      8  C   UNL     1      33.090 -13.698 -22.185  0.00  0.00    +0.156 C 
ATOM      9  C   UNL     1      34.533 -13.835 -24.087  0.00  0.00    +0.003 C 
ATOM     10  C   UNL     1      33.100 -11.950 -23.752  0.00  0.00    +0.064 C 
ATOM     11  C   UNL     1      34.057 -12.600 -24.517  0.00  0.00    +0.016 C 
BRANCH   8  12
ATOM     12  N   UNL     1      32.571 -14.230 -20.985  0.00  0.00    -0.303 NA
ATOM     13  H   UNL     1      32.046 -13.657 -20.379  0.00  0.00    +0.121 HD
ATOM     14  H   UNL     1      32.733 -15.173 -20.754  0.00  0.00    +0.121 HD
ENDBRANCH   8  12
BRANCH   6  15
ATOM     15  C   UNL     1      31.638 -11.777 -21.857  0.00  0.00    +0.251 C 
BRANCH  15  16
ATOM     16  O   UNL     1      32.283 -10.738 -21.132  0.00  0.00    -0.250 OA
BRANCH  16  17
ATOM     17  P   UNL     1      32.126  -9.193 -21.641  0.00  0.00    +0.504 P 
ATOM     18  O   UNL     1      33.347  -8.791 -22.441  0.00  0.00    -0.225 OA
ATOM     19  O   UNL     1      31.662  -8.349 -20.474  0.00  0.00    -0.116 OA
BRANCH  17  20
ATOM     20  O   UNL     1      30.869  -9.375 -22.668  0.00  0.00    -0.301 OA
ATOM     21  H   UNL     1      31.008 -10.165 -23.213  0.00  0.00    +0.222 HD
ENDBRANCH  17  20
ENDBRANCH  16  17
ENDBRANCH  15  16
ENDBRANCH   6  15
ENDBRANCH   4   7
BRANCH   3  22
ATOM     22  C   UNL     1      35.750 -19.084 -22.157  0.00  0.00    +0.075 C 
BRANCH  22  23
ATOM     23  C   UNL     1      35.103 -20.028 -21.151  0.00  0.00    -0.016 C 
ATOM     24  C   UNL     1      35.897 -20.882 -20.386  0.00  0.00    -0.004 C 
ATOM     25  C   UNL     1      33.717 -20.037 -20.995  0.00  0.00    -0.004 C 
ATOM     26  C   UNL     1      33.919 -21.755 -19.309  0.00  0.00    +0.021 C 
ATOM     27  C   UNL     1      35.305 -21.746 -19.465  0.00  0.00    -0.001 C 
ATOM     28  C   UNL     1      33.125 -20.901 -20.074  0.00  0.00    -0.001 C 
BRANCH  26  29
ATOM     29  C   UNL     1      33.286 -22.677 -18.322  0.00  0.00    +0.234 C 
BRANCH  29  30
ATOM     30  O   UNL     1      34.292 -23.470 -17.704  0.00  0.00    -0.455 OA
BRANCH  30  32
ATOM     31  N   UNL     1      35.156 -24.364 -15.745  0.00  0.00    -0.210 NA
ATOM     32  C   UNL     1      34.135 -23.736 -16.369  0.00  0.00    +0.225 C 
ATOM     33  C   UNL     1      32.961 -23.351 -15.741  0.00  0.00    +0.058 C 
ATOM     34  C   UNL     1      32.826 -23.630 -14.386  0.00  0.00    +0.006 C 
ATOM     35  C   UNL     1      34.990 -24.618 -14.427  0.00  0.00    +0.102 C 
ATOM     36  C   UNL     1      33.855 -24.275 -13.709  0.00  0.00    +0.021 C 
ENDBRANCH  30  32
ENDBRANCH  29  30
ENDBRANCH  26  29
ENDBRANCH  22  23
ENDBRANCH   3  22
TORSDOF 11
ENDMDL
