MODEL 1
REMARK VINA RESULT:     -12.2      0.000      0.000
REMARK  Name = 10401956
REMARK  3 active torsions:
REMARK  status: ('A' for Active; 'I' for Inactive)
REMARK    1  A    between atoms: N_1  and  C_13
REMARK    2  A    between atoms: C_8  and  N_20
REMARK    3  A    between atoms: C_21  and  C_23
REMARK                            x       y       z     vdW  Elec       q    Type
REMARK                         _______ _______ _______ _____ _____    ______ ____
ROOT
ATOM      1  N   UNL     1      35.202 -17.373 -22.002  0.00  0.00    -0.301 N 
ATOM      2  N   UNL     1      34.387 -16.728 -26.008  0.00  0.00    -0.248 NA
ATOM      3  N   UNL     1      35.307 -18.085 -24.241  0.00  0.00    -0.233 NA
ATOM      4  C   UNL     1      34.259 -15.965 -23.737  0.00  0.00    +0.117 C 
ATOM      5  C   UNL     1      34.010 -15.801 -25.110  0.00  0.00    +0.067 C 
ATOM      6  C   UNL     1      34.916 -17.137 -23.369  0.00  0.00    +0.115 C 
ATOM      7  C   UNL     1      33.860 -14.990 -22.807  0.00  0.00    +0.001 C 
ATOM      8  C   UNL     1      33.208 -13.840 -23.242  0.00  0.00    +0.047 C 
ATOM      9  C   UNL     1      33.355 -14.641 -25.516  0.00  0.00    +0.016 C 
ATOM     10  C   UNL     1      32.954 -13.666 -24.598  0.00  0.00    +0.016 C 
ATOM     11  C   UNL     1      35.015 -17.820 -25.524  0.00  0.00    +0.251 C 
ATOM     12  H   UNL     1      35.246 -16.574 -21.427  0.00  0.00    +0.153 HD
ENDROOT
BRANCH   1  13
ATOM     13  C   UNL     1      35.427 -18.583 -21.371  0.00  0.00    +0.049 C 
ATOM     14  C   UNL     1      36.728 -18.978 -21.001  0.00  0.00    +0.015 C 
ATOM     15  C   UNL     1      34.361 -19.458 -21.082  0.00  0.00    +0.015 C 
ATOM     16  C   UNL     1      36.954 -20.199 -20.367  0.00  0.00    +0.001 C 
ATOM     17  C   UNL     1      34.589 -20.680 -20.447  0.00  0.00    +0.001 C 
ATOM     18  C   UNL     1      35.886 -21.050 -20.090  0.00  0.00    +0.000 C 
ENDBRANCH   1  13
BRANCH   8  20
ATOM     19  O   UNL     1      32.271 -14.118 -20.402  0.00  0.00    -0.270 OA
ATOM     20  N   UNL     1      32.809 -12.869 -22.324  0.00  0.00    -0.281 N 
ATOM     21  C   UNL     1      32.378 -13.055 -21.002  0.00  0.00    +0.250 C 
ATOM     22  H   UNL     1      32.832 -11.938 -22.643  0.00  0.00    +0.155 HD
BRANCH  21  23
ATOM     23  C   UNL     1      32.038 -11.758 -20.347  0.00  0.00    +0.058 C 
ATOM     24  C   UNL     1      31.305 -10.844 -20.991  0.00  0.00    +0.005 C 
ENDBRANCH  21  23
ENDBRANCH   8  20
TORSDOF 3
ENDMDL
MODEL 2
REMARK VINA RESULT:     -11.8      6.659      9.983
REMARK  Name = 10401956
REMARK  3 active torsions:
REMARK  status: ('A' for Active; 'I' for Inactive)
REMARK    1  A    between atoms: N_1  and  C_13
REMARK    2  A    between atoms: C_8  and  N_20
REMARK    3  A    between atoms: C_21  and  C_23
REMARK                            x       y       z     vdW  Elec       q    Type
REMARK                         _______ _______ _______ _____ _____    ______ ____
ROOT
ATOM      1  N   UNL     1      32.907 -22.312 -18.579  0.00  0.00    -0.301 N 
ATOM      2  N   UNL     1      33.753 -24.343 -15.073  0.00  0.00    -0.248 NA
ATOM      3  N   UNL     1      34.442 -23.443 -17.200  0.00  0.00    -0.233 NA
ATOM      4  C   UNL     1      32.157 -23.197 -16.449  0.00  0.00    +0.117 C 
ATOM      5  C   UNL     1      32.503 -23.893 -15.279  0.00  0.00    +0.067 C 
ATOM      6  C   UNL     1      33.180 -23.005 -17.374  0.00  0.00    +0.115 C 
ATOM      7  C   UNL     1      30.847 -22.731 -16.653  0.00  0.00    +0.001 C 
ATOM      8  C   UNL     1      29.870 -22.957 -15.688  0.00  0.00    +0.047 C 
ATOM      9  C   UNL     1      31.505 -24.104 -14.330  0.00  0.00    +0.016 C 
ATOM     10  C   UNL     1      30.200 -23.644 -14.525  0.00  0.00    +0.016 C 
ATOM     11  C   UNL     1      34.654 -24.093 -16.045  0.00  0.00    +0.251 C 
ATOM     12  H   UNL     1      31.965 -22.305 -18.867  0.00  0.00    +0.153 HD
ENDROOT
BRANCH   1  13
ATOM     13  C   UNL     1      33.796 -21.643 -19.401  0.00  0.00    +0.049 C 
ATOM     14  C   UNL     1      35.176 -21.917 -19.352  0.00  0.00    +0.015 C 
ATOM     15  C   UNL     1      33.345 -20.666 -20.311  0.00  0.00    +0.015 C 
ATOM     16  C   UNL     1      36.072 -21.241 -20.180  0.00  0.00    +0.001 C 
ATOM     17  C   UNL     1      34.242 -19.990 -21.139  0.00  0.00    +0.001 C 
ATOM     18  C   UNL     1      35.605 -20.278 -21.073  0.00  0.00    +0.000 C 
ENDBRANCH   1  13
BRANCH   8  20
ATOM     19  O   UNL     1      27.938 -23.486 -17.925  0.00  0.00    -0.270 OA
ATOM     20  N   UNL     1      28.568 -22.496 -15.885  0.00  0.00    -0.281 N 
ATOM     21  C   UNL     1      27.705 -22.777 -16.955  0.00  0.00    +0.250 C 
ATOM     22  H   UNL     1      28.211 -21.900 -15.187  0.00  0.00    +0.155 HD
BRANCH  21  23
ATOM     23  C   UNL     1      26.391 -22.088 -16.796  0.00  0.00    +0.058 C 
ATOM     24  C   UNL     1      25.978 -21.195 -17.702  0.00  0.00    +0.005 C 
ENDBRANCH  21  23
ENDBRANCH   8  20
TORSDOF 3
ENDMDL
MODEL 3
REMARK VINA RESULT:     -11.3      2.047      6.845
REMARK  Name = 10401956
REMARK  3 active torsions:
REMARK  status: ('A' for Active; 'I' for Inactive)
REMARK    1  A    between atoms: N_1  and  C_13
REMARK    2  A    between atoms: C_8  and  N_20
REMARK    3  A    between atoms: C_21  and  C_23
REMARK                            x       y       z     vdW  Elec       q    Type
REMARK                         _______ _______ _______ _____ _____    ______ ____
ROOT
ATOM      1  N   UNL     1      32.970 -13.943 -22.718  0.00  0.00    -0.301 N 
ATOM      2  N   UNL     1      33.869 -15.533 -26.432  0.00  0.00    -0.248 NA
ATOM      3  N   UNL     1      32.848 -13.832 -25.065  0.00  0.00    -0.233 NA
ATOM      4  C   UNL     1      34.017 -15.685 -24.042  0.00  0.00    +0.117 C 
ATOM      5  C   UNL     1      34.291 -16.177 -25.329  0.00  0.00    +0.067 C 
ATOM      6  C   UNL     1      33.286 -14.501 -23.981  0.00  0.00    +0.115 C 
ATOM      7  C   UNL     1      34.463 -16.365 -22.897  0.00  0.00    +0.001 C 
ATOM      8  C   UNL     1      35.190 -17.545 -23.027  0.00  0.00    +0.047 C 
ATOM      9  C   UNL     1      35.021 -17.359 -25.430  0.00  0.00    +0.016 C 
ATOM     10  C   UNL     1      35.469 -18.042 -24.295  0.00  0.00    +0.016 C 
ATOM     11  C   UNL     1      33.170 -14.396 -26.239  0.00  0.00    +0.251 C 
ATOM     12  H   UNL     1      32.968 -14.571 -21.959  0.00  0.00    +0.153 HD
ENDROOT
BRANCH   1  13
ATOM     13  C   UNL     1      32.664 -12.629 -22.416  0.00  0.00    +0.049 C 
ATOM     14  C   UNL     1      31.920 -12.303 -21.265  0.00  0.00    +0.015 C 
ATOM     15  C   UNL     1      33.087 -11.576 -23.252  0.00  0.00    +0.015 C 
ATOM     16  C   UNL     1      31.611 -10.978 -20.961  0.00  0.00    +0.001 C 
ATOM     17  C   UNL     1      32.777 -10.250 -22.947  0.00  0.00    +0.001 C 
ATOM     18  C   UNL     1      32.040  -9.951 -21.801  0.00  0.00    +0.000 C 
ENDBRANCH   1  13
BRANCH   8  20
ATOM     19  O   UNL     1      37.907 -18.632 -22.357  0.00  0.00    -0.270 OA
ATOM     20  N   UNL     1      35.636 -18.224 -21.894  0.00  0.00    -0.281 N 
ATOM     21  C   UNL     1      36.924 -18.712 -21.631  0.00  0.00    +0.250 C 
ATOM     22  H   UNL     1      34.964 -18.380 -21.191  0.00  0.00    +0.155 HD
BRANCH  21  23
ATOM     23  C   UNL     1      36.996 -19.385 -20.300  0.00  0.00    +0.058 C 
ATOM     24  C   UNL     1      36.488 -20.609 -20.130  0.00  0.00    +0.005 C 
ENDBRANCH  21  23
ENDBRANCH   8  20
TORSDOF 3
ENDMDL
MODEL 4
REMARK VINA RESULT:     -10.7      7.949     11.114
REMARK  Name = 10401956
REMARK  3 active torsions:
REMARK  status: ('A' for Active; 'I' for Inactive)
REMARK    1  A    between atoms: N_1  and  C_13
REMARK    2  A    between atoms: C_8  and  N_20
REMARK    3  A    between atoms: C_21  and  C_23
REMARK                            x       y       z     vdW  Elec       q    Type
REMARK                         _______ _______ _______ _____ _____    ______ ____
ROOT
ATOM      1  N   UNL     1      32.628 -23.815 -16.371  0.00  0.00    -0.301 N 
ATOM      2  N   UNL     1      34.869 -21.750 -19.171  0.00  0.00    -0.248 NA
ATOM      3  N   UNL     1      32.778 -22.693 -18.433  0.00  0.00    -0.233 NA
ATOM      4  C   UNL     1      34.759 -22.886 -17.061  0.00  0.00    +0.117 C 
ATOM      5  C   UNL     1      35.469 -22.181 -18.047  0.00  0.00    +0.067 C 
ATOM      6  C   UNL     1      33.409 -23.110 -17.319  0.00  0.00    +0.115 C 
ATOM      7  C   UNL     1      35.396 -23.331 -15.890  0.00  0.00    +0.001 C 
ATOM      8  C   UNL     1      36.749 -23.075 -15.694  0.00  0.00    +0.047 C 
ATOM      9  C   UNL     1      36.822 -21.938 -17.824  0.00  0.00    +0.016 C 
ATOM     10  C   UNL     1      37.463 -22.377 -16.662  0.00  0.00    +0.016 C 
ATOM     11  C   UNL     1      33.556 -22.030 -19.302  0.00  0.00    +0.251 C 
ATOM     12  H   UNL     1      33.124 -24.406 -15.759  0.00  0.00    +0.153 HD
ENDROOT
BRANCH   1  13
ATOM     13  C   UNL     1      31.256 -23.778 -16.195  0.00  0.00    +0.049 C 
ATOM     14  C   UNL     1      30.575 -24.845 -15.578  0.00  0.00    +0.015 C 
ATOM     15  C   UNL     1      30.500 -22.671 -16.630  0.00  0.00    +0.015 C 
ATOM     16  C   UNL     1      29.192 -24.807 -15.402  0.00  0.00    +0.001 C 
ATOM     17  C   UNL     1      29.117 -22.635 -16.454  0.00  0.00    +0.001 C 
ATOM     18  C   UNL     1      28.463 -23.703 -15.840  0.00  0.00    +0.000 C 
ENDBRANCH   1  13
BRANCH   8  20
ATOM     19  O   UNL     1      38.023 -25.719 -15.057  0.00  0.00    -0.270 OA
ATOM     20  N   UNL     1      37.387 -23.514 -14.533  0.00  0.00    -0.281 N 
ATOM     21  C   UNL     1      37.968 -24.767 -14.288  0.00  0.00    +0.250 C 
ATOM     22  H   UNL     1      37.434 -22.864 -13.795  0.00  0.00    +0.155 HD
BRANCH  21  23
ATOM     23  C   UNL     1      38.550 -24.843 -12.916  0.00  0.00    +0.058 C 
ATOM     24  C   UNL     1      38.264 -23.909 -12.004  0.00  0.00    +0.005 C 
ENDBRANCH  21  23
ENDBRANCH   8  20
TORSDOF 3
ENDMDL
MODEL 5
REMARK VINA RESULT:     -10.5      3.793      9.631
REMARK  Name = 10401956
REMARK  3 active torsions:
REMARK  status: ('A' for Active; 'I' for Inactive)
REMARK    1  A    between atoms: N_1  and  C_13
REMARK    2  A    between atoms: C_8  and  N_20
REMARK    3  A    between atoms: C_21  and  C_23
REMARK                            x       y       z     vdW  Elec       q    Type
REMARK                         _______ _______ _______ _____ _____    ______ ____
ROOT
ATOM      1  N   UNL     1      32.998  -8.755 -23.377  0.00  0.00    -0.301 N 
ATOM      2  N   UNL     1      31.852 -10.328 -19.725  0.00  0.00    -0.248 NA
ATOM      3  N   UNL     1      32.350  -8.441 -21.137  0.00  0.00    -0.233 NA
ATOM      4  C   UNL     1      32.509 -10.692 -22.003  0.00  0.00    +0.117 C 
ATOM      5  C   UNL     1      32.116 -11.168 -20.741  0.00  0.00    +0.067 C 
ATOM      6  C   UNL     1      32.607  -9.310 -22.134  0.00  0.00    +0.115 C 
ATOM      7  C   UNL     1      32.782 -11.580 -23.058  0.00  0.00    +0.001 C 
ATOM      8  C   UNL     1      32.665 -12.952 -22.861  0.00  0.00    +0.047 C 
ATOM      9  C   UNL     1      32.007 -12.547 -20.572  0.00  0.00    +0.016 C 
ATOM     10  C   UNL     1      32.276 -13.436 -21.616  0.00  0.00    +0.016 C 
ATOM     11  C   UNL     1      31.983  -9.010 -19.979  0.00  0.00    +0.251 C 
ATOM     12  H   UNL     1      33.509  -9.350 -23.972  0.00  0.00    +0.153 HD
ENDROOT
BRANCH   1  13
ATOM     13  C   UNL     1      32.751  -7.483 -23.862  0.00  0.00    +0.049 C 
ATOM     14  C   UNL     1      31.454  -6.934 -23.833  0.00  0.00    +0.015 C 
ATOM     15  C   UNL     1      33.791  -6.700 -24.400  0.00  0.00    +0.015 C 
ATOM     16  C   UNL     1      31.206  -5.653 -24.323  0.00  0.00    +0.001 C 
ATOM     17  C   UNL     1      33.542  -5.417 -24.890  0.00  0.00    +0.001 C 
ATOM     18  C   UNL     1      32.249  -4.894 -24.851  0.00  0.00    +0.000 C 
ENDBRANCH   1  13
BRANCH   8  20
ATOM     19  O   UNL     1      35.047 -14.714 -23.349  0.00  0.00    -0.270 OA
ATOM     20  N   UNL     1      32.934 -13.838 -23.904  0.00  0.00    -0.281 N 
ATOM     21  C   UNL     1      34.070 -14.641 -24.084  0.00  0.00    +0.250 C 
ATOM     22  H   UNL     1      32.242 -13.907 -24.601  0.00  0.00    +0.155 HD
BRANCH  21  23
ATOM     23  C   UNL     1      33.978 -15.452 -25.333  0.00  0.00    +0.058 C 
ATOM     24  C   UNL     1      34.559 -16.653 -25.407  0.00  0.00    +0.005 C 
ENDBRANCH  21  23
ENDBRANCH   8  20
TORSDOF 3
ENDMDL
MODEL 6
REMARK VINA RESULT:     -10.4      6.401     10.758
REMARK  Name = 10401956
REMARK  3 active torsions:
REMARK  status: ('A' for Active; 'I' for Inactive)
REMARK    1  A    between atoms: N_1  and  C_13
REMARK    2  A    between atoms: C_8  and  N_20
REMARK    3  A    between atoms: C_21  and  C_23
REMARK                            x       y       z     vdW  Elec       q    Type
REMARK                         _______ _______ _______ _____ _____    ______ ____
ROOT
ATOM      1  N   UNL     1      34.766 -22.505 -18.252  0.00  0.00    -0.301 N 
ATOM      2  N   UNL     1      37.626 -22.608 -15.263  0.00  0.00    -0.248 NA
ATOM      3  N   UNL     1      36.928 -21.987 -17.484  0.00  0.00    -0.233 NA
ATOM      4  C   UNL     1      35.412 -23.156 -16.007  0.00  0.00    +0.117 C 
ATOM      5  C   UNL     1      36.422 -23.161 -15.031  0.00  0.00    +0.067 C 
ATOM      6  C   UNL     1      35.733 -22.549 -17.219  0.00  0.00    +0.115 C 
ATOM      7  C   UNL     1      34.157 -23.736 -15.753  0.00  0.00    +0.001 C 
ATOM      8  C   UNL     1      33.901 -24.327 -14.520  0.00  0.00    +0.047 C 
ATOM      9  C   UNL     1      36.138 -23.759 -13.806  0.00  0.00    +0.016 C 
ATOM     10  C   UNL     1      34.892 -24.338 -13.545  0.00  0.00    +0.016 C 
ATOM     11  C   UNL     1      37.813 -22.051 -16.477  0.00  0.00    +0.251 C 
ATOM     12  H   UNL     1      34.057 -23.189 -18.208  0.00  0.00    +0.153 HD
ENDROOT
BRANCH   1  13
ATOM     13  C   UNL     1      34.688 -21.623 -19.315  0.00  0.00    +0.049 C 
ATOM     14  C   UNL     1      33.444 -21.148 -19.775  0.00  0.00    +0.015 C 
ATOM     15  C   UNL     1      35.852 -21.176 -19.971  0.00  0.00    +0.015 C 
ATOM     16  C   UNL     1      33.367 -20.260 -20.847  0.00  0.00    +0.001 C 
ATOM     17  C   UNL     1      35.774 -20.287 -21.044  0.00  0.00    +0.001 C 
ATOM     18  C   UNL     1      34.531 -19.830 -21.482  0.00  0.00    +0.000 C 
ENDBRANCH   1  13
BRANCH   8  20
ATOM     19  O   UNL     1      31.231 -23.048 -14.015  0.00  0.00    -0.270 OA
ATOM     20  N   UNL     1      32.658 -24.904 -14.263  0.00  0.00    -0.281 N 
ATOM     21  C   UNL     1      31.435 -24.255 -14.033  0.00  0.00    +0.250 C 
ATOM     22  H   UNL     1      32.635 -25.888 -14.239  0.00  0.00    +0.155 HD
BRANCH  21  23
ATOM     23  C   UNL     1      30.332 -25.231 -13.794  0.00  0.00    +0.058 C 
ATOM     24  C   UNL     1      29.532 -25.610 -14.796  0.00  0.00    +0.005 C 
ENDBRANCH  21  23
ENDBRANCH   8  20
TORSDOF 3
ENDMDL
MODEL 7
REMARK VINA RESULT:     -10.3      3.958      6.717
REMARK  Name = 10401956
REMARK  3 active torsions:
REMARK  status: ('A' for Active; 'I' for Inactive)
REMARK    1  A    between atoms: N_1  and  C_13
REMARK    2  A    between atoms: C_8  and  N_20
REMARK    3  A    between atoms: C_21  and  C_23
REMARK                            x       y       z     vdW  Elec       q    Type
REMARK                         _______ _______ _______ _____ _____    ______ ____
ROOT
ATOM      1  N   UNL     1      33.099 -12.573 -24.018  0.00  0.00    -0.301 N 
ATOM      2  N   UNL     1      31.809 -11.284 -20.303  0.00  0.00    -0.248 NA
ATOM      3  N   UNL     1      32.282 -13.056 -21.865  0.00  0.00    -0.233 NA
ATOM      4  C   UNL     1      32.640 -10.748 -22.488  0.00  0.00    +0.117 C 
ATOM      5  C   UNL     1      32.192 -10.370 -21.212  0.00  0.00    +0.067 C 
ATOM      6  C   UNL     1      32.660 -12.115 -22.751  0.00  0.00    +0.115 C 
ATOM      7  C   UNL     1      33.039  -9.784 -23.430  0.00  0.00    +0.001 C 
ATOM      8  C   UNL     1      32.994  -8.432 -23.103  0.00  0.00    +0.047 C 
ATOM      9  C   UNL     1      32.158  -9.010 -20.911  0.00  0.00    +0.016 C 
ATOM     10  C   UNL     1      32.554  -8.045 -21.842  0.00  0.00    +0.016 C 
ATOM     11  C   UNL     1      31.875 -12.577 -20.680  0.00  0.00    +0.251 C 
ATOM     12  H   UNL     1      33.037 -11.923 -24.756  0.00  0.00    +0.153 HD
ENDROOT
BRANCH   1  13
ATOM     13  C   UNL     1      33.606 -13.817 -24.349  0.00  0.00    +0.049 C 
ATOM     14  C   UNL     1      34.593 -14.433 -23.556  0.00  0.00    +0.015 C 
ATOM     15  C   UNL     1      33.149 -14.503 -25.492  0.00  0.00    +0.015 C 
ATOM     16  C   UNL     1      35.104 -15.686 -23.892  0.00  0.00    +0.001 C 
ATOM     17  C   UNL     1      33.661 -15.757 -25.827  0.00  0.00    +0.001 C 
ATOM     18  C   UNL     1      34.639 -16.348 -25.027  0.00  0.00    +0.000 C 
ENDBRANCH   1  13
BRANCH   8  20
ATOM     19  O   UNL     1      35.673  -7.152 -23.557  0.00  0.00    -0.270 OA
ATOM     20  N   UNL     1      33.390  -7.471 -24.033  0.00  0.00    -0.281 N 
ATOM     21  C   UNL     1      34.662  -6.905 -24.203  0.00  0.00    +0.250 C 
ATOM     22  H   UNL     1      32.689  -7.150 -24.646  0.00  0.00    +0.155 HD
BRANCH  21  23
ATOM     23  C   UNL     1      34.676  -5.907 -25.312  0.00  0.00    +0.058 C 
ATOM     24  C   UNL     1      33.559  -5.255 -25.653  0.00  0.00    +0.005 C 
ENDBRANCH  21  23
ENDBRANCH   8  20
TORSDOF 3
ENDMDL
MODEL 8
REMARK VINA RESULT:     -10.1      5.677      9.600
REMARK  Name = 10401956
REMARK  3 active torsions:
REMARK  status: ('A' for Active; 'I' for Inactive)
REMARK    1  A    between atoms: N_1  and  C_13
REMARK    2  A    between atoms: C_8  and  N_20
REMARK    3  A    between atoms: C_21  and  C_23
REMARK                            x       y       z     vdW  Elec       q    Type
REMARK                         _______ _______ _______ _____ _____    ______ ____
ROOT
ATOM      1  N   UNL     1      34.761 -21.743 -19.299  0.00  0.00    -0.301 N 
ATOM      2  N   UNL     1      36.496 -23.063 -15.782  0.00  0.00    -0.248 NA
ATOM      3  N   UNL     1      36.663 -22.008 -17.942  0.00  0.00    -0.233 NA
ATOM      4  C   UNL     1      34.531 -22.812 -17.135  0.00  0.00    +0.117 C 
ATOM      5  C   UNL     1      35.175 -23.240 -15.962  0.00  0.00    +0.067 C 
ATOM      6  C   UNL     1      35.339 -22.201 -18.090  0.00  0.00    +0.115 C 
ATOM      7  C   UNL     1      33.150 -23.002 -17.312  0.00  0.00    +0.001 C 
ATOM      8  C   UNL     1      32.400 -23.622 -16.317  0.00  0.00    +0.047 C 
ATOM      9  C   UNL     1      34.400 -23.857 -14.983  0.00  0.00    +0.016 C 
ATOM     10  C   UNL     1      33.025 -24.049 -15.151  0.00  0.00    +0.016 C 
ATOM     11  C   UNL     1      37.168 -22.456 -16.782  0.00  0.00    +0.251 C 
ATOM     12  H   UNL     1      33.915 -22.175 -19.563  0.00  0.00    +0.153 HD
ENDROOT
BRANCH   1  13
ATOM     13  C   UNL     1      35.232 -20.765 -20.157  0.00  0.00    +0.049 C 
ATOM     14  C   UNL     1      36.600 -20.433 -20.196  0.00  0.00    +0.015 C 
ATOM     15  C   UNL     1      34.356 -20.073 -21.016  0.00  0.00    +0.015 C 
ATOM     16  C   UNL     1      37.074 -19.446 -21.060  0.00  0.00    +0.001 C 
ATOM     17  C   UNL     1      34.832 -19.086 -21.880  0.00  0.00    +0.001 C 
ATOM     18  C   UNL     1      36.191 -18.773 -21.902  0.00  0.00    +0.000 C 
ENDBRANCH   1  13
BRANCH   8  20
ATOM     19  O   UNL     1      30.079 -22.588 -14.716  0.00  0.00    -0.270 OA
ATOM     20  N   UNL     1      31.029 -23.812 -16.488  0.00  0.00    -0.281 N 
ATOM     21  C   UNL     1      29.982 -23.303 -15.705  0.00  0.00    +0.250 C 
ATOM     22  H   UNL     1      30.763 -24.374 -17.251  0.00  0.00    +0.155 HD
BRANCH  21  23
ATOM     23  C   UNL     1      28.650 -23.739 -16.218  0.00  0.00    +0.058 C 
ATOM     24  C   UNL     1      27.832 -22.864 -16.812  0.00  0.00    +0.005 C 
ENDBRANCH  21  23
ENDBRANCH   8  20
TORSDOF 3
ENDMDL
MODEL 9
REMARK VINA RESULT:     -10.0      4.901      8.388
REMARK  Name = 10401956
REMARK  3 active torsions:
REMARK  status: ('A' for Active; 'I' for Inactive)
REMARK    1  A    between atoms: N_1  and  C_13
REMARK    2  A    between atoms: C_8  and  N_20
REMARK    3  A    between atoms: C_21  and  C_23
REMARK                            x       y       z     vdW  Elec       q    Type
REMARK                         _______ _______ _______ _____ _____    ______ ____
ROOT
ATOM      1  N   UNL     1      32.423 -10.719 -22.769  0.00  0.00    -0.301 N 
ATOM      2  N   UNL     1      31.842  -8.208 -19.531  0.00  0.00    -0.248 NA
ATOM      3  N   UNL     1      31.966 -10.419 -20.481  0.00  0.00    -0.233 NA
ATOM      4  C   UNL     1      32.309  -8.470 -21.869  0.00  0.00    +0.117 C 
ATOM      5  C   UNL     1      32.103  -7.668 -20.735  0.00  0.00    +0.067 C 
ATOM      6  C   UNL     1      32.227  -9.846 -21.672  0.00  0.00    +0.115 C 
ATOM      7  C   UNL     1      32.582  -7.895 -23.122  0.00  0.00    +0.001 C 
ATOM      8  C   UNL     1      32.651  -6.511 -23.252  0.00  0.00    +0.047 C 
ATOM      9  C   UNL     1      32.178  -6.286 -20.894  0.00  0.00    +0.016 C 
ATOM     10  C   UNL     1      32.449  -5.706 -22.137  0.00  0.00    +0.016 C 
ATOM     11  C   UNL     1      31.788  -9.555 -19.470  0.00  0.00    +0.251 C 
ATOM     12  H   UNL     1      32.263 -10.333 -23.661  0.00  0.00    +0.153 HD
ENDROOT
BRANCH   1  13
ATOM     13  C   UNL     1      32.812 -12.047 -22.748  0.00  0.00    +0.049 C 
ATOM     14  C   UNL     1      33.751 -12.542 -23.673  0.00  0.00    +0.015 C 
ATOM     15  C   UNL     1      32.278 -12.942 -21.800  0.00  0.00    +0.015 C 
ATOM     16  C   UNL     1      34.142 -13.881 -23.652  0.00  0.00    +0.001 C 
ATOM     17  C   UNL     1      32.670 -14.281 -21.780  0.00  0.00    +0.001 C 
ATOM     18  C   UNL     1      33.602 -14.750 -22.705  0.00  0.00    +0.000 C 
ENDBRANCH   1  13
BRANCH   8  20
ATOM     19  O   UNL     1      35.244  -6.232 -24.742  0.00  0.00    -0.270 OA
ATOM     20  N   UNL     1      32.922  -5.935 -24.493  0.00  0.00    -0.281 N 
ATOM     21  C   UNL     1      34.159  -5.831 -25.146  0.00  0.00    +0.250 C 
ATOM     22  H   UNL     1      32.149  -5.553 -24.969  0.00  0.00    +0.155 HD
BRANCH  21  23
ATOM     23  C   UNL     1      34.030  -5.142 -26.463  0.00  0.00    +0.058 C 
ATOM     24  C   UNL     1      32.973  -4.365 -26.722  0.00  0.00    +0.005 C 
ENDBRANCH  21  23
ENDBRANCH   8  20
TORSDOF 3
ENDMDL
