MODEL 1
REMARK VINA RESULT:     -14.3      0.000      0.000
REMARK  Name = 445756
REMARK  6 active torsions:
REMARK  status: ('A' for Active; 'I' for Inactive)
REMARK    1  A    between atoms: C_3  and  C_11
REMARK    2  A    between atoms: C_6  and  C_22
REMARK    3  A    between atoms: C_11  and  N_12
REMARK    4  A    between atoms: C_22  and  N_23
REMARK    5  A    between atoms: N_23  and  C_25
REMARK    6  A    between atoms: C_30  and  C_33
REMARK                            x       y       z     vdW  Elec       q    Type
REMARK                         _______ _______ _______ _____ _____    ______ ____
ROOT
ATOM      1  N   UNL     1      34.539 -15.263 -22.752  0.00  0.00    -0.261 N 
ATOM      2  N   UNL     1      33.765 -15.279 -20.669  0.00  0.00    -0.392 NA
ATOM      3  C   UNL     1      31.926 -12.245 -21.844  0.00  0.00    -0.017 C 
ATOM      4  C   UNL     1      33.696 -14.185 -22.666  0.00  0.00    +0.079 C 
ATOM      5  C   UNL     1      33.225 -14.217 -21.356  0.00  0.00    +0.128 C 
ATOM      6  C   UNL     1      34.547 -15.884 -21.534  0.00  0.00    +0.183 C 
ATOM      7  C   UNL     1      32.321 -13.230 -20.929  0.00  0.00    +0.084 C 
ATOM      8  C   UNL     1      32.415 -12.240 -23.152  0.00  0.00    -0.005 C 
ATOM      9  C   UNL     1      33.315 -13.215 -23.594  0.00  0.00    +0.017 C 
ATOM     10  C   UNL     1      35.284 -15.668 -23.923  0.00  0.00    +0.120 C 
ENDROOT
BRANCH   3  11
ATOM     11  C   UNL     1      30.964 -11.187 -21.412  0.00  0.00    +0.120 C 
BRANCH  11  12
ATOM     12  N   UNL     1      31.646  -9.924 -21.107  0.00  0.00    -0.260 N 
ATOM     13  N   UNL     1      32.677  -8.368 -19.938  0.00  0.00    -0.394 NA
ATOM     14  C   UNL     1      31.906  -8.938 -22.006  0.00  0.00    +0.079 C 
ATOM     15  C   UNL     1      32.115  -9.555 -19.891  0.00  0.00    +0.164 C 
ATOM     16  C   UNL     1      32.556  -7.967 -21.248  0.00  0.00    +0.128 C 
ATOM     17  C   UNL     1      31.647  -8.799 -23.370  0.00  0.00    +0.017 C 
ATOM     18  C   UNL     1      31.992 -10.408 -18.692  0.00  0.00    +0.084 C 
ATOM     19  C   UNL     1      32.979  -6.781 -21.873  0.00  0.00    +0.086 C 
ATOM     20  C   UNL     1      32.074  -7.612 -23.974  0.00  0.00    -0.003 C 
ATOM     21  C   UNL     1      32.729  -6.620 -23.241  0.00  0.00    -0.019 C 
ENDBRANCH  11  12
ENDBRANCH   3  11
BRANCH   6  22
ATOM     22  C   UNL     1      35.358 -17.091 -21.273  0.00  0.00    +0.164 C 
BRANCH  22  23
ATOM     23  N   UNL     1      34.833 -18.327 -21.842  0.00  0.00    -0.326 N 
ATOM     24  H   UNL     1      34.614 -18.343 -22.803  0.00  0.00    +0.147 HD
BRANCH  23  25
ATOM     25  C   UNL     1      34.625 -19.471 -21.103  0.00  0.00    +0.045 C 
ATOM     26  C   UNL     1      35.707 -20.257 -20.654  0.00  0.00    +0.014 C 
ATOM     27  C   UNL     1      33.321 -19.898 -20.772  0.00  0.00    +0.014 C 
ATOM     28  C   UNL     1      35.497 -21.416 -19.908  0.00  0.00    +0.004 C 
ATOM     29  C   UNL     1      33.111 -21.057 -20.025  0.00  0.00    +0.004 C 
ATOM     30  C   UNL     1      34.198 -21.816 -19.594  0.00  0.00    +0.031 C 
BRANCH  30  33
ATOM     31  N   UNL     1      33.989 -23.004 -17.424  0.00  0.00    -0.343 N 
ATOM     32  N   UNL     1      33.766 -24.175 -19.433  0.00  0.00    -0.285 NA
ATOM     33  C   UNL     1      33.978 -23.025 -18.817  0.00  0.00    +0.117 C 
ATOM     34  H   UNL     1      33.837 -23.835 -16.917  0.00  0.00    +0.144 HD
ATOM     35  H   UNL     1      34.147 -22.158 -16.945  0.00  0.00    +0.144 HD
ATOM     36  H   UNL     1      33.617 -24.995 -18.909  0.00  0.00    +0.188 HD
ENDBRANCH  30  33
ENDBRANCH  23  25
ENDBRANCH  22  23
ENDBRANCH   6  22
TORSDOF 6
ENDMDL
MODEL 2
REMARK VINA RESULT:     -12.8      4.605      8.546
REMARK  Name = 445756
REMARK  6 active torsions:
REMARK  status: ('A' for Active; 'I' for Inactive)
REMARK    1  A    between atoms: C_3  and  C_11
REMARK    2  A    between atoms: C_6  and  C_22
REMARK    3  A    between atoms: C_11  and  N_12
REMARK    4  A    between atoms: C_22  and  N_23
REMARK    5  A    between atoms: N_23  and  C_25
REMARK    6  A    between atoms: C_30  and  C_33
REMARK                            x       y       z     vdW  Elec       q    Type
REMARK                         _______ _______ _______ _____ _____    ______ ____
ROOT
ATOM      1  N   UNL     1      32.980 -22.224 -18.378  0.00  0.00    -0.261 N 
ATOM      2  N   UNL     1      35.163 -22.632 -18.298  0.00  0.00    -0.392 NA
ATOM      3  C   UNL     1      35.238 -20.152 -21.093  0.00  0.00    -0.017 C 
ATOM      4  C   UNL     1      33.535 -21.438 -19.355  0.00  0.00    +0.079 C 
ATOM      5  C   UNL     1      34.899 -21.711 -19.285  0.00  0.00    +0.128 C 
ATOM      6  C   UNL     1      33.991 -22.918 -17.775  0.00  0.00    +0.183 C 
ATOM      7  C   UNL     1      35.774 -21.058 -20.168  0.00  0.00    +0.084 C 
ATOM      8  C   UNL     1      33.865 -19.899 -21.138  0.00  0.00    -0.005 C 
ATOM      9  C   UNL     1      32.979 -20.539 -20.267  0.00  0.00    +0.017 C 
ATOM     10  C   UNL     1      31.574 -22.301 -18.047  0.00  0.00    +0.120 C 
ENDROOT
BRANCH   3  11
ATOM     11  C   UNL     1      36.151 -19.445 -22.041  0.00  0.00    +0.120 C 
BRANCH  11  12
ATOM     12  N   UNL     1      35.426 -18.488 -22.882  0.00  0.00    -0.260 N 
ATOM     13  N   UNL     1      34.382 -17.665 -24.640  0.00  0.00    -0.394 NA
ATOM     14  C   UNL     1      35.072 -17.229 -22.512  0.00  0.00    +0.079 C 
ATOM     15  C   UNL     1      35.002 -18.715 -24.149  0.00  0.00    +0.164 C 
ATOM     16  C   UNL     1      34.416 -16.728 -23.633  0.00  0.00    +0.128 C 
ATOM     17  C   UNL     1      35.254 -16.495 -21.339  0.00  0.00    +0.017 C 
ATOM     18  C   UNL     1      35.228 -19.994 -24.852  0.00  0.00    +0.084 C 
ATOM     19  C   UNL     1      33.905 -15.420 -23.598  0.00  0.00    +0.086 C 
ATOM     20  C   UNL     1      34.740 -15.195 -21.324  0.00  0.00    -0.003 C 
ATOM     21  C   UNL     1      34.076 -14.664 -22.432  0.00  0.00    -0.019 C 
ENDBRANCH  11  12
ENDBRANCH   3  11
BRANCH   6  22
ATOM     22  C   UNL     1      33.744 -23.866 -16.670  0.00  0.00    +0.164 C 
BRANCH  22  23
ATOM     23  N   UNL     1      34.583 -23.679 -15.492  0.00  0.00    -0.326 N 
ATOM     24  H   UNL     1      34.227 -23.147 -14.744  0.00  0.00    +0.147 HD
BRANCH  23  25
ATOM     25  C   UNL     1      35.850 -24.209 -15.376  0.00  0.00    +0.045 C 
ATOM     26  C   UNL     1      36.996 -23.393 -15.485  0.00  0.00    +0.014 C 
ATOM     27  C   UNL     1      36.046 -25.588 -15.146  0.00  0.00    +0.014 C 
ATOM     28  C   UNL     1      38.278 -23.930 -15.369  0.00  0.00    +0.004 C 
ATOM     29  C   UNL     1      37.327 -26.125 -15.030  0.00  0.00    +0.004 C 
ATOM     30  C   UNL     1      38.443 -25.296 -15.142  0.00  0.00    +0.031 C 
BRANCH  30  33
ATOM     31  N   UNL     1      40.283 -26.275 -13.792  0.00  0.00    -0.343 N 
ATOM     32  N   UNL     1      40.544 -25.972 -16.095  0.00  0.00    -0.285 NA
ATOM     33  C   UNL     1      39.780 -25.856 -15.022  0.00  0.00    +0.117 C 
ATOM     34  H   UNL     1      41.192 -26.652 -13.734  0.00  0.00    +0.144 HD
ATOM     35  H   UNL     1      39.731 -26.195 -12.981  0.00  0.00    +0.144 HD
ATOM     36  H   UNL     1      41.449 -26.351 -16.016  0.00  0.00    +0.188 HD
ENDBRANCH  30  33
ENDBRANCH  23  25
ENDBRANCH  22  23
ENDBRANCH   6  22
TORSDOF 6
ENDMDL
MODEL 3
REMARK VINA RESULT:     -12.7      1.225      2.132
REMARK  Name = 445756
REMARK  6 active torsions:
REMARK  status: ('A' for Active; 'I' for Inactive)
REMARK    1  A    between atoms: C_3  and  C_11
REMARK    2  A    between atoms: C_6  and  C_22
REMARK    3  A    between atoms: C_11  and  N_12
REMARK    4  A    between atoms: C_22  and  N_23
REMARK    5  A    between atoms: N_23  and  C_25
REMARK    6  A    between atoms: C_30  and  C_33
REMARK                            x       y       z     vdW  Elec       q    Type
REMARK                         _______ _______ _______ _____ _____    ______ ____
ROOT
ATOM      1  N   UNL     1      34.339 -15.228 -21.871  0.00  0.00    -0.261 N 
ATOM      2  N   UNL     1      34.069 -14.220 -23.834  0.00  0.00    -0.392 NA
ATOM      3  C   UNL     1      31.816 -12.004 -21.839  0.00  0.00    -0.017 C 
ATOM      4  C   UNL     1      33.470 -14.194 -21.635  0.00  0.00    +0.079 C 
ATOM      5  C   UNL     1      33.318 -13.580 -22.876  0.00  0.00    +0.128 C 
ATOM      6  C   UNL     1      34.667 -15.203 -23.198  0.00  0.00    +0.183 C 
ATOM      7  C   UNL     1      32.475 -12.461 -22.987  0.00  0.00    +0.084 C 
ATOM      8  C   UNL     1      31.990 -12.641 -20.608  0.00  0.00    -0.005 C 
ATOM      9  C   UNL     1      32.825 -13.755 -20.478  0.00  0.00    +0.017 C 
ATOM     10  C   UNL     1      34.820 -16.174 -20.890  0.00  0.00    +0.120 C 
ENDROOT
BRANCH   3  11
ATOM     11  C   UNL     1      30.916 -10.815 -21.934  0.00  0.00    +0.120 C 
BRANCH  11  12
ATOM     12  N   UNL     1      31.587  -9.589 -21.492  0.00  0.00    -0.260 N 
ATOM     13  N   UNL     1      32.496  -8.110 -20.134  0.00  0.00    -0.394 NA
ATOM     14  C   UNL     1      31.995  -8.581 -22.308  0.00  0.00    +0.079 C 
ATOM     15  C   UNL     1      31.897  -9.278 -20.210  0.00  0.00    +0.164 C 
ATOM     16  C   UNL     1      32.565  -7.660 -21.433  0.00  0.00    +0.128 C 
ATOM     17  C   UNL     1      31.927  -8.386 -23.688  0.00  0.00    +0.017 C 
ATOM     18  C   UNL     1      31.588 -10.168 -19.073  0.00  0.00    +0.084 C 
ATOM     19  C   UNL     1      33.103  -6.468 -21.948  0.00  0.00    +0.086 C 
ATOM     20  C   UNL     1      32.466  -7.194 -24.182  0.00  0.00    -0.003 C 
ATOM     21  C   UNL     1      33.045  -6.251 -23.330  0.00  0.00    -0.019 C 
ENDBRANCH  11  12
ENDBRANCH   3  11
BRANCH   6  22
ATOM     22  C   UNL     1      35.591 -16.187 -23.798  0.00  0.00    +0.164 C 
BRANCH  22  23
ATOM     23  N   UNL     1      35.102 -17.561 -23.825  0.00  0.00    -0.326 N 
ATOM     24  H   UNL     1      34.589 -17.860 -24.611  0.00  0.00    +0.147 HD
BRANCH  23  25
ATOM     25  C   UNL     1      35.320 -18.460 -22.803  0.00  0.00    +0.045 C 
ATOM     26  C   UNL     1      34.279 -19.282 -22.320  0.00  0.00    +0.014 C 
ATOM     27  C   UNL     1      36.591 -18.589 -22.204  0.00  0.00    +0.014 C 
ATOM     28  C   UNL     1      34.500 -20.191 -21.285  0.00  0.00    +0.004 C 
ATOM     29  C   UNL     1      36.811 -19.497 -21.169  0.00  0.00    +0.004 C 
ATOM     30  C   UNL     1      35.766 -20.298 -20.709  0.00  0.00    +0.031 C 
BRANCH  30  33
ATOM     31  N   UNL     1      36.876 -20.957 -18.588  0.00  0.00    -0.343 N 
ATOM     32  N   UNL     1      35.365 -22.405 -19.626  0.00  0.00    -0.285 NA
ATOM     33  C   UNL     1      35.995 -21.244 -19.629  0.00  0.00    +0.117 C 
ATOM     34  H   UNL     1      37.016 -21.612 -17.866  0.00  0.00    +0.144 HD
ATOM     35  H   UNL     1      37.357 -20.098 -18.573  0.00  0.00    +0.144 HD
ATOM     36  H   UNL     1      35.519 -23.048 -18.896  0.00  0.00    +0.188 HD
ENDBRANCH  30  33
ENDBRANCH  23  25
ENDBRANCH  22  23
ENDBRANCH   6  22
TORSDOF 6
ENDMDL
MODEL 4
REMARK VINA RESULT:     -12.5      5.710     13.159
REMARK  Name = 445756
REMARK  6 active torsions:
REMARK  status: ('A' for Active; 'I' for Inactive)
REMARK    1  A    between atoms: C_3  and  C_11
REMARK    2  A    between atoms: C_6  and  C_22
REMARK    3  A    between atoms: C_11  and  N_12
REMARK    4  A    between atoms: C_22  and  N_23
REMARK    5  A    between atoms: N_23  and  C_25
REMARK    6  A    between atoms: C_30  and  C_33
REMARK                            x       y       z     vdW  Elec       q    Type
REMARK                         _______ _______ _______ _____ _____    ______ ____
ROOT
ATOM      1  N   UNL     1      34.567 -22.350 -18.610  0.00  0.00    -0.261 N 
ATOM      2  N   UNL     1      36.640 -22.122 -17.843  0.00  0.00    -0.392 NA
ATOM      3  C   UNL     1      35.185 -23.771 -14.821  0.00  0.00    -0.017 C 
ATOM      4  C   UNL     1      34.550 -22.883 -17.347  0.00  0.00    +0.079 C 
ATOM      5  C   UNL     1      35.856 -22.728 -16.889  0.00  0.00    +0.128 C 
ATOM      6  C   UNL     1      35.836 -21.908 -18.861  0.00  0.00    +0.183 C 
ATOM      7  C   UNL     1      36.188 -23.180 -15.601  0.00  0.00    +0.084 C 
ATOM      8  C   UNL     1      33.884 -23.913 -15.309  0.00  0.00    -0.005 C 
ATOM      9  C   UNL     1      33.536 -23.470 -16.589  0.00  0.00    +0.017 C 
ATOM     10  C   UNL     1      33.441 -22.272 -19.514  0.00  0.00    +0.120 C 
ENDROOT
BRANCH   3  11
ATOM     11  C   UNL     1      35.516 -24.259 -13.448  0.00  0.00    +0.120 C 
BRANCH  11  12
ATOM     12  N   UNL     1      36.963 -24.301 -13.220  0.00  0.00    -0.260 N 
ATOM     13  N   UNL     1      38.926 -23.827 -12.338  0.00  0.00    -0.394 NA
ATOM     14  C   UNL     1      37.842 -25.084 -13.900  0.00  0.00    +0.079 C 
ATOM     15  C   UNL     1      37.638 -23.567 -12.302  0.00  0.00    +0.164 C 
ATOM     16  C   UNL     1      39.073 -24.770 -13.329  0.00  0.00    +0.128 C 
ATOM     17  C   UNL     1      37.690 -26.013 -14.930  0.00  0.00    +0.017 C 
ATOM     18  C   UNL     1      36.972 -22.611 -11.395  0.00  0.00    +0.084 C 
ATOM     19  C   UNL     1      40.230 -25.412 -13.802  0.00  0.00    +0.086 C 
ATOM     20  C   UNL     1      38.853 -26.641 -15.388  0.00  0.00    -0.003 C 
ATOM     21  C   UNL     1      40.101 -26.348 -14.835  0.00  0.00    -0.019 C 
ENDBRANCH  11  12
ENDBRANCH   3  11
BRANCH   6  22
ATOM     22  C   UNL     1      36.209 -21.273 -20.141  0.00  0.00    +0.164 C 
BRANCH  22  23
ATOM     23  N   UNL     1      36.149 -19.816 -20.151  0.00  0.00    -0.326 N 
ATOM     24  H   UNL     1      36.401 -19.331 -19.331  0.00  0.00    +0.147 HD
BRANCH  23  25
ATOM     25  C   UNL     1      35.754 -19.083 -21.249  0.00  0.00    +0.045 C 
ATOM     26  C   UNL     1      35.302 -19.719 -22.426  0.00  0.00    +0.014 C 
ATOM     27  C   UNL     1      35.790 -17.673 -21.237  0.00  0.00    +0.014 C 
ATOM     28  C   UNL     1      34.905 -18.978 -23.538  0.00  0.00    +0.004 C 
ATOM     29  C   UNL     1      35.393 -16.932 -22.349  0.00  0.00    +0.004 C 
ATOM     30  C   UNL     1      34.951 -17.584 -23.500  0.00  0.00    +0.031 C 
BRANCH  30  33
ATOM     31  N   UNL     1      33.848 -15.608 -24.523  0.00  0.00    -0.343 N 
ATOM     32  N   UNL     1      34.813 -17.250 -25.876  0.00  0.00    -0.285 NA
ATOM     33  C   UNL     1      34.538 -16.811 -24.661  0.00  0.00    +0.117 C 
ATOM     34  H   UNL     1      33.578 -15.100 -25.323  0.00  0.00    +0.144 HD
ATOM     35  H   UNL     1      33.631 -15.265 -23.626  0.00  0.00    +0.144 HD
ATOM     36  H   UNL     1      34.534 -16.728 -26.664  0.00  0.00    +0.188 HD
ENDBRANCH  30  33
ENDBRANCH  23  25
ENDBRANCH  22  23
ENDBRANCH   6  22
TORSDOF 6
ENDMDL
MODEL 5
REMARK VINA RESULT:     -12.5      5.154     12.862
REMARK  Name = 445756
REMARK  6 active torsions:
REMARK  status: ('A' for Active; 'I' for Inactive)
REMARK    1  A    between atoms: C_3  and  C_11
REMARK    2  A    between atoms: C_6  and  C_22
REMARK    3  A    between atoms: C_11  and  N_12
REMARK    4  A    between atoms: C_22  and  N_23
REMARK    5  A    between atoms: N_23  and  C_25
REMARK    6  A    between atoms: C_30  and  C_33
REMARK                            x       y       z     vdW  Elec       q    Type
REMARK                         _______ _______ _______ _____ _____    ______ ____
ROOT
ATOM      1  N   UNL     1      34.326 -21.665 -19.380  0.00  0.00    -0.261 N 
ATOM      2  N   UNL     1      36.343 -22.034 -18.522  0.00  0.00    -0.392 NA
ATOM      3  C   UNL     1      34.373 -23.869 -15.929  0.00  0.00    -0.017 C 
ATOM      4  C   UNL     1      34.112 -22.409 -18.248  0.00  0.00    +0.079 C 
ATOM      5  C   UNL     1      35.387 -22.626 -17.731  0.00  0.00    +0.128 C 
ATOM      6  C   UNL     1      35.673 -21.467 -19.501  0.00  0.00    +0.183 C 
ATOM      7  C   UNL     1      35.528 -23.371 -16.548  0.00  0.00    +0.084 C 
ATOM      8  C   UNL     1      33.108 -23.635 -16.473  0.00  0.00    -0.005 C 
ATOM      9  C   UNL     1      32.949 -22.896 -17.650  0.00  0.00    +0.017 C 
ATOM     10  C   UNL     1      33.306 -21.180 -20.282  0.00  0.00    +0.120 C 
ENDROOT
BRANCH   3  11
ATOM     11  C   UNL     1      34.500 -24.664 -14.671  0.00  0.00    +0.120 C 
BRANCH  11  12
ATOM     12  N   UNL     1      35.899 -24.979 -14.366  0.00  0.00    -0.260 N 
ATOM     13  N   UNL     1      37.850 -26.000 -14.457  0.00  0.00    -0.394 NA
ATOM     14  C   UNL     1      36.671 -24.323 -13.460  0.00  0.00    +0.079 C 
ATOM     15  C   UNL     1      36.627 -25.968 -14.939  0.00  0.00    +0.164 C 
ATOM     16  C   UNL     1      37.896 -24.981 -13.533  0.00  0.00    +0.128 C 
ATOM     17  C   UNL     1      36.429 -23.246 -12.606  0.00  0.00    +0.017 C 
ATOM     18  C   UNL     1      36.079 -26.872 -15.971  0.00  0.00    +0.084 C 
ATOM     19  C   UNL     1      38.953 -24.553 -12.712  0.00  0.00    +0.086 C 
ATOM     20  C   UNL     1      37.493 -22.834 -11.796  0.00  0.00    -0.003 C 
ATOM     21  C   UNL     1      38.733 -23.474 -11.847  0.00  0.00    -0.019 C 
ENDBRANCH  11  12
ENDBRANCH   3  11
BRANCH   6  22
ATOM     22  C   UNL     1      36.257 -20.698 -20.618  0.00  0.00    +0.164 C 
BRANCH  22  23
ATOM     23  N   UNL     1      36.137 -19.249 -20.504  0.00  0.00    -0.326 N 
ATOM     24  H   UNL     1      36.379 -18.825 -19.648  0.00  0.00    +0.147 HD
BRANCH  23  25
ATOM     25  C   UNL     1      35.700 -18.444 -21.534  0.00  0.00    +0.045 C 
ATOM     26  C   UNL     1      35.274 -17.120 -21.294  0.00  0.00    +0.014 C 
ATOM     27  C   UNL     1      35.660 -18.916 -22.863  0.00  0.00    +0.014 C 
ATOM     28  C   UNL     1      34.830 -16.306 -22.336  0.00  0.00    +0.004 C 
ATOM     29  C   UNL     1      35.215 -18.103 -23.904  0.00  0.00    +0.004 C 
ATOM     30  C   UNL     1      34.800 -16.798 -23.641  0.00  0.00    +0.031 C 
BRANCH  30  33
ATOM     31  N   UNL     1      33.628 -14.775 -24.478  0.00  0.00    -0.343 N 
ATOM     32  N   UNL     1      34.579 -16.292 -25.980  0.00  0.00    -0.285 NA
ATOM     33  C   UNL     1      34.335 -15.950 -24.727  0.00  0.00    +0.117 C 
ATOM     34  H   UNL     1      33.322 -14.215 -25.229  0.00  0.00    +0.144 HD
ATOM     35  H   UNL     1      33.433 -14.504 -23.552  0.00  0.00    +0.144 HD
ATOM     36  H   UNL     1      34.265 -15.719 -26.717  0.00  0.00    +0.188 HD
ENDBRANCH  30  33
ENDBRANCH  23  25
ENDBRANCH  22  23
ENDBRANCH   6  22
TORSDOF 6
ENDMDL
MODEL 6
REMARK VINA RESULT:     -12.3      2.423     11.339
REMARK  Name = 445756
REMARK  6 active torsions:
REMARK  status: ('A' for Active; 'I' for Inactive)
REMARK    1  A    between atoms: C_3  and  C_11
REMARK    2  A    between atoms: C_6  and  C_22
REMARK    3  A    between atoms: C_11  and  N_12
REMARK    4  A    between atoms: C_22  and  N_23
REMARK    5  A    between atoms: N_23  and  C_25
REMARK    6  A    between atoms: C_30  and  C_33
REMARK                            x       y       z     vdW  Elec       q    Type
REMARK                         _______ _______ _______ _____ _____    ______ ____
ROOT
ATOM      1  N   UNL     1      35.924 -19.371 -20.926  0.00  0.00    -0.261 N 
ATOM      2  N   UNL     1      33.723 -19.613 -21.110  0.00  0.00    -0.392 NA
ATOM      3  C   UNL     1      34.362 -22.616 -18.979  0.00  0.00    -0.017 C 
ATOM      4  C   UNL     1      35.619 -20.500 -20.211  0.00  0.00    +0.079 C 
ATOM      5  C   UNL     1      34.239 -20.629 -20.341  0.00  0.00    +0.128 C 
ATOM      6  C   UNL     1      34.759 -18.877 -21.444  0.00  0.00    +0.183 C 
ATOM      7  C   UNL     1      33.590 -21.707 -19.715  0.00  0.00    +0.084 C 
ATOM      8  C   UNL     1      35.745 -22.458 -18.866  0.00  0.00    -0.005 C 
ATOM      9  C   UNL     1      36.407 -21.392 -19.482  0.00  0.00    +0.017 C 
ATOM     10  C   UNL     1      37.244 -18.806 -21.098  0.00  0.00    +0.120 C 
ENDROOT
BRANCH   3  11
ATOM     11  C   UNL     1      33.692 -23.768 -18.304  0.00  0.00    +0.120 C 
BRANCH  11  12
ATOM     12  N   UNL     1      33.336 -23.453 -16.917  0.00  0.00    -0.260 N 
ATOM     13  N   UNL     1      33.582 -23.070 -14.761  0.00  0.00    -0.394 NA
ATOM     14  C   UNL     1      32.078 -23.200 -16.468  0.00  0.00    +0.079 C 
ATOM     15  C   UNL     1      34.204 -23.369 -15.880  0.00  0.00    +0.164 C 
ATOM     16  C   UNL     1      32.256 -22.961 -15.108  0.00  0.00    +0.128 C 
ATOM     17  C   UNL     1      30.834 -23.156 -17.098  0.00  0.00    +0.017 C 
ATOM     18  C   UNL     1      35.657 -23.590 -16.031  0.00  0.00    +0.084 C 
ATOM     19  C   UNL     1      31.136 -22.659 -14.315  0.00  0.00    +0.086 C 
ATOM     20  C   UNL     1      29.731 -22.855 -16.292  0.00  0.00    -0.003 C 
ATOM     21  C   UNL     1      29.877 -22.610 -14.925  0.00  0.00    -0.019 C 
ENDBRANCH  11  12
ENDBRANCH   3  11
BRANCH   6  22
ATOM     22  C   UNL     1      34.724 -17.657 -22.276  0.00  0.00    +0.164 C 
BRANCH  22  23
ATOM     23  N   UNL     1      35.004 -16.414 -21.566  0.00  0.00    -0.326 N 
ATOM     24  H   UNL     1      35.756 -16.397 -20.931  0.00  0.00    +0.147 HD
BRANCH  23  25
ATOM     25  C   UNL     1      34.266 -15.263 -21.739  0.00  0.00    +0.045 C 
ATOM     26  C   UNL     1      34.510 -14.395 -22.824  0.00  0.00    +0.014 C 
ATOM     27  C   UNL     1      33.241 -14.911 -20.834  0.00  0.00    +0.014 C 
ATOM     28  C   UNL     1      33.764 -13.229 -22.997  0.00  0.00    +0.004 C 
ATOM     29  C   UNL     1      32.496 -13.746 -21.007  0.00  0.00    +0.004 C 
ATOM     30  C   UNL     1      32.757 -12.904 -22.088  0.00  0.00    +0.031 C 
BRANCH  30  33
ATOM     31  N   UNL     1      30.681 -11.579 -21.778  0.00  0.00    -0.343 N 
ATOM     32  N   UNL     1      32.506 -10.660 -22.911  0.00  0.00    -0.285 NA
ATOM     33  C   UNL     1      31.981 -11.688 -22.268  0.00  0.00    +0.117 C 
ATOM     34  H   UNL     1      30.173 -10.745 -21.911  0.00  0.00    +0.144 HD
ATOM     35  H   UNL     1      30.270 -12.334 -21.298  0.00  0.00    +0.144 HD
ATOM     36  H   UNL     1      31.982  -9.836 -23.034  0.00  0.00    +0.188 HD
ENDBRANCH  30  33
ENDBRANCH  23  25
ENDBRANCH  22  23
ENDBRANCH   6  22
TORSDOF 6
ENDMDL
MODEL 7
REMARK VINA RESULT:     -12.3      3.449     11.584
REMARK  Name = 445756
REMARK  6 active torsions:
REMARK  status: ('A' for Active; 'I' for Inactive)
REMARK    1  A    between atoms: C_3  and  C_11
REMARK    2  A    between atoms: C_6  and  C_22
REMARK    3  A    between atoms: C_11  and  N_12
REMARK    4  A    between atoms: C_22  and  N_23
REMARK    5  A    between atoms: N_23  and  C_25
REMARK    6  A    between atoms: C_30  and  C_33
REMARK                            x       y       z     vdW  Elec       q    Type
REMARK                         _______ _______ _______ _____ _____    ______ ____
ROOT
ATOM      1  N   UNL     1      31.593 -10.966 -22.031  0.00  0.00    -0.261 N 
ATOM      2  N   UNL     1      32.974 -10.182 -23.586  0.00  0.00    -0.392 NA
ATOM      3  C   UNL     1      34.241 -13.698 -23.543  0.00  0.00    -0.017 C 
ATOM      4  C   UNL     1      32.379 -12.030 -22.392  0.00  0.00    +0.079 C 
ATOM      5  C   UNL     1      33.233 -11.514 -23.364  0.00  0.00    +0.128 C 
ATOM      6  C   UNL     1      31.986  -9.886 -22.770  0.00  0.00    +0.183 C 
ATOM      7  C   UNL     1      34.186 -12.360 -23.957  0.00  0.00    +0.084 C 
ATOM      8  C   UNL     1      33.371 -14.185 -22.566  0.00  0.00    -0.005 C 
ATOM      9  C   UNL     1      32.416 -13.358 -21.966  0.00  0.00    +0.017 C 
ATOM     10  C   UNL     1      30.537 -10.988 -21.044  0.00  0.00    +0.120 C 
ENDROOT
BRANCH   3  11
ATOM     11  C   UNL     1      35.246 -14.615 -24.161  0.00  0.00    +0.120 C 
BRANCH  11  12
ATOM     12  N   UNL     1      34.632 -15.865 -24.619  0.00  0.00    -0.260 N 
ATOM     13  N   UNL     1      33.372 -17.230 -25.804  0.00  0.00    -0.394 NA
ATOM     14  C   UNL     1      34.871 -17.095 -24.093  0.00  0.00    +0.079 C 
ATOM     15  C   UNL     1      33.738 -15.979 -25.631  0.00  0.00    +0.164 C 
ATOM     16  C   UNL     1      34.068 -17.940 -24.853  0.00  0.00    +0.128 C 
ATOM     17  C   UNL     1      35.689 -17.544 -23.055  0.00  0.00    +0.017 C 
ATOM     18  C   UNL     1      33.264 -14.821 -26.416  0.00  0.00    +0.084 C 
ATOM     19  C   UNL     1      34.068 -19.318 -24.576  0.00  0.00    +0.086 C 
ATOM     20  C   UNL     1      35.675 -18.918 -22.792  0.00  0.00    -0.003 C 
ATOM     21  C   UNL     1      34.880 -19.791 -23.538  0.00  0.00    -0.019 C 
ENDBRANCH  11  12
ENDBRANCH   3  11
BRANCH   6  22
ATOM     22  C   UNL     1      31.345  -8.563 -22.632  0.00  0.00    +0.164 C 
BRANCH  22  23
ATOM     23  N   UNL     1      32.263  -7.444 -22.450  0.00  0.00    -0.326 N 
ATOM     24  H   UNL     1      32.485  -7.165 -21.532  0.00  0.00    +0.147 HD
BRANCH  23  25
ATOM     25  C   UNL     1      32.833  -6.757 -23.500  0.00  0.00    +0.045 C 
ATOM     26  C   UNL     1      34.191  -6.937 -23.838  0.00  0.00    +0.014 C 
ATOM     27  C   UNL     1      32.079  -5.847 -24.271  0.00  0.00    +0.014 C 
ATOM     28  C   UNL     1      34.768  -6.239 -24.899  0.00  0.00    +0.004 C 
ATOM     29  C   UNL     1      32.656  -5.150 -25.332  0.00  0.00    +0.004 C 
ATOM     30  C   UNL     1      34.001  -5.346 -25.646  0.00  0.00    +0.031 C 
BRANCH  30  33
ATOM     31  N   UNL     1      35.875  -4.936 -27.222  0.00  0.00    -0.343 N 
ATOM     32  N   UNL     1      33.941  -3.628 -27.326  0.00  0.00    -0.285 NA
ATOM     33  C   UNL     1      34.603  -4.617 -26.751  0.00  0.00    +0.117 C 
ATOM     34  H   UNL     1      36.264  -4.430 -27.973  0.00  0.00    +0.144 HD
ATOM     35  H   UNL     1      36.385  -5.668 -26.806  0.00  0.00    +0.144 HD
ATOM     36  H   UNL     1      34.347  -3.134 -28.075  0.00  0.00    +0.188 HD
ENDBRANCH  30  33
ENDBRANCH  23  25
ENDBRANCH  22  23
ENDBRANCH   6  22
TORSDOF 6
ENDMDL
MODEL 8
REMARK VINA RESULT:     -12.2      2.345      4.684
REMARK  Name = 445756
REMARK  6 active torsions:
REMARK  status: ('A' for Active; 'I' for Inactive)
REMARK    1  A    between atoms: C_3  and  C_11
REMARK    2  A    between atoms: C_6  and  C_22
REMARK    3  A    between atoms: C_11  and  N_12
REMARK    4  A    between atoms: C_22  and  N_23
REMARK    5  A    between atoms: N_23  and  C_25
REMARK    6  A    between atoms: C_30  and  C_33
REMARK                            x       y       z     vdW  Elec       q    Type
REMARK                         _______ _______ _______ _____ _____    ______ ____
ROOT
ATOM      1  N   UNL     1      32.527 -12.253 -22.214  0.00  0.00    -0.261 N 
ATOM      2  N   UNL     1      33.483 -11.259 -23.957  0.00  0.00    -0.392 NA
ATOM      3  C   UNL     1      33.039  -8.208 -21.845  0.00  0.00    -0.017 C 
ATOM      4  C   UNL     1      32.600 -10.925 -21.883  0.00  0.00    +0.079 C 
ATOM      5  C   UNL     1      33.201 -10.326 -22.988  0.00  0.00    +0.128 C 
ATOM      6  C   UNL     1      33.065 -12.403 -23.462  0.00  0.00    +0.183 C 
ATOM      7  C   UNL     1      33.429  -8.939 -22.975  0.00  0.00    +0.084 C 
ATOM      8  C   UNL     1      32.440  -8.838 -20.752  0.00  0.00    -0.005 C 
ATOM      9  C   UNL     1      32.206 -10.217 -20.747  0.00  0.00    +0.017 C 
ATOM     10  C   UNL     1      31.977 -13.305 -21.389  0.00  0.00    +0.120 C 
ENDROOT
BRANCH   3  11
ATOM     11  C   UNL     1      33.273  -6.733 -21.810  0.00  0.00    +0.120 C 
BRANCH  11  12
ATOM     12  N   UNL     1      32.737  -6.069 -23.002  0.00  0.00    -0.260 N 
ATOM     13  N   UNL     1      31.309  -5.017 -24.310  0.00  0.00    -0.394 NA
ATOM     14  C   UNL     1      33.414  -5.881 -24.166  0.00  0.00    +0.079 C 
ATOM     15  C   UNL     1      31.493  -5.546 -23.120  0.00  0.00    +0.164 C 
ATOM     16  C   UNL     1      32.496  -5.217 -24.976  0.00  0.00    +0.128 C 
ATOM     17  C   UNL     1      34.702  -6.216 -24.582  0.00  0.00    +0.017 C 
ATOM     18  C   UNL     1      30.500  -5.584 -22.027  0.00  0.00    +0.084 C 
ATOM     19  C   UNL     1      32.871  -4.858 -26.282  0.00  0.00    +0.086 C 
ATOM     20  C   UNL     1      35.057  -5.851 -25.885  0.00  0.00    -0.003 C 
ATOM     21  C   UNL     1      34.160  -5.184 -26.722  0.00  0.00    -0.019 C 
ENDBRANCH  11  12
ENDBRANCH   3  11
BRANCH   6  22
ATOM     22  C   UNL     1      33.146 -13.717 -24.131  0.00  0.00    +0.164 C 
BRANCH  22  23
ATOM     23  N   UNL     1      34.457 -14.354 -24.092  0.00  0.00    -0.326 N 
ATOM     24  H   UNL     1      35.197 -13.932 -24.586  0.00  0.00    +0.147 HD
BRANCH  23  25
ATOM     25  C   UNL     1      34.712 -15.518 -23.399  0.00  0.00    +0.045 C 
ATOM     26  C   UNL     1      34.731 -15.538 -21.988  0.00  0.00    +0.014 C 
ATOM     27  C   UNL     1      34.964 -16.729 -24.076  0.00  0.00    +0.014 C 
ATOM     28  C   UNL     1      34.991 -16.715 -21.287  0.00  0.00    +0.004 C 
ATOM     29  C   UNL     1      35.224 -17.907 -23.376  0.00  0.00    +0.004 C 
ATOM     30  C   UNL     1      35.238 -17.900 -21.981  0.00  0.00    +0.031 C 
BRANCH  30  33
ATOM     31  N   UNL     1      36.754 -19.364 -20.668  0.00  0.00    -0.343 N 
ATOM     32  N   UNL     1      34.568 -20.046 -21.133  0.00  0.00    -0.285 NA
ATOM     33  C   UNL     1      35.510 -19.127 -21.250  0.00  0.00    +0.117 C 
ATOM     34  H   UNL     1      36.916 -20.202 -20.177  0.00  0.00    +0.144 HD
ATOM     35  H   UNL     1      37.470 -18.693 -20.746  0.00  0.00    +0.144 HD
ATOM     36  H   UNL     1      34.750 -20.879 -20.639  0.00  0.00    +0.188 HD
ENDBRANCH  30  33
ENDBRANCH  23  25
ENDBRANCH  22  23
ENDBRANCH   6  22
TORSDOF 6
ENDMDL
MODEL 9
REMARK VINA RESULT:     -12.1      4.670      8.373
REMARK  Name = 445756
REMARK  6 active torsions:
REMARK  status: ('A' for Active; 'I' for Inactive)
REMARK    1  A    between atoms: C_3  and  C_11
REMARK    2  A    between atoms: C_6  and  C_22
REMARK    3  A    between atoms: C_11  and  N_12
REMARK    4  A    between atoms: C_22  and  N_23
REMARK    5  A    between atoms: N_23  and  C_25
REMARK    6  A    between atoms: C_30  and  C_33
REMARK                            x       y       z     vdW  Elec       q    Type
REMARK                         _______ _______ _______ _____ _____    ______ ____
ROOT
ATOM      1  N   UNL     1      33.333 -21.963 -18.900  0.00  0.00    -0.261 N 
ATOM      2  N   UNL     1      35.519 -22.339 -19.041  0.00  0.00    -0.392 NA
ATOM      3  C   UNL     1      35.355 -19.523 -21.493  0.00  0.00    -0.017 C 
ATOM      4  C   UNL     1      33.804 -21.050 -19.808  0.00  0.00    +0.079 C 
ATOM      5  C   UNL     1      35.171 -21.305 -19.878  0.00  0.00    +0.128 C 
ATOM      6  C   UNL     1      34.394 -22.710 -18.471  0.00  0.00    +0.183 C 
ATOM      7  C   UNL     1      35.969 -20.529 -20.736  0.00  0.00    +0.084 C 
ATOM      8  C   UNL     1      33.981 -19.291 -21.400  0.00  0.00    -0.005 C 
ATOM      9  C   UNL     1      33.171 -20.053 -20.552  0.00  0.00    +0.017 C 
ATOM     10  C   UNL     1      31.959 -22.107 -18.475  0.00  0.00    +0.120 C 
ENDROOT
BRANCH   3  11
ATOM     11  C   UNL     1      36.184 -18.685 -22.410  0.00  0.00    +0.120 C 
BRANCH  11  12
ATOM     12  N   UNL     1      35.380 -18.093 -23.482  0.00  0.00    -0.260 N 
ATOM     13  N   UNL     1      34.240 -17.942 -25.363  0.00  0.00    -0.394 NA
ATOM     14  C   UNL     1      34.959 -16.800 -23.525  0.00  0.00    +0.079 C 
ATOM     15  C   UNL     1      34.937 -18.742 -24.586  0.00  0.00    +0.164 C 
ATOM     16  C   UNL     1      34.243 -16.727 -24.717  0.00  0.00    +0.128 C 
ATOM     17  C   UNL     1      35.127 -15.716 -22.664  0.00  0.00    +0.017 C 
ATOM     18  C   UNL     1      35.222 -20.167 -24.846  0.00  0.00    +0.084 C 
ATOM     19  C   UNL     1      33.654 -15.506 -25.086  0.00  0.00    +0.086 C 
ATOM     20  C   UNL     1      34.534 -14.509 -23.048  0.00  0.00    -0.003 C 
ATOM     21  C   UNL     1      33.810 -14.403 -24.238  0.00  0.00    -0.019 C 
ENDBRANCH  11  12
ENDBRANCH   3  11
BRANCH   6  22
ATOM     22  C   UNL     1      34.242 -23.795 -17.481  0.00  0.00    +0.164 C 
BRANCH  22  23
ATOM     23  N   UNL     1      33.814 -23.369 -16.153  0.00  0.00    -0.326 N 
ATOM     24  H   UNL     1      32.897 -23.026 -16.045  0.00  0.00    +0.147 HD
BRANCH  23  25
ATOM     25  C   UNL     1      34.630 -23.419 -15.044  0.00  0.00    +0.045 C 
ATOM     26  C   UNL     1      34.175 -23.969 -13.827  0.00  0.00    +0.014 C 
ATOM     27  C   UNL     1      35.949 -22.919 -15.086  0.00  0.00    +0.014 C 
ATOM     28  C   UNL     1      35.001 -24.018 -12.704  0.00  0.00    +0.004 C 
ATOM     29  C   UNL     1      36.775 -22.967 -13.963  0.00  0.00    +0.004 C 
ATOM     30  C   UNL     1      36.300 -23.516 -12.772  0.00  0.00    +0.031 C 
BRANCH  30  33
ATOM     31  N   UNL     1      36.656 -23.892 -10.343  0.00  0.00    -0.343 N 
ATOM     32  N   UNL     1      38.449 -23.293 -11.718  0.00  0.00    -0.285 NA
ATOM     33  C   UNL     1      37.161 -23.565 -11.600  0.00  0.00    +0.117 C 
ATOM     34  H   UNL     1      37.257 -23.920  -9.563  0.00  0.00    +0.144 HD
ATOM     35  H   UNL     1      35.699 -24.096 -10.235  0.00  0.00    +0.144 HD
ATOM     36  H   UNL     1      39.033 -23.326 -10.925  0.00  0.00    +0.188 HD
ENDBRANCH  30  33
ENDBRANCH  23  25
ENDBRANCH  22  23
ENDBRANCH   6  22
TORSDOF 6
ENDMDL
