MODEL 1
REMARK VINA RESULT:     -12.6      0.000      0.000
REMARK  Name = 24878044
REMARK  6 active torsions:
REMARK  status: ('A' for Active; 'I' for Inactive)
REMARK    1  A    between atoms: N_2  and  C_6
REMARK    2  A    between atoms: C_3  and  C_18
REMARK    3  A    between atoms: C_7  and  S_12
REMARK    4  A    between atoms: S_12  and  N_15
REMARK    5  A    between atoms: C_18  and  S_19
REMARK    6  A    between atoms: S_19  and  C_31
REMARK                            x       y       z     vdW  Elec       q    Type
REMARK                         _______ _______ _______ _____ _____    ______ ____
ROOT
ATOM      1  O   UNL     1      34.792 -19.767 -24.618  0.00  0.00    -0.274 OA
ATOM      2  N   UNL     1      34.720 -18.525 -22.624  0.00  0.00    -0.283 N 
ATOM      3  C   UNL     1      34.821 -18.707 -23.999  0.00  0.00    +0.238 C 
ATOM      4  H   UNL     1      34.777 -17.596 -22.302  0.00  0.00    +0.155 HD
ENDROOT
BRANCH   2   6
ATOM      5 CL   UNL     1      37.228 -19.454 -21.165  0.00  0.00    -0.081 Cl
ATOM      6  C   UNL     1      34.541 -19.522 -21.635  0.00  0.00    +0.061 C 
ATOM      7  C   UNL     1      34.119 -21.484 -19.698  0.00  0.00    +0.123 C 
ATOM      8  C   UNL     1      35.617 -20.022 -20.903  0.00  0.00    +0.072 C 
ATOM      9  C   UNL     1      33.253 -20.003 -21.398  0.00  0.00    +0.017 C 
ATOM     10  C   UNL     1      35.406 -21.003 -19.935  0.00  0.00    +0.033 C 
ATOM     11  C   UNL     1      33.041 -20.984 -20.429  0.00  0.00    +0.021 C 
BRANCH   7  12
ATOM     12  S   UNL     1      33.854 -22.713 -18.486  0.00  0.00    +0.057 S 
ATOM     13  O   UNL     1      35.014 -22.749 -17.607  0.00  0.00    -0.153 OA
ATOM     14  O   UNL     1      32.524 -22.528 -17.923  0.00  0.00    -0.153 OA
BRANCH  12  15
ATOM     15  N   UNL     1      33.850 -24.125 -19.450  0.00  0.00    -0.203 NA
ATOM     16  H   UNL     1      34.349 -24.870 -18.963  0.00  0.00    +0.144 HD
ATOM     17  H   UNL     1      34.310 -23.931 -20.339  0.00  0.00    +0.144 HD
ENDBRANCH  12  15
ENDBRANCH   7  12
ENDBRANCH   2   6
BRANCH   3  18
ATOM     18  C   UNL     1      35.006 -17.395 -24.732  0.00  0.00    +0.152 C 
BRANCH  18  19
ATOM     19  S   UNL     1      35.463 -16.119 -23.537  0.00  0.00    -0.047 S 
BRANCH  19  31
ATOM     20  O   UNL     1      33.928 -14.663 -25.057  0.00  0.00    -0.262 OA
ATOM     21  N   UNL     1      33.722 -14.192 -22.763  0.00  0.00    -0.250 N 
ATOM     22  C   UNL     1      32.294 -14.486 -20.745  0.00  0.00    +0.027 C 
ATOM     23  C   UNL     1      32.231 -12.991 -20.514  0.00  0.00    +0.029 C 
ATOM     24  C   UNL     1      33.599 -14.838 -21.439  0.00  0.00    +0.099 C 
ATOM     25  C   UNL     1      32.551 -12.232 -21.775  0.00  0.00    -0.009 C 
ATOM     26  C   UNL     1      33.272 -12.814 -22.843  0.00  0.00    +0.051 C 
ATOM     27  C   UNL     1      32.140 -10.887 -21.843  0.00  0.00    -0.007 C 
ATOM     28  C   UNL     1      33.569 -11.995 -23.949  0.00  0.00    +0.014 C 
ATOM     29  C   UNL     1      32.426 -10.110 -22.959  0.00  0.00    -0.022 C 
ATOM     30  C   UNL     1      33.145 -10.664 -24.009  0.00  0.00    -0.003 C 
ATOM     31  C   UNL     1      34.240 -14.874 -23.889  0.00  0.00    +0.280 C 
ATOM     32  C   UNL     1      31.952  -8.699 -23.033  0.00  0.00    +0.031 C 
ENDBRANCH  19  31
ENDBRANCH  18  19
ENDBRANCH   3  18
TORSDOF 6
ENDMDL
MODEL 2
REMARK VINA RESULT:     -12.5      4.078     10.751
REMARK  Name = 24878044
REMARK  6 active torsions:
REMARK  status: ('A' for Active; 'I' for Inactive)
REMARK    1  A    between atoms: N_2  and  C_6
REMARK    2  A    between atoms: C_3  and  C_18
REMARK    3  A    between atoms: C_7  and  S_12
REMARK    4  A    between atoms: S_12  and  N_15
REMARK    5  A    between atoms: C_18  and  S_19
REMARK    6  A    between atoms: S_19  and  C_31
REMARK                            x       y       z     vdW  Elec       q    Type
REMARK                         _______ _______ _______ _____ _____    ______ ____
ROOT
ATOM      1  O   UNL     1      34.052 -19.900 -20.930  0.00  0.00    -0.274 OA
ATOM      2  N   UNL     1      35.913 -18.960 -22.015  0.00  0.00    -0.283 N 
ATOM      3  C   UNL     1      35.263 -19.788 -21.107  0.00  0.00    +0.238 C 
ATOM      4  H   UNL     1      36.897 -18.994 -22.007  0.00  0.00    +0.155 HD
ENDROOT
BRANCH   2   6
ATOM      5 CL   UNL     1      35.139 -20.150 -24.711  0.00  0.00    -0.081 Cl
ATOM      6  C   UNL     1      35.324 -18.075 -22.949  0.00  0.00    +0.061 C 
ATOM      7  C   UNL     1      34.166 -16.278 -24.741  0.00  0.00    +0.123 C 
ATOM      8  C   UNL     1      34.929 -18.509 -24.214  0.00  0.00    +0.072 C 
ATOM      9  C   UNL     1      35.140 -16.741 -22.580  0.00  0.00    +0.017 C 
ATOM     10  C   UNL     1      34.350 -17.610 -25.110  0.00  0.00    +0.033 C 
ATOM     11  C   UNL     1      34.561 -15.843 -23.476  0.00  0.00    +0.021 C 
BRANCH   7  12
ATOM     12  S   UNL     1      33.442 -15.153 -25.863  0.00  0.00    +0.057 S 
ATOM     13  O   UNL     1      32.742 -14.129 -25.100  0.00  0.00    -0.153 OA
ATOM     14  O   UNL     1      34.447 -14.765 -26.843  0.00  0.00    -0.153 OA
BRANCH  12  15
ATOM     15  N   UNL     1      32.288 -16.154 -26.629  0.00  0.00    -0.203 NA
ATOM     16  H   UNL     1      32.629 -16.420 -27.553  0.00  0.00    +0.144 HD
ATOM     17  H   UNL     1      31.407 -15.649 -26.723  0.00  0.00    +0.144 HD
ENDBRANCH  12  15
ENDBRANCH   7  12
ENDBRANCH   2   6
BRANCH   3  18
ATOM     18  C   UNL     1      36.238 -20.591 -20.273  0.00  0.00    +0.152 C 
BRANCH  18  19
ATOM     19  S   UNL     1      35.362 -21.988 -19.535  0.00  0.00    -0.047 S 
BRANCH  19  31
ATOM     20  O   UNL     1      36.984 -21.241 -17.639  0.00  0.00    -0.262 OA
ATOM     21  N   UNL     1      35.403 -22.844 -16.964  0.00  0.00    -0.250 N 
ATOM     22  C   UNL     1      33.291 -23.213 -15.699  0.00  0.00    +0.027 C 
ATOM     23  C   UNL     1      33.942 -24.266 -14.827  0.00  0.00    +0.029 C 
ATOM     24  C   UNL     1      33.968 -23.189 -17.058  0.00  0.00    +0.099 C 
ATOM     25  C   UNL     1      35.441 -24.125 -14.832  0.00  0.00    -0.009 C 
ATOM     26  C   UNL     1      36.132 -23.448 -15.864  0.00  0.00    +0.051 C 
ATOM     27  C   UNL     1      36.152 -24.734 -13.780  0.00  0.00    -0.007 C 
ATOM     28  C   UNL     1      37.538 -23.429 -15.800  0.00  0.00    +0.014 C 
ATOM     29  C   UNL     1      37.539 -24.676 -13.731  0.00  0.00    -0.022 C 
ATOM     30  C   UNL     1      38.232 -24.028 -14.744  0.00  0.00    -0.003 C 
ATOM     31  C   UNL     1      36.030 -21.973 -17.885  0.00  0.00    +0.280 C 
ATOM     32  C   UNL     1      38.277 -25.293 -12.592  0.00  0.00    +0.031 C 
ENDBRANCH  19  31
ENDBRANCH  18  19
ENDBRANCH   3  18
TORSDOF 6
ENDMDL
MODEL 3
REMARK VINA RESULT:     -12.2      2.446      3.448
REMARK  Name = 24878044
REMARK  6 active torsions:
REMARK  status: ('A' for Active; 'I' for Inactive)
REMARK    1  A    between atoms: N_2  and  C_6
REMARK    2  A    between atoms: C_3  and  C_18
REMARK    3  A    between atoms: C_7  and  S_12
REMARK    4  A    between atoms: S_12  and  N_15
REMARK    5  A    between atoms: C_18  and  S_19
REMARK    6  A    between atoms: S_19  and  C_31
REMARK                            x       y       z     vdW  Elec       q    Type
REMARK                         _______ _______ _______ _____ _____    ______ ____
ROOT
ATOM      1  O   UNL     1      37.370 -18.857 -20.233  0.00  0.00    -0.274 OA
ATOM      2  N   UNL     1      35.688 -20.300 -21.015  0.00  0.00    -0.283 N 
ATOM      3  C   UNL     1      36.636 -19.288 -21.118  0.00  0.00    +0.238 C 
ATOM      4  H   UNL     1      35.179 -20.505 -21.832  0.00  0.00    +0.155 HD
ENDROOT
BRANCH   2   6
ATOM      5 CL   UNL     1      32.745 -20.971 -20.600  0.00  0.00    -0.081 Cl
ATOM      6  C   UNL     1      35.372 -21.070 -19.870  0.00  0.00    +0.061 C 
ATOM      7  C   UNL     1      34.819 -22.590 -17.598  0.00  0.00    +0.123 C 
ATOM      8  C   UNL     1      34.059 -21.437 -19.580  0.00  0.00    +0.072 C 
ATOM      9  C   UNL     1      36.410 -21.464 -19.024  0.00  0.00    +0.017 C 
ATOM     10  C   UNL     1      33.782 -22.197 -18.444  0.00  0.00    +0.033 C 
ATOM     11  C   UNL     1      36.133 -22.224 -17.888  0.00  0.00    +0.021 C 
BRANCH   7  12
ATOM     12  S   UNL     1      34.473 -23.542 -16.175  0.00  0.00    +0.057 S 
ATOM     13  O   UNL     1      33.032 -23.723 -16.083  0.00  0.00    -0.153 OA
ATOM     14  O   UNL     1      35.351 -24.704 -16.171  0.00  0.00    -0.153 OA
BRANCH  12  15
ATOM     15  N   UNL     1      34.974 -22.473 -14.939  0.00  0.00    -0.203 NA
ATOM     16  H   UNL     1      35.111 -22.995 -14.073  0.00  0.00    +0.144 HD
ATOM     17  H   UNL     1      34.260 -21.759 -14.797  0.00  0.00    +0.144 HD
ENDBRANCH  12  15
ENDBRANCH   7  12
ENDBRANCH   2   6
BRANCH   3  18
ATOM     18  C   UNL     1      36.684 -18.697 -22.511  0.00  0.00    +0.152 C 
BRANCH  18  19
ATOM     19  S   UNL     1      35.008 -18.242 -23.010  0.00  0.00    -0.047 S 
BRANCH  19  31
ATOM     20  O   UNL     1      35.370 -16.384 -21.221  0.00  0.00    -0.262 OA
ATOM     21  N   UNL     1      34.204 -15.657 -23.128  0.00  0.00    -0.250 N 
ATOM     22  C   UNL     1      34.371 -14.355 -25.243  0.00  0.00    +0.027 C 
ATOM     23  C   UNL     1      33.205 -13.473 -24.848  0.00  0.00    +0.029 C 
ATOM     24  C   UNL     1      34.212 -15.724 -24.605  0.00  0.00    +0.099 C 
ATOM     25  C   UNL     1      32.982 -13.502 -23.359  0.00  0.00    -0.009 C 
ATOM     26  C   UNL     1      33.458 -14.556 -22.545  0.00  0.00    +0.051 C 
ATOM     27  C   UNL     1      32.235 -12.450 -22.796  0.00  0.00    -0.007 C 
ATOM     28  C   UNL     1      33.140 -14.514 -21.174  0.00  0.00    +0.014 C 
ATOM     29  C   UNL     1      31.958 -12.422 -21.434  0.00  0.00    -0.022 C 
ATOM     30  C   UNL     1      32.407 -13.457 -20.626  0.00  0.00    -0.003 C 
ATOM     31  C   UNL     1      34.886 -16.603 -22.327  0.00  0.00    +0.280 C 
ATOM     32  C   UNL     1      31.198 -11.283 -20.846  0.00  0.00    +0.031 C 
ENDBRANCH  19  31
ENDBRANCH  18  19
ENDBRANCH   3  18
TORSDOF 6
ENDMDL
MODEL 4
REMARK VINA RESULT:     -12.1      4.449      6.570
REMARK  Name = 24878044
REMARK  6 active torsions:
REMARK  status: ('A' for Active; 'I' for Inactive)
REMARK    1  A    between atoms: N_2  and  C_6
REMARK    2  A    between atoms: C_3  and  C_18
REMARK    3  A    between atoms: C_7  and  S_12
REMARK    4  A    between atoms: S_12  and  N_15
REMARK    5  A    between atoms: C_18  and  S_19
REMARK    6  A    between atoms: S_19  and  C_31
REMARK                            x       y       z     vdW  Elec       q    Type
REMARK                         _______ _______ _______ _____ _____    ______ ____
ROOT
ATOM      1  O   UNL     1      34.993 -22.441 -18.165  0.00  0.00    -0.274 OA
ATOM      2  N   UNL     1      37.072 -22.182 -17.101  0.00  0.00    -0.283 N 
ATOM      3  C   UNL     1      36.143 -22.013 -18.122  0.00  0.00    +0.238 C 
ATOM      4  H   UNL     1      37.957 -21.776 -17.246  0.00  0.00    +0.155 HD
ENDROOT
BRANCH   2   6
ATOM      5 CL   UNL     1      39.435 -23.831 -16.108  0.00  0.00    -0.081 Cl
ATOM      6  C   UNL     1      36.891 -22.871 -15.877  0.00  0.00    +0.061 C 
ATOM      7  C   UNL     1      36.469 -24.200 -13.462  0.00  0.00    +0.123 C 
ATOM      8  C   UNL     1      37.904 -23.655 -15.327  0.00  0.00    +0.072 C 
ATOM      9  C   UNL     1      35.666 -22.751 -15.220  0.00  0.00    +0.017 C 
ATOM     10  C   UNL     1      37.693 -24.319 -14.119  0.00  0.00    +0.033 C 
ATOM     11  C   UNL     1      35.455 -23.415 -14.011  0.00  0.00    +0.021 C 
BRANCH   7  12
ATOM     12  S   UNL     1      36.204 -25.032 -11.949  0.00  0.00    +0.057 S 
ATOM     13  O   UNL     1      34.780 -25.002 -11.652  0.00  0.00    -0.153 OA
ATOM     14  O   UNL     1      36.909 -26.306 -11.993  0.00  0.00    -0.153 OA
BRANCH  12  15
ATOM     15  N   UNL     1      37.016 -23.993 -10.861  0.00  0.00    -0.203 NA
ATOM     16  H   UNL     1      36.399 -23.773 -10.078  0.00  0.00    +0.144 HD
ATOM     17  H   UNL     1      37.277 -23.133 -11.342  0.00  0.00    +0.144 HD
ENDBRANCH  12  15
ENDBRANCH   7  12
ENDBRANCH   2   6
BRANCH   3  18
ATOM     18  C   UNL     1      36.709 -21.214 -19.276  0.00  0.00    +0.152 C 
BRANCH  18  19
ATOM     19  S   UNL     1      35.386 -20.882 -20.460  0.00  0.00    -0.047 S 
BRANCH  19  31
ATOM     20  O   UNL     1      36.699 -18.633 -20.442  0.00  0.00    -0.262 OA
ATOM     21  N   UNL     1      35.247 -18.875 -22.275  0.00  0.00    -0.250 N 
ATOM     22  C   UNL     1      35.110 -19.355 -24.714  0.00  0.00    +0.027 C 
ATOM     23  C   UNL     1      34.365 -18.063 -24.974  0.00  0.00    +0.029 C 
ATOM     24  C   UNL     1      34.810 -19.840 -23.306  0.00  0.00    +0.099 C 
ATOM     25  C   UNL     1      34.583 -17.075 -23.859  0.00  0.00    -0.009 C 
ATOM     26  C   UNL     1      34.999 -17.475 -22.567  0.00  0.00    +0.051 C 
ATOM     27  C   UNL     1      34.316 -15.721 -24.133  0.00  0.00    -0.007 C 
ATOM     28  C   UNL     1      35.113 -16.475 -21.583  0.00  0.00    +0.014 C 
ATOM     29  C   UNL     1      34.462 -14.752 -23.147  0.00  0.00    -0.022 C 
ATOM     30  C   UNL     1      34.856 -15.131 -21.872  0.00  0.00    -0.003 C 
ATOM     31  C   UNL     1      35.876 -19.286 -21.076  0.00  0.00    +0.280 C 
ATOM     32  C   UNL     1      34.212 -13.317 -23.462  0.00  0.00    +0.031 C 
ENDBRANCH  19  31
ENDBRANCH  18  19
ENDBRANCH   3  18
TORSDOF 6
ENDMDL
MODEL 5
REMARK VINA RESULT:     -12.0      3.262      4.608
REMARK  Name = 24878044
REMARK  6 active torsions:
REMARK  status: ('A' for Active; 'I' for Inactive)
REMARK    1  A    between atoms: N_2  and  C_6
REMARK    2  A    between atoms: C_3  and  C_18
REMARK    3  A    between atoms: C_7  and  S_12
REMARK    4  A    between atoms: S_12  and  N_15
REMARK    5  A    between atoms: C_18  and  S_19
REMARK    6  A    between atoms: S_19  and  C_31
REMARK                            x       y       z     vdW  Elec       q    Type
REMARK                         _______ _______ _______ _____ _____    ______ ____
ROOT
ATOM      1  O   UNL     1      37.047 -19.969 -19.782  0.00  0.00    -0.274 OA
ATOM      2  N   UNL     1      35.298 -21.501 -19.439  0.00  0.00    -0.283 N 
ATOM      3  C   UNL     1      36.012 -20.531 -20.133  0.00  0.00    +0.238 C 
ATOM      4  H   UNL     1      34.478 -21.831 -19.872  0.00  0.00    +0.155 HD
ENDROOT
BRANCH   2   6
ATOM      5 CL   UNL     1      33.030 -22.915 -17.976  0.00  0.00    -0.081 Cl
ATOM      6  C   UNL     1      35.616 -22.070 -18.182  0.00  0.00    +0.061 C 
ATOM      7  C   UNL     1      36.310 -23.169 -15.714  0.00  0.00    +0.123 C 
ATOM      8  C   UNL     1      34.658 -22.741 -17.424  0.00  0.00    +0.072 C 
ATOM      9  C   UNL     1      36.922 -21.948 -17.706  0.00  0.00    +0.017 C 
ATOM     10  C   UNL     1      35.005 -23.291 -16.190  0.00  0.00    +0.033 C 
ATOM     11  C   UNL     1      37.269 -22.497 -16.472  0.00  0.00    +0.021 C 
BRANCH   7  12
ATOM     12  S   UNL     1      36.744 -23.856 -14.169  0.00  0.00    +0.057 S 
ATOM     13  O   UNL     1      36.819 -25.303 -14.314  0.00  0.00    -0.153 OA
ATOM     14  O   UNL     1      37.885 -23.121 -13.640  0.00  0.00    -0.153 OA
BRANCH  12  15
ATOM     15  N   UNL     1      35.363 -23.467 -13.240  0.00  0.00    -0.203 NA
ATOM     16  H   UNL     1      34.632 -23.106 -13.854  0.00  0.00    +0.144 HD
ATOM     17  H   UNL     1      35.607 -22.759 -12.548  0.00  0.00    +0.144 HD
ENDBRANCH  12  15
ENDBRANCH   7  12
ENDBRANCH   2   6
BRANCH   3  18
ATOM     18  C   UNL     1      35.354 -20.176 -21.449  0.00  0.00    +0.152 C 
BRANCH  18  19
ATOM     19  S   UNL     1      36.232 -18.778 -22.182  0.00  0.00    -0.047 S 
BRANCH  19  31
ATOM     20  O   UNL     1      34.334 -18.726 -23.966  0.00  0.00    -0.262 OA
ATOM     21  N   UNL     1      34.704 -16.660 -22.907  0.00  0.00    -0.250 N 
ATOM     22  C   UNL     1      33.839 -15.059 -21.208  0.00  0.00    +0.027 C 
ATOM     23  C   UNL     1      33.806 -13.932 -22.218  0.00  0.00    +0.029 C 
ATOM     24  C   UNL     1      34.932 -16.045 -21.582  0.00  0.00    +0.099 C 
ATOM     25  C   UNL     1      33.782 -14.465 -23.626  0.00  0.00    -0.009 C 
ATOM     26  C   UNL     1      34.221 -15.770 -23.947  0.00  0.00    +0.051 C 
ATOM     27  C   UNL     1      33.340 -13.594 -24.641  0.00  0.00    -0.007 C 
ATOM     28  C   UNL     1      34.213 -16.144 -25.304  0.00  0.00    +0.014 C 
ATOM     29  C   UNL     1      33.320 -13.999 -25.969  0.00  0.00    -0.022 C 
ATOM     30  C   UNL     1      33.761 -15.272 -26.301  0.00  0.00    -0.003 C 
ATOM     31  C   UNL     1      34.935 -18.034 -23.149  0.00  0.00    +0.280 C 
ATOM     32  C   UNL     1      32.814 -13.079 -27.028  0.00  0.00    +0.031 C 
ENDBRANCH  19  31
ENDBRANCH  18  19
ENDBRANCH   3  18
TORSDOF 6
ENDMDL
MODEL 6
REMARK VINA RESULT:     -11.9      5.346     11.609
REMARK  Name = 24878044
REMARK  6 active torsions:
REMARK  status: ('A' for Active; 'I' for Inactive)
REMARK    1  A    between atoms: N_2  and  C_6
REMARK    2  A    between atoms: C_3  and  C_18
REMARK    3  A    between atoms: C_7  and  S_12
REMARK    4  A    between atoms: S_12  and  N_15
REMARK    5  A    between atoms: C_18  and  S_19
REMARK    6  A    between atoms: S_19  and  C_31
REMARK                            x       y       z     vdW  Elec       q    Type
REMARK                         _______ _______ _______ _____ _____    ______ ____
ROOT
ATOM      1  O   UNL     1      31.872 -22.153 -18.006  0.00  0.00    -0.274 OA
ATOM      2  N   UNL     1      34.128 -22.557 -18.528  0.00  0.00    -0.283 N 
ATOM      3  C   UNL     1      32.919 -22.783 -17.880  0.00  0.00    +0.238 C 
ATOM      4  H   UNL     1      34.869 -23.160 -18.289  0.00  0.00    +0.155 HD
ENDROOT
BRANCH   2   6
ATOM      5 CL   UNL     1      37.053 -21.757 -18.824  0.00  0.00    -0.081 Cl
ATOM      6  C   UNL     1      34.415 -21.561 -19.492  0.00  0.00    +0.061 C 
ATOM      7  C   UNL     1      34.911 -19.595 -21.408  0.00  0.00    +0.123 C 
ATOM      8  C   UNL     1      35.718 -21.117 -19.713  0.00  0.00    +0.072 C 
ATOM      9  C   UNL     1      33.359 -21.022 -20.228  0.00  0.00    +0.017 C 
ATOM     10  C   UNL     1      35.966 -20.134 -20.671  0.00  0.00    +0.033 C 
ATOM     11  C   UNL     1      33.607 -20.039 -21.187  0.00  0.00    +0.021 C 
BRANCH   7  12
ATOM     12  S   UNL     1      35.221 -18.365 -22.607  0.00  0.00    +0.057 S 
ATOM     13  O   UNL     1      34.513 -18.723 -23.827  0.00  0.00    -0.153 OA
ATOM     14  O   UNL     1      35.001 -17.060 -21.999  0.00  0.00    -0.153 OA
BRANCH  12  15
ATOM     15  N   UNL     1      36.898 -18.575 -22.862  0.00  0.00    -0.203 NA
ATOM     16  H   UNL     1      37.376 -17.683 -22.730  0.00  0.00    +0.144 HD
ATOM     17  H   UNL     1      37.059 -18.910 -23.811  0.00  0.00    +0.144 HD
ENDBRANCH  12  15
ENDBRANCH   7  12
ENDBRANCH   2   6
BRANCH   3  18
ATOM     18  C   UNL     1      33.003 -23.946 -16.913  0.00  0.00    +0.152 C 
BRANCH  18  19
ATOM     19  S   UNL     1      33.122 -23.298 -15.231  0.00  0.00    -0.047 S 
BRANCH  19  31
ATOM     20  O   UNL     1      35.520 -22.448 -15.788  0.00  0.00    -0.262 OA
ATOM     21  N   UNL     1      35.442 -23.987 -14.013  0.00  0.00    -0.250 N 
ATOM     22  C   UNL     1      35.566 -24.251 -11.541  0.00  0.00    +0.027 C 
ATOM     23  C   UNL     1      36.696 -25.253 -11.657  0.00  0.00    +0.029 C 
ATOM     24  C   UNL     1      34.694 -24.322 -12.782  0.00  0.00    +0.099 C 
ATOM     25  C   UNL     1      37.398 -25.128 -12.983  0.00  0.00    -0.009 C 
ATOM     26  C   UNL     1      36.786 -24.527 -14.107  0.00  0.00    +0.051 C 
ATOM     27  C   UNL     1      38.691 -25.676 -13.084  0.00  0.00    -0.007 C 
ATOM     28  C   UNL     1      37.511 -24.519 -15.314  0.00  0.00    +0.014 C 
ATOM     29  C   UNL     1      39.392 -25.631 -14.283  0.00  0.00    -0.022 C 
ATOM     30  C   UNL     1      38.799 -25.056 -15.399  0.00  0.00    -0.003 C 
ATOM     31  C   UNL     1      34.888 -23.184 -15.037  0.00  0.00    +0.280 C 
ATOM     32  C   UNL     1      40.775 -26.181 -14.366  0.00  0.00    +0.031 C 
ENDBRANCH  19  31
ENDBRANCH  18  19
ENDBRANCH   3  18
TORSDOF 6
ENDMDL
MODEL 7
REMARK VINA RESULT:     -11.8      2.715      4.198
REMARK  Name = 24878044
REMARK  6 active torsions:
REMARK  status: ('A' for Active; 'I' for Inactive)
REMARK    1  A    between atoms: N_2  and  C_6
REMARK    2  A    between atoms: C_3  and  C_18
REMARK    3  A    between atoms: C_7  and  S_12
REMARK    4  A    between atoms: S_12  and  N_15
REMARK    5  A    between atoms: C_18  and  S_19
REMARK    6  A    between atoms: S_19  and  C_31
REMARK                            x       y       z     vdW  Elec       q    Type
REMARK                         _______ _______ _______ _____ _____    ______ ____
ROOT
ATOM      1  O   UNL     1      32.292 -20.382 -19.877  0.00  0.00    -0.274 OA
ATOM      2  N   UNL     1      34.442 -21.326 -19.967  0.00  0.00    -0.283 N 
ATOM      3  C   UNL     1      33.376 -20.561 -20.426  0.00  0.00    +0.238 C 
ATOM      4  H   UNL     1      35.233 -21.366 -20.552  0.00  0.00    +0.155 HD
ENDROOT
BRANCH   2   6
ATOM      5 CL   UNL     1      37.091 -21.185 -18.468  0.00  0.00    -0.081 Cl
ATOM      6  C   UNL     1      34.521 -22.054 -18.756  0.00  0.00    +0.061 C 
ATOM      7  C   UNL     1      34.608 -23.509 -16.378  0.00  0.00    +0.123 C 
ATOM      8  C   UNL     1      35.683 -22.062 -17.986  0.00  0.00    +0.072 C 
ATOM      9  C   UNL     1      33.401 -22.775 -18.337  0.00  0.00    +0.017 C 
ATOM     10  C   UNL     1      35.727 -22.789 -16.797  0.00  0.00    +0.033 C 
ATOM     11  C   UNL     1      33.445 -23.502 -17.148  0.00  0.00    +0.021 C 
BRANCH   7  12
ATOM     12  S   UNL     1      34.662 -24.421 -14.889  0.00  0.00    +0.057 S 
ATOM     13  O   UNL     1      33.298 -24.619 -14.422  0.00  0.00    -0.153 OA
ATOM     14  O   UNL     1      35.536 -25.569 -15.081  0.00  0.00    -0.153 OA
BRANCH  12  15
ATOM     15  N   UNL     1      35.442 -23.306 -13.854  0.00  0.00    -0.203 NA
ATOM     16  H   UNL     1      34.907 -23.214 -12.990  0.00  0.00    +0.144 HD
ATOM     17  H   UNL     1      35.502 -22.398 -14.315  0.00  0.00    +0.144 HD
ENDBRANCH  12  15
ENDBRANCH   7  12
ENDBRANCH   2   6
BRANCH   3  18
ATOM     18  C   UNL     1      33.668 -19.931 -21.772  0.00  0.00    +0.152 C 
BRANCH  18  19
ATOM     19  S   UNL     1      35.418 -19.488 -21.840  0.00  0.00    -0.047 S 
BRANCH  19  31
ATOM     20  O   UNL     1      35.772 -17.304 -20.466  0.00  0.00    -0.262 OA
ATOM     21  N   UNL     1      34.741 -16.962 -22.550  0.00  0.00    -0.250 N 
ATOM     22  C   UNL     1      35.078 -16.148 -24.879  0.00  0.00    +0.027 C 
ATOM     23  C   UNL     1      33.935 -15.164 -24.750  0.00  0.00    +0.029 C 
ATOM     24  C   UNL     1      34.823 -17.343 -23.977  0.00  0.00    +0.099 C 
ATOM     25  C   UNL     1      33.633 -14.866 -23.305  0.00  0.00    -0.009 C 
ATOM     26  C   UNL     1      34.017 -15.738 -22.260  0.00  0.00    +0.051 C 
ATOM     27  C   UNL     1      32.907 -13.694 -23.024  0.00  0.00    -0.007 C 
ATOM     28  C   UNL     1      33.630 -15.392 -20.951  0.00  0.00    +0.014 C 
ATOM     29  C   UNL     1      32.561 -13.366 -21.719  0.00  0.00    -0.022 C 
ATOM     30  C   UNL     1      32.919 -14.218 -20.684  0.00  0.00    -0.003 C 
ATOM     31  C   UNL     1      35.336 -17.737 -21.527  0.00  0.00    +0.280 C 
ATOM     32  C   UNL     1      31.825 -12.102 -21.432  0.00  0.00    +0.031 C 
ENDBRANCH  19  31
ENDBRANCH  18  19
ENDBRANCH   3  18
TORSDOF 6
ENDMDL
MODEL 8
REMARK VINA RESULT:     -11.7      3.660     10.243
REMARK  Name = 24878044
REMARK  6 active torsions:
REMARK  status: ('A' for Active; 'I' for Inactive)
REMARK    1  A    between atoms: N_2  and  C_6
REMARK    2  A    between atoms: C_3  and  C_18
REMARK    3  A    between atoms: C_7  and  S_12
REMARK    4  A    between atoms: S_12  and  N_15
REMARK    5  A    between atoms: C_18  and  S_19
REMARK    6  A    between atoms: S_19  and  C_31
REMARK                            x       y       z     vdW  Elec       q    Type
REMARK                         _______ _______ _______ _____ _____    ______ ____
ROOT
ATOM      1  O   UNL     1      33.971 -20.119 -20.621  0.00  0.00    -0.274 OA
ATOM      2  N   UNL     1      35.796 -19.133 -21.727  0.00  0.00    -0.283 N 
ATOM      3  C   UNL     1      35.140 -20.119 -20.998  0.00  0.00    +0.238 C 
ATOM      4  H   UNL     1      36.744 -19.299 -21.930  0.00  0.00    +0.155 HD
ENDROOT
BRANCH   2   6
ATOM      5 CL   UNL     1      35.007 -19.076 -24.670  0.00  0.00    -0.081 Cl
ATOM      6  C   UNL     1      35.255 -17.918 -22.212  0.00  0.00    +0.061 C 
ATOM      7  C   UNL     1      34.196 -15.496 -23.102  0.00  0.00    +0.123 C 
ATOM      8  C   UNL     1      34.859 -17.777 -23.542  0.00  0.00    +0.072 C 
ATOM      9  C   UNL     1      35.122 -16.847 -21.327  0.00  0.00    +0.017 C 
ATOM     10  C   UNL     1      34.329 -16.566 -23.987  0.00  0.00    +0.033 C 
ATOM     11  C   UNL     1      34.591 -15.636 -21.772  0.00  0.00    +0.021 C 
BRANCH   7  12
ATOM     12  S   UNL     1      33.533 -13.979 -23.660  0.00  0.00    +0.057 S 
ATOM     13  O   UNL     1      34.556 -12.953 -23.523  0.00  0.00    -0.153 OA
ATOM     14  O   UNL     1      32.895 -14.199 -24.950  0.00  0.00    -0.153 OA
BRANCH  12  15
ATOM     15  N   UNL     1      32.319 -13.706 -22.488  0.00  0.00    -0.203 NA
ATOM     16  H   UNL     1      32.476 -12.802 -22.041  0.00  0.00    +0.144 HD
ATOM     17  H   UNL     1      32.352 -14.443 -21.785  0.00  0.00    +0.144 HD
ENDBRANCH  12  15
ENDBRANCH   7  12
ENDBRANCH   2   6
BRANCH   3  18
ATOM     18  C   UNL     1      36.056 -21.276 -20.660  0.00  0.00    +0.152 C 
BRANCH  18  19
ATOM     19  S   UNL     1      36.329 -21.300 -18.874  0.00  0.00    -0.047 S 
BRANCH  19  31
ATOM     20  O   UNL     1      34.435 -23.055 -19.217  0.00  0.00    -0.262 OA
ATOM     21  N   UNL     1      35.184 -22.882 -16.996  0.00  0.00    -0.250 N 
ATOM     22  C   UNL     1      36.552 -23.962 -15.218  0.00  0.00    +0.027 C 
ATOM     23  C   UNL     1      35.379 -23.979 -14.260  0.00  0.00    +0.029 C 
ATOM     24  C   UNL     1      36.410 -22.791 -16.174  0.00  0.00    +0.099 C 
ATOM     25  C   UNL     1      34.072 -23.865 -14.999  0.00  0.00    -0.009 C 
ATOM     26  C   UNL     1      33.988 -23.331 -16.306  0.00  0.00    +0.051 C 
ATOM     27  C   UNL     1      32.908 -24.275 -14.322  0.00  0.00    -0.007 C 
ATOM     28  C   UNL     1      32.708 -23.214 -16.879  0.00  0.00    +0.014 C 
ATOM     29  C   UNL     1      31.660 -24.170 -14.923  0.00  0.00    -0.022 C 
ATOM     30  C   UNL     1      31.560 -23.636 -16.199  0.00  0.00    -0.003 C 
ATOM     31  C   UNL     1      35.173 -22.557 -18.372  0.00  0.00    +0.280 C 
ATOM     32  C   UNL     1      30.440 -24.643 -14.208  0.00  0.00    +0.031 C 
ENDBRANCH  19  31
ENDBRANCH  18  19
ENDBRANCH   3  18
TORSDOF 6
ENDMDL
MODEL 9
REMARK VINA RESULT:     -11.6      3.288      8.953
REMARK  Name = 24878044
REMARK  6 active torsions:
REMARK  status: ('A' for Active; 'I' for Inactive)
REMARK    1  A    between atoms: N_2  and  C_6
REMARK    2  A    between atoms: C_3  and  C_18
REMARK    3  A    between atoms: C_7  and  S_12
REMARK    4  A    between atoms: S_12  and  N_15
REMARK    5  A    between atoms: C_18  and  S_19
REMARK    6  A    between atoms: S_19  and  C_31
REMARK                            x       y       z     vdW  Elec       q    Type
REMARK                         _______ _______ _______ _____ _____    ______ ____
ROOT
ATOM      1  O   UNL     1      32.680 -13.932 -25.657  0.00  0.00    -0.274 OA
ATOM      2  N   UNL     1      33.374 -14.470 -23.477  0.00  0.00    -0.283 N 
ATOM      3  C   UNL     1      33.220 -14.677 -24.843  0.00  0.00    +0.238 C 
ATOM      4  H   UNL     1      33.825 -15.187 -22.976  0.00  0.00    +0.155 HD
ENDROOT
BRANCH   2   6
ATOM      5 CL   UNL     1      32.433 -15.014 -20.630  0.00  0.00    -0.081 Cl
ATOM      6  C   UNL     1      32.958 -13.345 -22.724  0.00  0.00    +0.061 C 
ATOM      7  C   UNL     1      32.155 -11.088 -21.296  0.00  0.00    +0.123 C 
ATOM      8  C   UNL     1      32.509 -13.475 -21.411  0.00  0.00    +0.072 C 
ATOM      9  C   UNL     1      33.006 -12.086 -23.324  0.00  0.00    +0.017 C 
ATOM     10  C   UNL     1      32.107 -12.346 -20.697  0.00  0.00    +0.033 C 
ATOM     11  C   UNL     1      32.604 -10.957 -22.610  0.00  0.00    +0.021 C 
BRANCH   7  12
ATOM     12  S   UNL     1      31.651  -9.674 -20.403  0.00  0.00    +0.057 S 
ATOM     13  O   UNL     1      31.495  -8.571 -21.339  0.00  0.00    -0.153 OA
ATOM     14  O   UNL     1      30.546 -10.047 -19.531  0.00  0.00    -0.153 OA
BRANCH  12  15
ATOM     15  N   UNL     1      33.035  -9.388 -19.441  0.00  0.00    -0.203 NA
ATOM     16  H   UNL     1      33.791  -9.037 -20.030  0.00  0.00    +0.144 HD
ATOM     17  H   UNL     1      33.326 -10.258 -18.996  0.00  0.00    +0.144 HD
ENDBRANCH  12  15
ENDBRANCH   7  12
ENDBRANCH   2   6
BRANCH   3  18
ATOM     18  C   UNL     1      33.797 -16.005 -25.283  0.00  0.00    +0.152 C 
BRANCH  18  19
ATOM     19  S   UNL     1      35.251 -16.372 -24.277  0.00  0.00    -0.047 S 
BRANCH  19  31
ATOM     20  O   UNL     1      34.058 -18.686 -24.373  0.00  0.00    -0.262 OA
ATOM     21  N   UNL     1      35.583 -18.473 -22.598  0.00  0.00    -0.250 N 
ATOM     22  C   UNL     1      37.842 -19.110 -21.767  0.00  0.00    +0.027 C 
ATOM     23  C   UNL     1      37.262 -19.695 -20.496  0.00  0.00    +0.029 C 
ATOM     24  C   UNL     1      36.943 -17.993 -22.269  0.00  0.00    +0.099 C 
ATOM     25  C   UNL     1      35.804 -20.029 -20.669  0.00  0.00    -0.009 C 
ATOM     26  C   UNL     1      35.006 -19.433 -21.673  0.00  0.00    +0.051 C 
ATOM     27  C   UNL     1      35.236 -20.938 -19.756  0.00  0.00    -0.007 C 
ATOM     28  C   UNL     1      33.640 -19.771 -21.705  0.00  0.00    +0.014 C 
ATOM     29  C   UNL     1      33.889 -21.272 -19.827  0.00  0.00    -0.022 C 
ATOM     30  C   UNL     1      33.091 -20.685 -20.799  0.00  0.00    -0.003 C 
ATOM     31  C   UNL     1      34.885 -18.032 -23.746  0.00  0.00    +0.280 C 
ATOM     32  C   UNL     1      33.310 -22.264 -18.878  0.00  0.00    +0.031 C 
ENDBRANCH  19  31
ENDBRANCH  18  19
ENDBRANCH   3  18
TORSDOF 6
ENDMDL
