MODEL 1
REMARK VINA RESULT:     -13.6      0.000      0.000
REMARK  Name = 5289109
REMARK  6 active torsions:
REMARK  status: ('A' for Active; 'I' for Inactive)
REMARK    1  A    between atoms: C_3  and  C_9
REMARK    2  A    between atoms: C_4  and  C_21
REMARK    3  A    between atoms: N_8  and  C_11
REMARK    4  A    between atoms: C_11  and  C_12
REMARK    5  A    between atoms: N_20  and  C_23
REMARK    6  A    between atoms: C_23  and  C_24
REMARK                            x       y       z     vdW  Elec       q    Type
REMARK                         _______ _______ _______ _____ _____    ______ ____
ROOT
ATOM      1  N   UNL     1      32.995 -13.652 -25.357  0.00  0.00    -0.244 NA
ATOM      2  N   UNL     1      34.089 -15.658 -26.120  0.00  0.00    -0.244 NA
ATOM      3  C   UNL     1      33.217 -14.057 -24.089  0.00  0.00    +0.115 C 
ATOM      4  C   UNL     1      34.262 -15.974 -24.835  0.00  0.00    +0.115 C 
ATOM      5  C   UNL     1      33.859 -15.235 -23.762  0.00  0.00    +0.100 C 
ATOM      6  C   UNL     1      33.451 -14.488 -26.308  0.00  0.00    +0.250 C 
ENDROOT
BRANCH   3   9
ATOM      7  O   UNL     1      32.371 -13.623 -21.946  0.00  0.00    -0.269 OA
ATOM      8  N   UNL     1      32.719 -11.798 -23.334  0.00  0.00    -0.296 N 
ATOM      9  C   UNL     1      32.733 -13.169 -23.046  0.00  0.00    +0.260 C 
ATOM     10  H   UNL     1      33.019 -11.506 -24.224  0.00  0.00    +0.150 HD
BRANCH   8  11
ATOM     11  C   UNL     1      32.289 -10.788 -22.393  0.00  0.00    +0.117 C 
BRANCH  11  12
ATOM     12  C   UNL     1      32.426  -9.403 -22.955  0.00  0.00    -0.003 C 
ATOM     13  C   UNL     1      33.691  -8.876 -23.184  0.00  0.00    -0.007 C 
ATOM     14  C   UNL     1      33.818  -7.590 -23.708  0.00  0.00    -0.022 C 
ATOM     15  C   UNL     1      31.285  -8.661 -23.240  0.00  0.00    -0.003 C 
ATOM     16  C   UNL     1      32.679  -6.838 -23.997  0.00  0.00    -0.004 C 
ATOM     17  C   UNL     1      31.413  -7.374 -23.763  0.00  0.00    -0.001 C 
ATOM     18  C   UNL     1      35.173  -7.016 -23.957  0.00  0.00    +0.031 C 
ENDBRANCH  11  12
ENDBRANCH   8  11
ENDBRANCH   3   9
BRANCH   4  21
ATOM     19  O   UNL     1      34.961 -18.114 -25.490  0.00  0.00    -0.269 OA
ATOM     20  N   UNL     1      35.606 -17.395 -23.381  0.00  0.00    -0.296 N 
ATOM     21  C   UNL     1      34.964 -17.262 -24.604  0.00  0.00    +0.260 C 
ATOM     22  H   UNL     1      35.551 -16.654 -22.735  0.00  0.00    +0.150 HD
BRANCH  20  23
ATOM     23  C   UNL     1      36.350 -18.575 -23.019  0.00  0.00    +0.117 C 
BRANCH  23  24
ATOM     24  C   UNL     1      35.652 -19.389 -21.982  0.00  0.00    -0.003 C 
ATOM     25  C   UNL     1      36.393 -20.075 -21.020  0.00  0.00    -0.007 C 
ATOM     26  C   UNL     1      35.741 -20.837 -20.049  0.00  0.00    -0.022 C 
ATOM     27  C   UNL     1      34.260 -19.465 -21.974  0.00  0.00    -0.003 C 
ATOM     28  C   UNL     1      34.349 -20.911 -20.041  0.00  0.00    -0.004 C 
ATOM     29  C   UNL     1      33.607 -20.225 -21.004  0.00  0.00    -0.001 C 
ATOM     30  C   UNL     1      36.533 -21.570 -19.020  0.00  0.00    +0.031 C 
ENDBRANCH  23  24
ENDBRANCH  20  23
ENDBRANCH   4  21
TORSDOF 6
ENDMDL
MODEL 2
REMARK VINA RESULT:     -13.6      0.037      9.976
REMARK  Name = 5289109
REMARK  6 active torsions:
REMARK  status: ('A' for Active; 'I' for Inactive)
REMARK    1  A    between atoms: C_3  and  C_9
REMARK    2  A    between atoms: C_4  and  C_21
REMARK    3  A    between atoms: N_8  and  C_11
REMARK    4  A    between atoms: C_11  and  C_12
REMARK    5  A    between atoms: N_20  and  C_23
REMARK    6  A    between atoms: C_23  and  C_24
REMARK                            x       y       z     vdW  Elec       q    Type
REMARK                         _______ _______ _______ _____ _____    ______ ____
ROOT
ATOM      1  N   UNL     1      34.118 -15.655 -26.097  0.00  0.00    -0.244 NA
ATOM      2  N   UNL     1      33.023 -13.645 -25.346  0.00  0.00    -0.244 NA
ATOM      3  C   UNL     1      34.286 -16.003 -24.804  0.00  0.00    +0.115 C 
ATOM      4  C   UNL     1      33.234 -14.073 -24.100  0.00  0.00    +0.115 C 
ATOM      5  C   UNL     1      33.855 -15.234 -23.741  0.00  0.00    +0.100 C 
ATOM      6  C   UNL     1      33.488 -14.481 -26.292  0.00  0.00    +0.250 C 
ENDROOT
BRANCH   3   9
ATOM      7  O   UNL     1      34.946 -18.163 -25.432  0.00  0.00    -0.269 OA
ATOM      8  N   UNL     1      35.646 -17.407 -23.355  0.00  0.00    -0.296 N 
ATOM      9  C   UNL     1      34.964 -17.266 -24.570  0.00  0.00    +0.260 C 
ATOM     10  H   UNL     1      35.619 -16.658 -22.716  0.00  0.00    +0.150 HD
BRANCH   8  11
ATOM     11  C   UNL     1      36.386 -18.592 -22.986  0.00  0.00    +0.117 C 
BRANCH  11  12
ATOM     12  C   UNL     1      35.665 -19.407 -21.952  0.00  0.00    -0.003 C 
ATOM     13  C   UNL     1      36.391 -20.092 -20.987  0.00  0.00    -0.007 C 
ATOM     14  C   UNL     1      35.721 -20.847 -20.025  0.00  0.00    -0.022 C 
ATOM     15  C   UNL     1      34.275 -19.468 -21.971  0.00  0.00    -0.003 C 
ATOM     16  C   UNL     1      34.327 -20.914 -20.037  0.00  0.00    -0.004 C 
ATOM     17  C   UNL     1      33.605 -20.223 -21.010  0.00  0.00    -0.001 C 
ATOM     18  C   UNL     1      36.493 -21.587 -18.985  0.00  0.00    +0.031 C 
ENDBRANCH  11  12
ENDBRANCH   8  11
ENDBRANCH   3   9
BRANCH   4  21
ATOM     19  O   UNL     1      32.345 -13.640 -21.974  0.00  0.00    -0.269 OA
ATOM     20  N   UNL     1      32.754 -11.809 -23.338  0.00  0.00    -0.296 N 
ATOM     21  C   UNL     1      32.729 -13.165 -23.040  0.00  0.00    +0.260 C 
ATOM     22  H   UNL     1      33.080 -11.525 -24.222  0.00  0.00    +0.150 HD
BRANCH  20  23
ATOM     23  C   UNL     1      32.320 -10.801 -22.403  0.00  0.00    +0.117 C 
BRANCH  23  24
ATOM     24  C   UNL     1      32.436  -9.423 -22.962  0.00  0.00    -0.003 C 
ATOM     25  C   UNL     1      33.694  -8.872 -23.202  0.00  0.00    -0.007 C 
ATOM     26  C   UNL     1      33.803  -7.582 -23.725  0.00  0.00    -0.022 C 
ATOM     27  C   UNL     1      31.286  -8.686 -23.246  0.00  0.00    -0.003 C 
ATOM     28  C   UNL     1      32.653  -6.847 -24.009  0.00  0.00    -0.004 C 
ATOM     29  C   UNL     1      31.394  -7.398 -23.769  0.00  0.00    -0.001 C 
ATOM     30  C   UNL     1      35.148  -6.992 -23.981  0.00  0.00    +0.031 C 
ENDBRANCH  23  24
ENDBRANCH  20  23
ENDBRANCH   4  21
TORSDOF 6
ENDMDL
MODEL 3
REMARK VINA RESULT:     -13.0      1.127      9.943
REMARK  Name = 5289109
REMARK  6 active torsions:
REMARK  status: ('A' for Active; 'I' for Inactive)
REMARK    1  A    between atoms: C_3  and  C_9
REMARK    2  A    between atoms: C_4  and  C_21
REMARK    3  A    between atoms: N_8  and  C_11
REMARK    4  A    between atoms: C_11  and  C_12
REMARK    5  A    between atoms: N_20  and  C_23
REMARK    6  A    between atoms: C_23  and  C_24
REMARK                            x       y       z     vdW  Elec       q    Type
REMARK                         _______ _______ _______ _____ _____    ______ ____
ROOT
ATOM      1  N   UNL     1      34.054 -15.247 -25.521  0.00  0.00    -0.244 NA
ATOM      2  N   UNL     1      32.965 -13.351 -24.510  0.00  0.00    -0.244 NA
ATOM      3  C   UNL     1      34.246 -15.750 -24.284  0.00  0.00    +0.115 C 
ATOM      4  C   UNL     1      33.201 -13.928 -23.330  0.00  0.00    +0.115 C 
ATOM      5  C   UNL     1      33.833 -15.119 -23.127  0.00  0.00    +0.100 C 
ATOM      6  C   UNL     1      33.415 -14.063 -25.560  0.00  0.00    +0.250 C 
ENDROOT
BRANCH   3   9
ATOM      7  O   UNL     1      34.986 -17.770 -25.216  0.00  0.00    -0.269 OA
ATOM      8  N   UNL     1      35.542 -17.362 -23.002  0.00  0.00    -0.296 N 
ATOM      9  C   UNL     1      34.933 -17.028 -24.219  0.00  0.00    +0.260 C 
ATOM     10  H   UNL     1      35.462 -16.730 -22.252  0.00  0.00    +0.150 HD
BRANCH   8  11
ATOM     11  C   UNL     1      36.282 -18.585 -22.788  0.00  0.00    +0.117 C 
BRANCH  11  12
ATOM     12  C   UNL     1      35.620 -19.472 -21.773  0.00  0.00    -0.003 C 
ATOM     13  C   UNL     1      36.396 -20.146 -20.839  0.00  0.00    -0.007 C 
ATOM     14  C   UNL     1      35.781 -20.968 -19.895  0.00  0.00    -0.022 C 
ATOM     15  C   UNL     1      34.236 -19.609 -21.778  0.00  0.00    -0.003 C 
ATOM     16  C   UNL     1      34.394 -21.112 -19.893  0.00  0.00    -0.004 C 
ATOM     17  C   UNL     1      33.621 -20.431 -20.834  0.00  0.00    -0.001 C 
ATOM     18  C   UNL     1      36.607 -21.697 -18.889  0.00  0.00    +0.031 C 
ENDBRANCH  11  12
ENDBRANCH   8  11
ENDBRANCH   3   9
BRANCH   4  21
ATOM     19  O   UNL     1      33.224 -13.352 -21.056  0.00  0.00    -0.269 OA
ATOM     20  N   UNL     1      31.704 -12.238 -22.410  0.00  0.00    -0.296 N 
ATOM     21  C   UNL     1      32.713 -13.158 -22.157  0.00  0.00    +0.260 C 
ATOM     22  H   UNL     1      31.359 -12.156 -23.329  0.00  0.00    +0.150 HD
BRANCH  20  23
ATOM     23  C   UNL     1      31.144 -11.399 -21.382  0.00  0.00    +0.117 C 
BRANCH  23  24
ATOM     24  C   UNL     1      31.599  -9.984 -21.494  0.00  0.00    -0.003 C 
ATOM     25  C   UNL     1      31.424  -9.289 -22.691  0.00  0.00    -0.007 C 
ATOM     26  C   UNL     1      31.850  -7.963 -22.797  0.00  0.00    -0.022 C 
ATOM     27  C   UNL     1      32.199  -9.354 -20.404  0.00  0.00    -0.003 C 
ATOM     28  C   UNL     1      32.449  -7.335 -21.706  0.00  0.00    -0.004 C 
ATOM     29  C   UNL     1      32.624  -8.030 -20.509  0.00  0.00    -0.001 C 
ATOM     30  C   UNL     1      31.664  -7.220 -24.076  0.00  0.00    +0.031 C 
ENDBRANCH  23  24
ENDBRANCH  20  23
ENDBRANCH   4  21
TORSDOF 6
ENDMDL
MODEL 4
REMARK VINA RESULT:     -13.0      1.283      2.034
REMARK  Name = 5289109
REMARK  6 active torsions:
REMARK  status: ('A' for Active; 'I' for Inactive)
REMARK    1  A    between atoms: C_3  and  C_9
REMARK    2  A    between atoms: C_4  and  C_21
REMARK    3  A    between atoms: N_8  and  C_11
REMARK    4  A    between atoms: C_11  and  C_12
REMARK    5  A    between atoms: N_20  and  C_23
REMARK    6  A    between atoms: C_23  and  C_24
REMARK                            x       y       z     vdW  Elec       q    Type
REMARK                         _______ _______ _______ _____ _____    ______ ____
ROOT
ATOM      1  N   UNL     1      32.662 -13.636 -24.216  0.00  0.00    -0.244 NA
ATOM      2  N   UNL     1      33.946 -15.416 -25.211  0.00  0.00    -0.244 NA
ATOM      3  C   UNL     1      33.025 -14.103 -23.003  0.00  0.00    +0.115 C 
ATOM      4  C   UNL     1      34.250 -15.802 -23.970  0.00  0.00    +0.115 C 
ATOM      5  C   UNL     1      33.834 -15.206 -22.816  0.00  0.00    +0.100 C 
ATOM      6  C   UNL     1      33.152 -14.330 -25.261  0.00  0.00    +0.250 C 
ENDROOT
BRANCH   3   9
ATOM      7  O   UNL     1      32.641 -13.815 -20.708  0.00  0.00    -0.269 OA
ATOM      8  N   UNL     1      31.883 -12.142 -22.124  0.00  0.00    -0.296 N 
ATOM      9  C   UNL     1      32.508 -13.369 -21.862  0.00  0.00    +0.260 C 
ATOM     10  H   UNL     1      31.810 -11.847 -23.060  0.00  0.00    +0.150 HD
BRANCH   8  11
ATOM     11  C   UNL     1      31.340 -11.286 -21.095  0.00  0.00    +0.117 C 
BRANCH  11  12
ATOM     12  C   UNL     1      31.692  -9.844 -21.320  0.00  0.00    -0.003 C 
ATOM     13  C   UNL     1      31.449  -9.262 -22.558  0.00  0.00    -0.007 C 
ATOM     14  C   UNL     1      31.775  -7.921 -22.766  0.00  0.00    -0.022 C 
ATOM     15  C   UNL     1      32.258  -9.105 -20.287  0.00  0.00    -0.003 C 
ATOM     16  C   UNL     1      32.343  -7.173 -21.735  0.00  0.00    -0.004 C 
ATOM     17  C   UNL     1      32.583  -7.765 -20.495  0.00  0.00    -0.001 C 
ATOM     18  C   UNL     1      31.518  -7.289 -24.092  0.00  0.00    +0.031 C 
ENDBRANCH  11  12
ENDBRANCH   8  11
ENDBRANCH   3   9
BRANCH   4  21
ATOM     19  O   UNL     1      35.275 -17.700 -24.891  0.00  0.00    -0.269 OA
ATOM     20  N   UNL     1      35.741 -17.224 -22.669  0.00  0.00    -0.296 N 
ATOM     21  C   UNL     1      35.125 -16.999 -23.892  0.00  0.00    +0.260 C 
ATOM     22  H   UNL     1      35.558 -16.605 -21.926  0.00  0.00    +0.150 HD
BRANCH  20  23
ATOM     23  C   UNL     1      36.638 -18.329 -22.444  0.00  0.00    +0.117 C 
BRANCH  23  24
ATOM     24  C   UNL     1      36.071 -19.336 -21.500  0.00  0.00    -0.003 C 
ATOM     25  C   UNL     1      34.691 -19.513 -21.417  0.00  0.00    -0.007 C 
ATOM     26  C   UNL     1      34.159 -20.455 -20.535  0.00  0.00    -0.022 C 
ATOM     27  C   UNL     1      36.921 -20.100 -20.701  0.00  0.00    -0.003 C 
ATOM     28  C   UNL     1      35.011 -21.219 -19.737  0.00  0.00    -0.004 C 
ATOM     29  C   UNL     1      36.391 -21.042 -19.820  0.00  0.00    -0.001 C 
ATOM     30  C   UNL     1      32.683 -20.644 -20.445  0.00  0.00    +0.031 C 
ENDBRANCH  23  24
ENDBRANCH  20  23
ENDBRANCH   4  21
TORSDOF 6
ENDMDL
MODEL 5
REMARK VINA RESULT:     -12.9      2.135     10.083
REMARK  Name = 5289109
REMARK  6 active torsions:
REMARK  status: ('A' for Active; 'I' for Inactive)
REMARK    1  A    between atoms: C_3  and  C_9
REMARK    2  A    between atoms: C_4  and  C_21
REMARK    3  A    between atoms: N_8  and  C_11
REMARK    4  A    between atoms: C_11  and  C_12
REMARK    5  A    between atoms: N_20  and  C_23
REMARK    6  A    between atoms: C_23  and  C_24
REMARK                            x       y       z     vdW  Elec       q    Type
REMARK                         _______ _______ _______ _____ _____    ______ ____
ROOT
ATOM      1  N   UNL     1      35.076 -19.711 -23.585  0.00  0.00    -0.244 NA
ATOM      2  N   UNL     1      34.284 -18.172 -25.262  0.00  0.00    -0.244 NA
ATOM      3  C   UNL     1      35.382 -18.649 -22.810  0.00  0.00    +0.115 C 
ATOM      4  C   UNL     1      34.621 -17.189 -24.425  0.00  0.00    +0.115 C 
ATOM      5  C   UNL     1      35.173 -17.338 -23.187  0.00  0.00    +0.100 C 
ATOM      6  C   UNL     1      34.537 -19.404 -24.781  0.00  0.00    +0.250 C 
ENDROOT
BRANCH   3   9
ATOM      7  O   UNL     1      36.324 -18.047 -20.749  0.00  0.00    -0.269 OA
ATOM      8  N   UNL     1      36.076 -20.313 -21.175  0.00  0.00    -0.296 N 
ATOM      9  C   UNL     1      35.965 -18.958 -21.516  0.00  0.00    +0.260 C 
ATOM     10  H   UNL     1      35.774 -20.984 -21.828  0.00  0.00    +0.150 HD
BRANCH   8  11
ATOM     11  C   UNL     1      36.611 -20.779 -19.916  0.00  0.00    +0.117 C 
BRANCH  11  12
ATOM     12  C   UNL     1      35.596 -21.553 -19.126  0.00  0.00    -0.003 C 
ATOM     13  C   UNL     1      35.954 -22.106 -17.903  0.00  0.00    -0.007 C 
ATOM     14  C   UNL     1      35.009 -22.823 -17.167  0.00  0.00    -0.022 C 
ATOM     15  C   UNL     1      34.308 -21.707 -19.626  0.00  0.00    -0.003 C 
ATOM     16  C   UNL     1      33.715 -22.983 -17.662  0.00  0.00    -0.004 C 
ATOM     17  C   UNL     1      33.365 -22.425 -18.891  0.00  0.00    -0.001 C 
ATOM     18  C   UNL     1      35.384 -23.421 -15.853  0.00  0.00    +0.031 C 
ENDBRANCH  11  12
ENDBRANCH   8  11
ENDBRANCH   3   9
BRANCH   4  21
ATOM     19  O   UNL     1      34.344 -15.625 -26.151  0.00  0.00    -0.269 OA
ATOM     20  N   UNL     1      34.094 -14.852 -23.978  0.00  0.00    -0.296 N 
ATOM     21  C   UNL     1      34.350 -15.822 -24.938  0.00  0.00    +0.260 C 
ATOM     22  H   UNL     1      34.122 -15.107 -23.028  0.00  0.00    +0.150 HD
BRANCH  20  23
ATOM     23  C   UNL     1      33.790 -13.485 -24.319  0.00  0.00    +0.117 C 
BRANCH  23  24
ATOM     24  C   UNL     1      33.078 -12.772 -23.219  0.00  0.00    -0.003 C 
ATOM     25  C   UNL     1      32.824 -11.405 -23.326  0.00  0.00    -0.007 C 
ATOM     26  C   UNL     1      32.157 -10.737 -22.297  0.00  0.00    -0.022 C 
ATOM     27  C   UNL     1      32.666 -13.472 -22.086  0.00  0.00    -0.003 C 
ATOM     28  C   UNL     1      31.745 -11.438 -21.164  0.00  0.00    -0.004 C 
ATOM     29  C   UNL     1      31.999 -12.805 -21.058  0.00  0.00    -0.001 C 
ATOM     30  C   UNL     1      31.886  -9.275 -22.409  0.00  0.00    +0.031 C 
ENDBRANCH  23  24
ENDBRANCH  20  23
ENDBRANCH   4  21
TORSDOF 6
ENDMDL
MODEL 6
REMARK VINA RESULT:     -12.8      2.211      4.109
REMARK  Name = 5289109
REMARK  6 active torsions:
REMARK  status: ('A' for Active; 'I' for Inactive)
REMARK    1  A    between atoms: C_3  and  C_9
REMARK    2  A    between atoms: C_4  and  C_21
REMARK    3  A    between atoms: N_8  and  C_11
REMARK    4  A    between atoms: C_11  and  C_12
REMARK    5  A    between atoms: N_20  and  C_23
REMARK    6  A    between atoms: C_23  and  C_24
REMARK                            x       y       z     vdW  Elec       q    Type
REMARK                         _______ _______ _______ _____ _____    ______ ____
ROOT
ATOM      1  N   UNL     1      31.866 -11.333 -20.994  0.00  0.00    -0.244 NA
ATOM      2  N   UNL     1      32.466 -13.386 -22.103  0.00  0.00    -0.244 NA
ATOM      3  C   UNL     1      32.367 -10.660 -22.050  0.00  0.00    +0.115 C 
ATOM      4  C   UNL     1      32.936 -12.633 -23.100  0.00  0.00    +0.115 C 
ATOM      5  C   UNL     1      32.927 -11.271 -23.154  0.00  0.00    +0.100 C 
ATOM      6  C   UNL     1      31.946 -12.674 -21.086  0.00  0.00    +0.250 C 
ENDROOT
BRANCH   3   9
ATOM      7  O   UNL     1      32.568  -8.619 -20.913  0.00  0.00    -0.269 OA
ATOM      8  N   UNL     1      31.917  -8.529 -23.137  0.00  0.00    -0.296 N 
ATOM      9  C   UNL     1      32.290  -9.211 -21.971  0.00  0.00    +0.260 C 
ATOM     10  H   UNL     1      31.709  -9.059 -23.940  0.00  0.00    +0.150 HD
BRANCH   8  11
ATOM     11  C   UNL     1      31.818  -7.090 -23.224  0.00  0.00    +0.117 C 
BRANCH  11  12
ATOM     12  C   UNL     1      32.838  -6.513 -24.163  0.00  0.00    -0.003 C 
ATOM     13  C   UNL     1      32.450  -5.565 -25.101  0.00  0.00    -0.007 C 
ATOM     14  C   UNL     1      33.398  -5.027 -25.972  0.00  0.00    -0.022 C 
ATOM     15  C   UNL     1      34.161  -6.933 -24.083  0.00  0.00    -0.003 C 
ATOM     16  C   UNL     1      34.728  -5.443 -25.899  0.00  0.00    -0.004 C 
ATOM     17  C   UNL     1      35.109  -6.396 -24.953  0.00  0.00    -0.001 C 
ATOM     18  C   UNL     1      32.991  -4.010 -26.983  0.00  0.00    +0.031 C 
ENDBRANCH  11  12
ENDBRANCH   8  11
ENDBRANCH   3   9
BRANCH   4  21
ATOM     19  O   UNL     1      33.813 -12.808 -25.268  0.00  0.00    -0.269 OA
ATOM     20  N   UNL     1      33.700 -14.758 -24.017  0.00  0.00    -0.296 N 
ATOM     21  C   UNL     1      33.515 -13.399 -24.233  0.00  0.00    +0.260 C 
ATOM     22  H   UNL     1      33.429 -15.141 -23.152  0.00  0.00    +0.150 HD
BRANCH  20  23
ATOM     23  C   UNL     1      34.274 -15.630 -25.011  0.00  0.00    +0.117 C 
BRANCH  23  24
ATOM     24  C   UNL     1      34.622 -16.970 -24.455  0.00  0.00    -0.003 C 
ATOM     25  C   UNL     1      35.276 -17.066 -23.227  0.00  0.00    -0.007 C 
ATOM     26  C   UNL     1      35.602 -18.320 -22.706  0.00  0.00    -0.022 C 
ATOM     27  C   UNL     1      34.294 -18.126 -25.163  0.00  0.00    -0.003 C 
ATOM     28  C   UNL     1      35.273 -19.475 -23.415  0.00  0.00    -0.004 C 
ATOM     29  C   UNL     1      34.619 -19.379 -24.643  0.00  0.00    -0.001 C 
ATOM     30  C   UNL     1      36.301 -18.423 -21.393  0.00  0.00    +0.031 C 
ENDBRANCH  23  24
ENDBRANCH  20  23
ENDBRANCH   4  21
TORSDOF 6
ENDMDL
MODEL 7
REMARK VINA RESULT:     -12.8      2.223     10.712
REMARK  Name = 5289109
REMARK  6 active torsions:
REMARK  status: ('A' for Active; 'I' for Inactive)
REMARK    1  A    between atoms: C_3  and  C_9
REMARK    2  A    between atoms: C_4  and  C_21
REMARK    3  A    between atoms: N_8  and  C_11
REMARK    4  A    between atoms: C_11  and  C_12
REMARK    5  A    between atoms: N_20  and  C_23
REMARK    6  A    between atoms: C_23  and  C_24
REMARK                            x       y       z     vdW  Elec       q    Type
REMARK                         _______ _______ _______ _____ _____    ______ ____
ROOT
ATOM      1  N   UNL     1      32.464 -13.340 -22.076  0.00  0.00    -0.244 NA
ATOM      2  N   UNL     1      31.857 -11.285 -20.975  0.00  0.00    -0.244 NA
ATOM      3  C   UNL     1      32.939 -12.605 -23.104  0.00  0.00    +0.115 C 
ATOM      4  C   UNL     1      32.352 -10.646 -22.037  0.00  0.00    +0.115 C 
ATOM      5  C   UNL     1      32.908 -11.226 -23.139  0.00  0.00    +0.100 C 
ATOM      6  C   UNL     1      31.945 -12.625 -21.060  0.00  0.00    +0.250 C 
ENDROOT
BRANCH   3   9
ATOM      7  O   UNL     1      33.850 -12.779 -25.257  0.00  0.00    -0.269 OA
ATOM      8  N   UNL     1      33.657 -14.737 -24.031  0.00  0.00    -0.296 N 
ATOM      9  C   UNL     1      33.504 -13.357 -24.211  0.00  0.00    +0.260 C 
ATOM     10  H   UNL     1      33.362 -15.132 -23.179  0.00  0.00    +0.150 HD
BRANCH   8  11
ATOM     11  C   UNL     1      34.224 -15.616 -25.029  0.00  0.00    +0.117 C 
BRANCH  11  12
ATOM     12  C   UNL     1      34.592 -16.953 -24.456  0.00  0.00    -0.003 C 
ATOM     13  C   UNL     1      35.219 -17.022 -23.218  0.00  0.00    -0.007 C 
ATOM     14  C   UNL     1      35.559 -18.265 -22.684  0.00  0.00    -0.022 C 
ATOM     15  C   UNL     1      34.301 -18.111 -25.169  0.00  0.00    -0.003 C 
ATOM     16  C   UNL     1      35.272 -19.431 -23.394  0.00  0.00    -0.004 C 
ATOM     17  C   UNL     1      34.642 -19.354 -24.636  0.00  0.00    -0.001 C 
ATOM     18  C   UNL     1      36.234 -18.348 -21.356  0.00  0.00    +0.031 C 
ENDBRANCH  11  12
ENDBRANCH   8  11
ENDBRANCH   3   9
BRANCH   4  21
ATOM     19  O   UNL     1      32.513  -8.601 -20.901  0.00  0.00    -0.269 OA
ATOM     20  N   UNL     1      31.918  -8.517 -23.141  0.00  0.00    -0.296 N 
ATOM     21  C   UNL     1      32.263  -9.165 -21.963  0.00  0.00    +0.260 C 
ATOM     22  H   UNL     1      31.736  -9.059 -23.943  0.00  0.00    +0.150 HD
BRANCH  20  23
ATOM     23  C   UNL     1      31.816  -7.083 -23.236  0.00  0.00    +0.117 C 
BRANCH  23  24
ATOM     24  C   UNL     1      32.821  -6.504 -24.175  0.00  0.00    -0.003 C 
ATOM     25  C   UNL     1      32.426  -5.562 -25.124  0.00  0.00    -0.007 C 
ATOM     26  C   UNL     1      33.365  -5.019 -26.002  0.00  0.00    -0.022 C 
ATOM     27  C   UNL     1      34.155  -6.905 -24.103  0.00  0.00    -0.003 C 
ATOM     28  C   UNL     1      34.699  -5.421 -25.929  0.00  0.00    -0.004 C 
ATOM     29  C   UNL     1      35.094  -6.363 -24.980  0.00  0.00    -0.001 C 
ATOM     30  C   UNL     1      32.944  -4.012 -27.017  0.00  0.00    +0.031 C 
ENDBRANCH  23  24
ENDBRANCH  20  23
ENDBRANCH   4  21
TORSDOF 6
ENDMDL
MODEL 8
REMARK VINA RESULT:     -12.7      1.980      9.626
REMARK  Name = 5289109
REMARK  6 active torsions:
REMARK  status: ('A' for Active; 'I' for Inactive)
REMARK    1  A    between atoms: C_3  and  C_9
REMARK    2  A    between atoms: C_4  and  C_21
REMARK    3  A    between atoms: N_8  and  C_11
REMARK    4  A    between atoms: C_11  and  C_12
REMARK    5  A    between atoms: N_20  and  C_23
REMARK    6  A    between atoms: C_23  and  C_24
REMARK                            x       y       z     vdW  Elec       q    Type
REMARK                         _______ _______ _______ _____ _____    ______ ____
ROOT
ATOM      1  N   UNL     1      34.914 -18.051 -24.336  0.00  0.00    -0.244 NA
ATOM      2  N   UNL     1      33.963 -16.370 -25.776  0.00  0.00    -0.244 NA
ATOM      3  C   UNL     1      35.072 -17.100 -23.392  0.00  0.00    +0.115 C 
ATOM      4  C   UNL     1      34.159 -15.501 -24.782  0.00  0.00    +0.115 C 
ATOM      5  C   UNL     1      34.706 -15.780 -23.564  0.00  0.00    +0.100 C 
ATOM      6  C   UNL     1      34.361 -17.623 -25.486  0.00  0.00    +0.250 C 
ENDROOT
BRANCH   3   9
ATOM      7  O   UNL     1      35.390 -16.969 -21.072  0.00  0.00    -0.269 OA
ATOM      8  N   UNL     1      36.536 -18.638 -22.203  0.00  0.00    -0.296 N 
ATOM      9  C   UNL     1      35.667 -17.541 -22.142  0.00  0.00    +0.260 C 
ATOM     10  H   UNL     1      36.713 -19.043 -23.082  0.00  0.00    +0.150 HD
BRANCH   8  11
ATOM     11  C   UNL     1      37.187 -19.208 -21.045  0.00  0.00    +0.117 C 
BRANCH  11  12
ATOM     12  C   UNL     1      36.310 -20.202 -20.341  0.00  0.00    -0.003 C 
ATOM     13  C   UNL     1      34.947 -20.226 -20.606  0.00  0.00    -0.007 C 
ATOM     14  C   UNL     1      34.133 -21.151 -19.953  0.00  0.00    -0.022 C 
ATOM     15  C   UNL     1      36.872 -21.091 -19.430  0.00  0.00    -0.003 C 
ATOM     16  C   UNL     1      34.688 -22.046 -19.038  0.00  0.00    -0.004 C 
ATOM     17  C   UNL     1      36.058 -22.016 -18.777  0.00  0.00    -0.001 C 
ATOM     18  C   UNL     1      32.667 -21.183 -20.230  0.00  0.00    +0.031 C 
ENDBRANCH  11  12
ENDBRANCH   8  11
ENDBRANCH   3   9
BRANCH   4  21
ATOM     19  O   UNL     1      33.069 -13.894 -26.096  0.00  0.00    -0.269 OA
ATOM     20  N   UNL     1      34.092 -13.148 -24.152  0.00  0.00    -0.296 N 
ATOM     21  C   UNL     1      33.727 -14.112 -25.081  0.00  0.00    +0.260 C 
ATOM     22  H   UNL     1      34.622 -13.422 -23.369  0.00  0.00    +0.150 HD
BRANCH  20  23
ATOM     23  C   UNL     1      33.726 -11.761 -24.289  0.00  0.00    +0.117 C 
BRANCH  23  24
ATOM     24  C   UNL     1      32.902 -11.277 -23.145  0.00  0.00    -0.003 C 
ATOM     25  C   UNL     1      32.746  -9.908 -22.929  0.00  0.00    -0.007 C 
ATOM     26  C   UNL     1      31.974  -9.453 -21.858  0.00  0.00    -0.022 C 
ATOM     27  C   UNL     1      32.286 -12.192 -22.291  0.00  0.00    -0.003 C 
ATOM     28  C   UNL     1      31.359 -10.370 -21.005  0.00  0.00    -0.004 C 
ATOM     29  C   UNL     1      31.515 -11.739 -21.221  0.00  0.00    -0.001 C 
ATOM     30  C   UNL     1      31.807  -7.990 -21.626  0.00  0.00    +0.031 C 
ENDBRANCH  23  24
ENDBRANCH  20  23
ENDBRANCH   4  21
TORSDOF 6
ENDMDL
MODEL 9
REMARK VINA RESULT:     -12.5      3.396      6.155
REMARK  Name = 5289109
REMARK  6 active torsions:
REMARK  status: ('A' for Active; 'I' for Inactive)
REMARK    1  A    between atoms: C_3  and  C_9
REMARK    2  A    between atoms: C_4  and  C_21
REMARK    3  A    between atoms: N_8  and  C_11
REMARK    4  A    between atoms: C_11  and  C_12
REMARK    5  A    between atoms: N_20  and  C_23
REMARK    6  A    between atoms: C_23  and  C_24
REMARK                            x       y       z     vdW  Elec       q    Type
REMARK                         _______ _______ _______ _____ _____    ______ ____
ROOT
ATOM      1  N   UNL     1      36.838 -18.633 -21.544  0.00  0.00    -0.244 NA
ATOM      2  N   UNL     1      36.143 -20.453 -20.127  0.00  0.00    -0.244 NA
ATOM      3  C   UNL     1      35.565 -18.537 -21.982  0.00  0.00    +0.115 C 
ATOM      4  C   UNL     1      34.915 -20.281 -20.620  0.00  0.00    +0.115 C 
ATOM      5  C   UNL     1      34.541 -19.353 -21.546  0.00  0.00    +0.100 C 
ATOM      6  C   UNL     1      37.053 -19.598 -20.630  0.00  0.00    +0.250 C 
ENDROOT
BRANCH   3   9
ATOM      7  O   UNL     1      35.388 -17.753 -24.185  0.00  0.00    -0.269 OA
ATOM      8  N   UNL     1      34.959 -16.234 -22.486  0.00  0.00    -0.296 N 
ATOM      9  C   UNL     1      35.311 -17.501 -22.969  0.00  0.00    +0.260 C 
ATOM     10  H   UNL     1      34.918 -16.102 -21.511  0.00  0.00    +0.150 HD
BRANCH   8  11
ATOM     11  C   UNL     1      34.654 -15.109 -23.340  0.00  0.00    +0.117 C 
BRANCH  11  12
ATOM     12  C   UNL     1      33.738 -14.127 -22.669  0.00  0.00    -0.003 C 
ATOM     13  C   UNL     1      33.562 -12.864 -23.221  0.00  0.00    -0.007 C 
ATOM     14  C   UNL     1      32.709 -11.952 -22.599  0.00  0.00    -0.022 C 
ATOM     15  C   UNL     1      33.075 -14.490 -21.502  0.00  0.00    -0.003 C 
ATOM     16  C   UNL     1      32.040 -12.308 -21.428  0.00  0.00    -0.004 C 
ATOM     17  C   UNL     1      32.223 -13.579 -20.880  0.00  0.00    -0.001 C 
ATOM     18  C   UNL     1      32.514 -10.594 -23.184  0.00  0.00    +0.031 C 
ENDBRANCH  11  12
ENDBRANCH   8  11
ENDBRANCH   3   9
BRANCH   4  21
ATOM     19  O   UNL     1      32.704 -20.959 -20.231  0.00  0.00    -0.269 OA
ATOM     20  N   UNL     1      34.385 -22.350 -19.445  0.00  0.00    -0.296 N 
ATOM     21  C   UNL     1      33.896 -21.216 -20.078  0.00  0.00    +0.260 C 
ATOM     22  H   UNL     1      35.360 -22.467 -19.372  0.00  0.00    +0.150 HD
BRANCH  20  23
ATOM     23  C   UNL     1      33.522 -23.362 -18.890  0.00  0.00    +0.117 C 
BRANCH  23  24
ATOM     24  C   UNL     1      33.432 -23.276 -17.404  0.00  0.00    -0.003 C 
ATOM     25  C   UNL     1      32.183 -23.226 -16.784  0.00  0.00    -0.007 C 
ATOM     26  C   UNL     1      32.097 -23.146 -15.393  0.00  0.00    -0.022 C 
ATOM     27  C   UNL     1      34.594 -23.247 -16.634  0.00  0.00    -0.003 C 
ATOM     28  C   UNL     1      33.261 -23.117 -14.624  0.00  0.00    -0.004 C 
ATOM     29  C   UNL     1      34.509 -23.167 -15.244  0.00  0.00    -0.001 C 
ATOM     30  C   UNL     1      30.763 -23.091 -14.729  0.00  0.00    +0.031 C 
ENDBRANCH  23  24
ENDBRANCH  20  23
ENDBRANCH   4  21
TORSDOF 6
ENDMDL
