MODEL 1
REMARK VINA RESULT:     -14.4      0.000      0.000
REMARK  Name = 10200651
REMARK  5 active torsions:
REMARK  status: ('A' for Active; 'I' for Inactive)
REMARK    1  A    between atoms: C_1  and  C_7
REMARK    2  A    between atoms: C_4  and  C_22
REMARK    3  A    between atoms: C_10  and  C_17
REMARK    4  A    between atoms: N_21  and  C_24
REMARK    5  A    between atoms: C_27  and  C_31
REMARK                            x       y       z     vdW  Elec       q    Type
REMARK                         _______ _______ _______ _____ _____    ______ ____
ROOT
ATOM      1  C   UNL     1      33.603 -14.554 -22.965  0.00  0.00    -0.000 C 
ATOM      2  C   UNL     1      32.810 -14.496 -21.819  0.00  0.00    +0.000 C 
ATOM      3  C   UNL     1      33.802 -13.408 -23.735  0.00  0.00    +0.000 C 
ATOM      4  C   UNL     1      32.429 -12.173 -22.221  0.00  0.00    +0.054 C 
ATOM      5  C   UNL     1      32.216 -13.292 -21.442  0.00  0.00    +0.005 C 
ATOM      6  C   UNL     1      33.208 -12.204 -23.358  0.00  0.00    +0.005 C 
ENDROOT
BRANCH   1   7
ATOM      7  C   UNL     1      34.219 -15.804 -23.356  0.00  0.00    -0.004 C 
ATOM      8  C   UNL     1      34.286 -16.188 -24.696  0.00  0.00    -0.022 C 
ATOM      9  C   UNL     1      34.753 -16.634 -22.368  0.00  0.00    +0.004 C 
ATOM     10  C   UNL     1      35.351 -17.844 -22.719  0.00  0.00    +0.055 C 
ATOM     11  C   UNL     1      34.884 -17.398 -25.047  0.00  0.00    -0.004 C 
ATOM     12  C   UNL     1      35.417 -18.226 -24.060  0.00  0.00    +0.004 C 
ATOM     13  C   UNL     1      33.726 -15.328 -25.782  0.00  0.00    +0.031 C 
BRANCH  10  17
ATOM     14  O   UNL     1      35.179 -19.814 -21.411  0.00  0.00    -0.420 OA
ATOM     15  N   UNL     1      36.995 -18.577 -20.992  0.00  0.00    -0.107 NA
ATOM     16  N   UNL     1      37.030 -19.682 -20.162  0.00  0.00    -0.111 NA
ATOM     17  C   UNL     1      35.902 -18.701 -21.698  0.00  0.00    +0.250 A 
ATOM     18  C   UNL     1      35.951 -20.375 -20.440  0.00  0.00    +0.227 A 
ATOM     19  C   UNL     1      35.475 -21.638 -19.865  0.00  0.00    +0.097 C 
ENDBRANCH  10  17
ENDBRANCH   1   7
BRANCH   4  22
ATOM     20  O   UNL     1      30.664 -10.935 -21.348  0.00  0.00    -0.270 OA
ATOM     21  N   UNL     1      32.581  -9.746 -22.009  0.00  0.00    -0.280 N 
ATOM     22  C   UNL     1      31.795 -10.890 -21.820  0.00  0.00    +0.249 C 
ATOM     23  H   UNL     1      33.471  -9.894 -22.404  0.00  0.00    +0.155 HD
BRANCH  21  24
ATOM     24  C   UNL     1      32.261  -8.422 -21.704  0.00  0.00    +0.051 C 
ATOM     25  C   UNL     1      31.894  -7.541 -22.720  0.00  0.00    +0.025 C 
ATOM     26  C   UNL     1      32.307  -7.981 -20.381  0.00  0.00    +0.015 C 
ATOM     27  C   UNL     1      31.574  -6.218 -22.415  0.00  0.00    +0.070 C 
ATOM     28  C   UNL     1      31.987  -6.659 -20.075  0.00  0.00    +0.002 C 
ATOM     29  C   UNL     1      31.621  -5.777 -21.092  0.00  0.00    +0.010 C 
BRANCH  27  31
ATOM     30  N   UNL     1      30.894  -4.580 -24.303  0.00  0.00    -0.191 NA
ATOM     31  C   UNL     1      31.199  -5.314 -23.456  0.00  0.00    +0.100 C 
ENDBRANCH  27  31
ENDBRANCH  21  24
ENDBRANCH   4  22
TORSDOF 5
ENDMDL
MODEL 2
REMARK VINA RESULT:     -14.3      3.773     11.780
REMARK  Name = 10200651
REMARK  5 active torsions:
REMARK  status: ('A' for Active; 'I' for Inactive)
REMARK    1  A    between atoms: C_1  and  C_7
REMARK    2  A    between atoms: C_4  and  C_22
REMARK    3  A    between atoms: C_10  and  C_17
REMARK    4  A    between atoms: N_21  and  C_24
REMARK    5  A    between atoms: C_27  and  C_31
REMARK                            x       y       z     vdW  Elec       q    Type
REMARK                         _______ _______ _______ _____ _____    ______ ____
ROOT
ATOM      1  C   UNL     1      34.901 -19.306 -21.877  0.00  0.00    -0.000 C 
ATOM      2  C   UNL     1      33.765 -19.932 -21.362  0.00  0.00    +0.000 C 
ATOM      3  C   UNL     1      36.160 -19.609 -21.360  0.00  0.00    +0.000 C 
ATOM      4  C   UNL     1      35.147 -21.144 -19.837  0.00  0.00    +0.054 C 
ATOM      5  C   UNL     1      33.890 -20.862 -20.330  0.00  0.00    +0.005 C 
ATOM      6  C   UNL     1      36.284 -20.539 -20.328  0.00  0.00    +0.005 C 
ENDROOT
BRANCH   1   7
ATOM      7  C   UNL     1      34.771 -18.342 -22.948  0.00  0.00    -0.004 C 
ATOM      8  C   UNL     1      34.968 -18.710 -24.280  0.00  0.00    -0.022 C 
ATOM      9  C   UNL     1      34.444 -17.021 -22.635  0.00  0.00    +0.004 C 
ATOM     10  C   UNL     1      34.315 -16.072 -23.649  0.00  0.00    +0.055 C 
ATOM     11  C   UNL     1      34.839 -17.762 -25.295  0.00  0.00    -0.004 C 
ATOM     12  C   UNL     1      34.511 -16.443 -24.980  0.00  0.00    +0.004 C 
ATOM     13  C   UNL     1      35.320 -20.113 -24.656  0.00  0.00    +0.031 C 
BRANCH  10  17
ATOM     14  O   UNL     1      33.104 -14.548 -22.296  0.00  0.00    -0.420 OA
ATOM     15  N   UNL     1      34.377 -13.588 -23.865  0.00  0.00    -0.107 NA
ATOM     16  N   UNL     1      33.736 -12.585 -23.162  0.00  0.00    -0.111 NA
ATOM     17  C   UNL     1      33.977 -14.708 -23.324  0.00  0.00    +0.250 A 
ATOM     18  C   UNL     1      33.004 -13.191 -22.257  0.00  0.00    +0.227 A 
ATOM     19  C   UNL     1      32.117 -12.622 -21.236  0.00  0.00    +0.097 C 
ENDBRANCH  10  17
ENDBRANCH   1   7
BRANCH   4  22
ATOM     20  O   UNL     1      34.626 -23.169 -18.818  0.00  0.00    -0.270 OA
ATOM     21  N   UNL     1      36.170 -21.781 -17.714  0.00  0.00    -0.280 N 
ATOM     22  C   UNL     1      35.279 -22.134 -18.736  0.00  0.00    +0.249 C 
ATOM     23  H   UNL     1      36.611 -20.906 -17.809  0.00  0.00    +0.155 HD
BRANCH  21  24
ATOM     24  C   UNL     1      36.510 -22.518 -16.578  0.00  0.00    +0.051 C 
ATOM     25  C   UNL     1      35.523 -22.896 -15.670  0.00  0.00    +0.025 C 
ATOM     26  C   UNL     1      37.839 -22.876 -16.353  0.00  0.00    +0.015 C 
ATOM     27  C   UNL     1      35.863 -23.633 -14.535  0.00  0.00    +0.070 C 
ATOM     28  C   UNL     1      38.181 -23.612 -15.219  0.00  0.00    +0.002 C 
ATOM     29  C   UNL     1      37.193 -23.990 -14.310  0.00  0.00    +0.010 C 
BRANCH  27  31
ATOM     30  N   UNL     1      34.029 -24.335 -12.846  0.00  0.00    -0.191 NA
ATOM     31  C   UNL     1      34.852 -24.020 -13.603  0.00  0.00    +0.100 C 
ENDBRANCH  27  31
ENDBRANCH  21  24
ENDBRANCH   4  22
TORSDOF 5
ENDMDL
MODEL 3
REMARK VINA RESULT:     -14.2      3.839     11.957
REMARK  Name = 10200651
REMARK  5 active torsions:
REMARK  status: ('A' for Active; 'I' for Inactive)
REMARK    1  A    between atoms: C_1  and  C_7
REMARK    2  A    between atoms: C_4  and  C_22
REMARK    3  A    between atoms: C_10  and  C_17
REMARK    4  A    between atoms: N_21  and  C_24
REMARK    5  A    between atoms: C_27  and  C_31
REMARK                            x       y       z     vdW  Elec       q    Type
REMARK                         _______ _______ _______ _____ _____    ______ ____
ROOT
ATOM      1  C   UNL     1      34.934 -19.389 -21.774  0.00  0.00    -0.000 C 
ATOM      2  C   UNL     1      33.791 -19.995 -21.252  0.00  0.00    +0.000 C 
ATOM      3  C   UNL     1      36.188 -19.697 -21.251  0.00  0.00    +0.000 C 
ATOM      4  C   UNL     1      35.157 -21.199 -19.707  0.00  0.00    +0.054 C 
ATOM      5  C   UNL     1      33.904 -20.911 -20.206  0.00  0.00    +0.005 C 
ATOM      6  C   UNL     1      36.301 -20.613 -20.205  0.00  0.00    +0.005 C 
ENDROOT
BRANCH   1   7
ATOM      7  C   UNL     1      34.816 -18.439 -22.860  0.00  0.00    -0.004 C 
ATOM      8  C   UNL     1      35.033 -18.824 -24.184  0.00  0.00    -0.022 C 
ATOM      9  C   UNL     1      34.479 -17.115 -22.568  0.00  0.00    +0.004 C 
ATOM     10  C   UNL     1      34.362 -16.180 -23.597  0.00  0.00    +0.055 C 
ATOM     11  C   UNL     1      34.915 -17.890 -25.212  0.00  0.00    -0.004 C 
ATOM     12  C   UNL     1      34.578 -16.569 -24.920  0.00  0.00    +0.004 C 
ATOM     13  C   UNL     1      35.395 -20.231 -24.536  0.00  0.00    +0.031 C 
BRANCH  10  17
ATOM     14  O   UNL     1      33.153 -14.642 -22.259  0.00  0.00    -0.420 OA
ATOM     15  N   UNL     1      34.396 -13.701 -23.862  0.00  0.00    -0.107 NA
ATOM     16  N   UNL     1      33.755 -12.690 -23.171  0.00  0.00    -0.111 NA
ATOM     17  C   UNL     1      34.014 -14.814 -23.294  0.00  0.00    +0.250 A 
ATOM     18  C   UNL     1      33.040 -13.285 -22.246  0.00  0.00    +0.227 A 
ATOM     19  C   UNL     1      32.159 -12.705 -21.226  0.00  0.00    +0.097 C 
ENDBRANCH  10  17
ENDBRANCH   1   7
BRANCH   4  22
ATOM     20  O   UNL     1      34.591 -23.189 -18.645  0.00  0.00    -0.270 OA
ATOM     21  N   UNL     1      36.195 -21.832 -17.590  0.00  0.00    -0.280 N 
ATOM     22  C   UNL     1      35.277 -22.174 -18.591  0.00  0.00    +0.249 C 
ATOM     23  H   UNL     1      36.662 -20.973 -17.708  0.00  0.00    +0.155 HD
BRANCH  21  24
ATOM     24  C   UNL     1      36.532 -22.560 -16.448  0.00  0.00    +0.051 C 
ATOM     25  C   UNL     1      37.802 -23.123 -16.329  0.00  0.00    +0.025 C 
ATOM     26  C   UNL     1      35.598 -22.724 -15.425  0.00  0.00    +0.015 C 
ATOM     27  C   UNL     1      38.139 -23.850 -15.186  0.00  0.00    +0.070 C 
ATOM     28  C   UNL     1      35.933 -23.451 -14.283  0.00  0.00    +0.002 C 
ATOM     29  C   UNL     1      37.204 -24.015 -14.165  0.00  0.00    +0.010 C 
BRANCH  27  31
ATOM     30  N   UNL     1      40.498 -24.897 -14.964  0.00  0.00    -0.191 NA
ATOM     31  C   UNL     1      39.440 -24.427 -15.064  0.00  0.00    +0.100 C 
ENDBRANCH  27  31
ENDBRANCH  21  24
ENDBRANCH   4  22
TORSDOF 5
ENDMDL
MODEL 4
REMARK VINA RESULT:     -13.6      3.773     11.751
REMARK  Name = 10200651
REMARK  5 active torsions:
REMARK  status: ('A' for Active; 'I' for Inactive)
REMARK    1  A    between atoms: C_1  and  C_7
REMARK    2  A    between atoms: C_4  and  C_22
REMARK    3  A    between atoms: C_10  and  C_17
REMARK    4  A    between atoms: N_21  and  C_24
REMARK    5  A    between atoms: C_27  and  C_31
REMARK                            x       y       z     vdW  Elec       q    Type
REMARK                         _______ _______ _______ _____ _____    ______ ____
ROOT
ATOM      1  C   UNL     1      35.202 -19.150 -21.896  0.00  0.00    -0.000 C 
ATOM      2  C   UNL     1      34.175 -19.908 -21.332  0.00  0.00    +0.000 C 
ATOM      3  C   UNL     1      36.504 -19.269 -21.412  0.00  0.00    +0.000 C 
ATOM      4  C   UNL     1      35.748 -20.884 -19.824  0.00  0.00    +0.054 C 
ATOM      5  C   UNL     1      34.452 -20.785 -20.284  0.00  0.00    +0.005 C 
ATOM      6  C   UNL     1      36.780 -20.146 -20.364  0.00  0.00    +0.005 C 
ENDROOT
BRANCH   1   7
ATOM      7  C   UNL     1      34.915 -18.240 -22.984  0.00  0.00    -0.004 C 
ATOM      8  C   UNL     1      34.975 -18.661 -24.314  0.00  0.00    -0.022 C 
ATOM      9  C   UNL     1      34.572 -16.918 -22.690  0.00  0.00    +0.004 C 
ATOM     10  C   UNL     1      34.292 -16.021 -23.721  0.00  0.00    +0.055 C 
ATOM     11  C   UNL     1      34.695 -17.765 -25.345  0.00  0.00    -0.004 C 
ATOM     12  C   UNL     1      34.353 -16.446 -25.049  0.00  0.00    +0.004 C 
ATOM     13  C   UNL     1      35.338 -20.067 -24.670  0.00  0.00    +0.031 C 
BRANCH  10  17
ATOM     14  O   UNL     1      33.073 -14.491 -22.383  0.00  0.00    -0.420 OA
ATOM     15  N   UNL     1      34.320 -13.541 -23.978  0.00  0.00    -0.107 NA
ATOM     16  N   UNL     1      33.672 -12.534 -23.286  0.00  0.00    -0.111 NA
ATOM     17  C   UNL     1      33.939 -14.657 -23.415  0.00  0.00    +0.250 A 
ATOM     18  C   UNL     1      32.955 -13.135 -22.366  0.00  0.00    +0.227 A 
ATOM     19  C   UNL     1      32.069 -12.561 -21.347  0.00  0.00    +0.097 C 
ENDBRANCH  10  17
ENDBRANCH   1   7
BRANCH   4  22
ATOM     20  O   UNL     1      37.192 -22.232 -18.595  0.00  0.00    -0.270 OA
ATOM     21  N   UNL     1      34.958 -22.115 -17.869  0.00  0.00    -0.280 N 
ATOM     22  C   UNL     1      36.043 -21.818 -18.706  0.00  0.00    +0.249 C 
ATOM     23  H   UNL     1      34.101 -21.692 -18.107  0.00  0.00    +0.155 HD
BRANCH  21  24
ATOM     24  C   UNL     1      34.944 -22.932 -16.738  0.00  0.00    +0.051 C 
ATOM     25  C   UNL     1      33.730 -23.341 -16.189  0.00  0.00    +0.025 C 
ATOM     26  C   UNL     1      36.145 -23.340 -16.158  0.00  0.00    +0.015 C 
ATOM     27  C   UNL     1      33.715 -24.159 -15.058  0.00  0.00    +0.070 C 
ATOM     28  C   UNL     1      36.132 -24.157 -15.027  0.00  0.00    +0.002 C 
ATOM     29  C   UNL     1      34.916 -24.566 -14.477  0.00  0.00    +0.010 C 
BRANCH  27  31
ATOM     30  N   UNL     1      31.460 -24.919 -14.035  0.00  0.00    -0.191 NA
ATOM     31  C   UNL     1      32.471 -24.578 -14.494  0.00  0.00    +0.100 C 
ENDBRANCH  27  31
ENDBRANCH  21  24
ENDBRANCH   4  22
TORSDOF 5
ENDMDL
MODEL 5
REMARK VINA RESULT:     -13.4      4.110     11.929
REMARK  Name = 10200651
REMARK  5 active torsions:
REMARK  status: ('A' for Active; 'I' for Inactive)
REMARK    1  A    between atoms: C_1  and  C_7
REMARK    2  A    between atoms: C_4  and  C_22
REMARK    3  A    between atoms: C_10  and  C_17
REMARK    4  A    between atoms: N_21  and  C_24
REMARK    5  A    between atoms: C_27  and  C_31
REMARK                            x       y       z     vdW  Elec       q    Type
REMARK                         _______ _______ _______ _____ _____    ______ ____
ROOT
ATOM      1  C   UNL     1      34.680 -19.629 -21.793  0.00  0.00    -0.000 C 
ATOM      2  C   UNL     1      33.441 -20.048 -21.310  0.00  0.00    +0.000 C 
ATOM      3  C   UNL     1      35.854 -20.162 -21.261  0.00  0.00    +0.000 C 
ATOM      4  C   UNL     1      34.551 -21.512 -19.785  0.00  0.00    +0.054 C 
ATOM      5  C   UNL     1      33.375 -21.001 -20.294  0.00  0.00    +0.005 C 
ATOM      6  C   UNL     1      35.788 -21.115 -20.245  0.00  0.00    +0.005 C 
ENDROOT
BRANCH   1   7
ATOM      7  C   UNL     1      34.748 -18.639 -22.847  0.00  0.00    -0.004 C 
ATOM      8  C   UNL     1      34.976 -19.012 -24.174  0.00  0.00    -0.022 C 
ATOM      9  C   UNL     1      34.582 -17.291 -22.524  0.00  0.00    +0.004 C 
ATOM     10  C   UNL     1      34.644 -16.319 -23.522  0.00  0.00    +0.055 C 
ATOM     11  C   UNL     1      35.039 -18.040 -25.172  0.00  0.00    -0.004 C 
ATOM     12  C   UNL     1      34.872 -16.694 -24.847  0.00  0.00    +0.004 C 
ATOM     13  C   UNL     1      35.160 -20.444 -24.560  0.00  0.00    +0.031 C 
BRANCH  10  17
ATOM     14  O   UNL     1      34.265 -14.090 -24.236  0.00  0.00    -0.420 OA
ATOM     15  N   UNL     1      34.486 -14.332 -22.023  0.00  0.00    -0.107 NA
ATOM     16  N   UNL     1      34.272 -12.992 -22.287  0.00  0.00    -0.111 NA
ATOM     17  C   UNL     1      34.472 -14.927 -23.186  0.00  0.00    +0.250 A 
ATOM     18  C   UNL     1      34.151 -12.897 -23.590  0.00  0.00    +0.227 A 
ATOM     19  C   UNL     1      33.913 -11.714 -24.424  0.00  0.00    +0.097 C 
ENDBRANCH  10  17
ENDBRANCH   1   7
BRANCH   4  22
ATOM     20  O   UNL     1      33.839 -23.550 -18.917  0.00  0.00    -0.270 OA
ATOM     21  N   UNL     1      35.188 -22.211 -17.534  0.00  0.00    -0.280 N 
ATOM     22  C   UNL     1      34.481 -22.528 -18.701  0.00  0.00    +0.249 C 
ATOM     23  H   UNL     1      35.650 -21.341 -17.532  0.00  0.00    +0.155 HD
BRANCH  21  24
ATOM     24  C   UNL     1      35.320 -22.977 -16.374  0.00  0.00    +0.051 C 
ATOM     25  C   UNL     1      34.185 -23.408 -15.690  0.00  0.00    +0.025 C 
ATOM     26  C   UNL     1      36.589 -23.311 -15.901  0.00  0.00    +0.015 C 
ATOM     27  C   UNL     1      34.317 -24.174 -14.531  0.00  0.00    +0.070 C 
ATOM     28  C   UNL     1      36.723 -24.076 -14.743  0.00  0.00    +0.002 C 
ATOM     29  C   UNL     1      35.587 -24.506 -14.058  0.00  0.00    +0.010 C 
BRANCH  27  31
ATOM     30  N   UNL     1      32.209 -24.975 -13.258  0.00  0.00    -0.191 NA
ATOM     31  C   UNL     1      33.155 -24.615 -13.829  0.00  0.00    +0.100 C 
ENDBRANCH  27  31
ENDBRANCH  21  24
ENDBRANCH   4  22
TORSDOF 5
ENDMDL
MODEL 6
REMARK VINA RESULT:     -13.2      5.472     10.399
REMARK  Name = 10200651
REMARK  5 active torsions:
REMARK  status: ('A' for Active; 'I' for Inactive)
REMARK    1  A    between atoms: C_1  and  C_7
REMARK    2  A    between atoms: C_4  and  C_22
REMARK    3  A    between atoms: C_10  and  C_17
REMARK    4  A    between atoms: N_21  and  C_24
REMARK    5  A    between atoms: C_27  and  C_31
REMARK                            x       y       z     vdW  Elec       q    Type
REMARK                         _______ _______ _______ _____ _____    ______ ____
ROOT
ATOM      1  C   UNL     1      35.241 -22.370 -17.792  0.00  0.00    -0.000 C 
ATOM      2  C   UNL     1      36.493 -21.773 -17.940  0.00  0.00    +0.000 C 
ATOM      3  C   UNL     1      34.239 -22.134 -18.733  0.00  0.00    +0.000 C 
ATOM      4  C   UNL     1      35.734 -20.721 -19.946  0.00  0.00    +0.054 C 
ATOM      5  C   UNL     1      36.742 -20.939 -19.029  0.00  0.00    +0.005 C 
ATOM      6  C   UNL     1      34.489 -21.300 -19.822  0.00  0.00    +0.005 C 
ENDROOT
BRANCH   1   7
ATOM      7  C   UNL     1      34.982 -23.236 -16.662  0.00  0.00    -0.004 C 
ATOM      8  C   UNL     1      33.677 -23.529 -16.260  0.00  0.00    -0.022 C 
ATOM      9  C   UNL     1      36.061 -23.783 -15.965  0.00  0.00    +0.004 C 
ATOM     10  C   UNL     1      35.838 -24.619 -14.871  0.00  0.00    +0.055 C 
ATOM     11  C   UNL     1      33.453 -24.365 -15.166  0.00  0.00    -0.004 C 
ATOM     12  C   UNL     1      34.533 -24.911 -14.473  0.00  0.00    +0.004 C 
ATOM     13  C   UNL     1      32.495 -22.963 -16.979  0.00  0.00    +0.031 C 
BRANCH  10  17
ATOM     14  O   UNL     1      38.153 -25.121 -14.788  0.00  0.00    -0.420 OA
ATOM     15  N   UNL     1      37.000 -25.753 -12.978  0.00  0.00    -0.107 NA
ATOM     16  N   UNL     1      38.322 -26.109 -12.788  0.00  0.00    -0.111 NA
ATOM     17  C   UNL     1      36.954 -25.183 -14.153  0.00  0.00    +0.250 A 
ATOM     18  C   UNL     1      38.958 -25.721 -13.869  0.00  0.00    +0.227 A 
ATOM     19  C   UNL     1      40.379 -25.843 -14.213  0.00  0.00    +0.097 C 
ENDBRANCH  10  17
ENDBRANCH   1   7
BRANCH   4  22
ATOM     20  O   UNL     1      37.170 -19.611 -21.400  0.00  0.00    -0.270 OA
ATOM     21  N   UNL     1      34.863 -19.348 -21.766  0.00  0.00    -0.280 N 
ATOM     22  C   UNL     1      36.000 -19.832 -21.106  0.00  0.00    +0.249 C 
ATOM     23  H   UNL     1      33.995 -19.626 -21.392  0.00  0.00    +0.155 HD
BRANCH  21  24
ATOM     24  C   UNL     1      34.808 -18.522 -22.890  0.00  0.00    +0.051 C 
ATOM     25  C   UNL     1      34.751 -17.137 -22.736  0.00  0.00    +0.025 C 
ATOM     26  C   UNL     1      34.809 -19.082 -24.167  0.00  0.00    +0.015 C 
ATOM     27  C   UNL     1      34.696 -16.312 -23.860  0.00  0.00    +0.070 C 
ATOM     28  C   UNL     1      34.753 -18.258 -25.291  0.00  0.00    +0.002 C 
ATOM     29  C   UNL     1      34.696 -16.873 -25.137  0.00  0.00    +0.010 C 
BRANCH  27  31
ATOM     30  N   UNL     1      34.591 -13.739 -23.576  0.00  0.00    -0.191 NA
ATOM     31  C   UNL     1      34.638 -14.893 -23.703  0.00  0.00    +0.100 C 
ENDBRANCH  27  31
ENDBRANCH  21  24
ENDBRANCH   4  22
TORSDOF 5
ENDMDL
MODEL 7
REMARK VINA RESULT:     -13.1      2.156     11.204
REMARK  Name = 10200651
REMARK  5 active torsions:
REMARK  status: ('A' for Active; 'I' for Inactive)
REMARK    1  A    between atoms: C_1  and  C_7
REMARK    2  A    between atoms: C_4  and  C_22
REMARK    3  A    between atoms: C_10  and  C_17
REMARK    4  A    between atoms: N_21  and  C_24
REMARK    5  A    between atoms: C_27  and  C_31
REMARK                            x       y       z     vdW  Elec       q    Type
REMARK                         _______ _______ _______ _____ _____    ______ ____
ROOT
ATOM      1  C   UNL     1      32.534 -10.226 -22.375  0.00  0.00    -0.000 C 
ATOM      2  C   UNL     1      33.469 -10.396 -23.396  0.00  0.00    +0.000 C 
ATOM      3  C   UNL     1      31.871 -11.331 -21.844  0.00  0.00    +0.000 C 
ATOM      4  C   UNL     1      33.071 -12.751 -23.343  0.00  0.00    +0.054 C 
ATOM      5  C   UNL     1      33.741 -11.674 -23.886  0.00  0.00    +0.005 C 
ATOM      6  C   UNL     1      32.142 -12.608 -22.334  0.00  0.00    +0.005 C 
ENDROOT
BRANCH   1   7
ATOM      7  C   UNL     1      32.252  -8.900 -21.867  0.00  0.00    -0.004 C 
ATOM      8  C   UNL     1      32.193  -8.650 -20.495  0.00  0.00    -0.022 C 
ATOM      9  C   UNL     1      32.037  -7.859 -22.773  0.00  0.00    +0.004 C 
ATOM     10  C   UNL     1      31.762  -6.573 -22.308  0.00  0.00    +0.055 C 
ATOM     11  C   UNL     1      31.918  -7.364 -20.030  0.00  0.00    -0.004 C 
ATOM     12  C   UNL     1      31.704  -6.325 -20.936  0.00  0.00    +0.004 C 
ATOM     13  C   UNL     1      32.416  -9.737 -19.495  0.00  0.00    +0.031 C 
BRANCH  10  17
ATOM     14  O   UNL     1      32.316  -5.520 -24.358  0.00  0.00    -0.420 OA
ATOM     15  N   UNL     1      30.705  -4.495 -23.194  0.00  0.00    -0.107 NA
ATOM     16  N   UNL     1      30.918  -3.773 -24.353  0.00  0.00    -0.111 NA
ATOM     17  C   UNL     1      31.540  -5.499 -23.244  0.00  0.00    +0.250 A 
ATOM     18  C   UNL     1      31.867  -4.407 -25.001  0.00  0.00    +0.227 A 
ATOM     19  C   UNL     1      32.493  -4.091 -26.290  0.00  0.00    +0.097 C 
ENDBRANCH  10  17
ENDBRANCH   1   7
BRANCH   4  22
ATOM     20  O   UNL     1      32.912 -14.407 -24.968  0.00  0.00    -0.270 OA
ATOM     21  N   UNL     1      34.148 -14.920 -23.036  0.00  0.00    -0.280 N 
ATOM     22  C   UNL     1      33.360 -14.112 -23.866  0.00  0.00    +0.249 C 
ATOM     23  H   UNL     1      34.423 -14.520 -22.178  0.00  0.00    +0.155 HD
BRANCH  21  24
ATOM     24  C   UNL     1      34.595 -16.220 -23.274  0.00  0.00    +0.051 C 
ATOM     25  C   UNL     1      35.172 -16.960 -22.243  0.00  0.00    +0.025 C 
ATOM     26  C   UNL     1      34.464 -16.779 -24.545  0.00  0.00    +0.015 C 
ATOM     27  C   UNL     1      35.618 -18.260 -22.482  0.00  0.00    +0.070 C 
ATOM     28  C   UNL     1      34.911 -18.079 -24.785  0.00  0.00    +0.002 C 
ATOM     29  C   UNL     1      35.488 -18.819 -23.753  0.00  0.00    +0.010 C 
BRANCH  27  31
ATOM     30  N   UNL     1      36.690 -19.635 -20.566  0.00  0.00    -0.191 NA
ATOM     31  C   UNL     1      36.209 -19.019 -21.426  0.00  0.00    +0.100 C 
ENDBRANCH  27  31
ENDBRANCH  21  24
ENDBRANCH   4  22
TORSDOF 5
ENDMDL
MODEL 8
REMARK VINA RESULT:     -13.0      1.668      2.075
REMARK  Name = 10200651
REMARK  5 active torsions:
REMARK  status: ('A' for Active; 'I' for Inactive)
REMARK    1  A    between atoms: C_1  and  C_7
REMARK    2  A    between atoms: C_4  and  C_22
REMARK    3  A    between atoms: C_10  and  C_17
REMARK    4  A    between atoms: N_21  and  C_24
REMARK    5  A    between atoms: C_27  and  C_31
REMARK                            x       y       z     vdW  Elec       q    Type
REMARK                         _______ _______ _______ _____ _____    ______ ____
ROOT
ATOM      1  C   UNL     1      34.147 -14.842 -23.805  0.00  0.00    -0.000 C 
ATOM      2  C   UNL     1      33.768 -14.273 -22.589  0.00  0.00    +0.000 C 
ATOM      3  C   UNL     1      34.362 -14.030 -24.918  0.00  0.00    +0.000 C 
ATOM      4  C   UNL     1      33.825 -12.111 -23.602  0.00  0.00    +0.054 C 
ATOM      5  C   UNL     1      33.606 -12.892 -22.486  0.00  0.00    +0.005 C 
ATOM      6  C   UNL     1      34.199 -12.649 -24.815  0.00  0.00    +0.005 C 
ENDROOT
BRANCH   1   7
ATOM      7  C   UNL     1      34.316 -16.275 -23.912  0.00  0.00    -0.004 C 
ATOM      8  C   UNL     1      33.860 -16.975 -25.030  0.00  0.00    -0.022 C 
ATOM      9  C   UNL     1      34.946 -16.963 -22.873  0.00  0.00    +0.004 C 
ATOM     10  C   UNL     1      35.119 -18.345 -22.951  0.00  0.00    +0.055 C 
ATOM     11  C   UNL     1      34.033 -18.357 -25.109  0.00  0.00    -0.004 C 
ATOM     12  C   UNL     1      34.663 -19.041 -24.071  0.00  0.00    +0.004 C 
ATOM     13  C   UNL     1      33.180 -16.276 -26.163  0.00  0.00    +0.031 C 
BRANCH  10  17
ATOM     14  O   UNL     1      35.097 -20.125 -21.387  0.00  0.00    -0.420 OA
ATOM     15  N   UNL     1      36.916 -18.827 -21.290  0.00  0.00    -0.107 NA
ATOM     16  N   UNL     1      37.043 -19.812 -20.328  0.00  0.00    -0.111 NA
ATOM     17  C   UNL     1      35.771 -19.053 -21.877  0.00  0.00    +0.250 A 
ATOM     18  C   UNL     1      35.958 -20.545 -20.420  0.00  0.00    +0.227 A 
ATOM     19  C   UNL     1      35.558 -21.725 -19.645  0.00  0.00    +0.097 C 
ENDBRANCH  10  17
ENDBRANCH   1   7
BRANCH   4  22
ATOM     20  O   UNL     1      34.514  -9.923 -23.988  0.00  0.00    -0.270 OA
ATOM     21  N   UNL     1      32.484 -10.219 -22.840  0.00  0.00    -0.280 N 
ATOM     22  C   UNL     1      33.650 -10.639 -23.492  0.00  0.00    +0.249 C 
ATOM     23  H   UNL     1      31.897 -10.934 -22.500  0.00  0.00    +0.155 HD
BRANCH  21  24
ATOM     24  C   UNL     1      32.048  -8.913 -22.614  0.00  0.00    +0.051 C 
ATOM     25  C   UNL     1      32.397  -8.255 -21.435  0.00  0.00    +0.025 C 
ATOM     26  C   UNL     1      31.264  -8.265 -23.568  0.00  0.00    +0.015 C 
ATOM     27  C   UNL     1      31.961  -6.949 -21.209  0.00  0.00    +0.070 C 
ATOM     28  C   UNL     1      30.828  -6.959 -23.344  0.00  0.00    +0.002 C 
ATOM     29  C   UNL     1      31.176  -6.302 -22.164  0.00  0.00    +0.010 C 
BRANCH  27  31
ATOM     30  N   UNL     1      32.607  -5.726 -19.019  0.00  0.00    -0.191 NA
ATOM     31  C   UNL     1      32.317  -6.274 -20.002  0.00  0.00    +0.100 C 
ENDBRANCH  27  31
ENDBRANCH  21  24
ENDBRANCH   4  22
TORSDOF 5
ENDMDL
MODEL 9
REMARK VINA RESULT:     -12.7      5.548     10.566
REMARK  Name = 10200651
REMARK  5 active torsions:
REMARK  status: ('A' for Active; 'I' for Inactive)
REMARK    1  A    between atoms: C_1  and  C_7
REMARK    2  A    between atoms: C_4  and  C_22
REMARK    3  A    between atoms: C_10  and  C_17
REMARK    4  A    between atoms: N_21  and  C_24
REMARK    5  A    between atoms: C_27  and  C_31
REMARK                            x       y       z     vdW  Elec       q    Type
REMARK                         _______ _______ _______ _____ _____    ______ ____
ROOT
ATOM      1  C   UNL     1      35.913 -22.218 -17.535  0.00  0.00    -0.000 C 
ATOM      2  C   UNL     1      37.021 -21.378 -17.637  0.00  0.00    +0.000 C 
ATOM      3  C   UNL     1      34.961 -22.245 -18.553  0.00  0.00    +0.000 C 
ATOM      4  C   UNL     1      36.221 -20.609 -19.752  0.00  0.00    +0.054 C 
ATOM      5  C   UNL     1      37.178 -20.564 -18.758  0.00  0.00    +0.005 C 
ATOM      6  C   UNL     1      35.117 -21.431 -19.674  0.00  0.00    +0.005 C 
ENDROOT
BRANCH   1   7
ATOM      7  C   UNL     1      35.751 -23.063 -16.370  0.00  0.00    -0.004 C 
ATOM      8  C   UNL     1      36.857 -23.584 -15.697  0.00  0.00    -0.022 C 
ATOM      9  C   UNL     1      34.462 -23.356 -15.920  0.00  0.00    +0.004 C 
ATOM     10  C   UNL     1      34.280 -24.169 -14.801  0.00  0.00    +0.055 C 
ATOM     11  C   UNL     1      36.675 -24.396 -14.578  0.00  0.00    -0.004 C 
ATOM     12  C   UNL     1      35.387 -24.688 -14.129  0.00  0.00    +0.004 C 
ATOM     13  C   UNL     1      38.252 -23.293 -16.148  0.00  0.00    +0.031 C 
BRANCH  10  17
ATOM     14  O   UNL     1      31.958 -24.324 -15.255  0.00  0.00    -0.420 OA
ATOM     15  N   UNL     1      32.533 -24.867 -13.163  0.00  0.00    -0.107 NA
ATOM     16  N   UNL     1      31.162 -25.003 -13.278  0.00  0.00    -0.111 NA
ATOM     17  C   UNL     1      32.948 -24.471 -14.337  0.00  0.00    +0.250 A 
ATOM     18  C   UNL     1      30.871 -24.675 -14.515  0.00  0.00    +0.227 A 
ATOM     19  C   UNL     1      29.570 -24.636 -15.191  0.00  0.00    +0.097 C 
ENDBRANCH  10  17
ENDBRANCH   1   7
BRANCH   4  22
ATOM     20  O   UNL     1      37.528 -19.426 -21.269  0.00  0.00    -0.270 OA
ATOM     21  N   UNL     1      35.201 -19.386 -21.602  0.00  0.00    -0.280 N 
ATOM     22  C   UNL     1      36.388 -19.741 -20.947  0.00  0.00    +0.249 C 
ATOM     23  H   UNL     1      34.368 -19.728 -21.202  0.00  0.00    +0.155 HD
BRANCH  21  24
ATOM     24  C   UNL     1      35.053 -18.609 -22.752  0.00  0.00    +0.051 C 
ATOM     25  C   UNL     1      34.942 -17.223 -22.648  0.00  0.00    +0.025 C 
ATOM     26  C   UNL     1      35.018 -19.220 -24.005  0.00  0.00    +0.015 C 
ATOM     27  C   UNL     1      34.795 -16.447 -23.798  0.00  0.00    +0.070 C 
ATOM     28  C   UNL     1      34.870 -18.445 -25.156  0.00  0.00    +0.002 C 
ATOM     29  C   UNL     1      34.758 -17.059 -25.051  0.00  0.00    +0.010 C 
BRANCH  27  31
ATOM     30  N   UNL     1      34.588 -13.872 -23.607  0.00  0.00    -0.191 NA
ATOM     31  C   UNL     1      34.681 -15.027 -23.693  0.00  0.00    +0.100 C 
ENDBRANCH  27  31
ENDBRANCH  21  24
ENDBRANCH   4  22
TORSDOF 5
ENDMDL
