MODEL 1
REMARK VINA RESULT:     -14.1      0.000      0.000
REMARK  Name = 9800765
REMARK  5 active torsions:
REMARK  status: ('A' for Active; 'I' for Inactive)
REMARK    1  A    between atoms: C_3  and  C_17
REMARK    2  A    between atoms: C_5  and  N_8
REMARK    3  A    between atoms: N_8  and  C_14
REMARK    4  A    between atoms: C_17  and  C_20
REMARK    5  A    between atoms: C_23  and  C_26
REMARK                            x       y       z     vdW  Elec       q    Type
REMARK                         _______ _______ _______ _____ _____    ______ ____
ROOT
ATOM      1  O   UNL     1      37.569 -21.356 -16.834  0.00  0.00    -0.337 OA
ATOM      2  N   UNL     1      36.832 -21.356 -18.012  0.00  0.00    -0.079 NA
ATOM      3  C   UNL     1      35.860 -22.250 -17.811  0.00  0.00    +0.106 C 
ATOM      4  C   UNL     1      35.932 -22.839 -16.537  0.00  0.00    +0.076 C 
ATOM      5  C   UNL     1      37.019 -22.240 -15.972  0.00  0.00    +0.252 C 
ENDROOT
BRANCH   3   6
ATOM      6  C   UNL     1      34.873 -22.512 -18.871  0.00  0.00    +0.066 C 
ATOM      7  C   UNL     1      33.466 -22.878 -18.338  0.00  0.00    +0.011 C 
BRANCH   6   9
ATOM      8  F   UNL     1      37.340 -19.264 -21.515  0.00  0.00    -0.204 F 
ATOM      9  C   UNL     1      34.906 -21.319 -19.832  0.00  0.00    -0.015 C 
ATOM     10  C   UNL     1      36.127 -20.834 -20.236  0.00  0.00    +0.026 C 
ATOM     11  C   UNL     1      33.712 -20.781 -20.253  0.00  0.00    -0.004 C 
ATOM     12  C   UNL     1      34.964 -19.180 -21.557  0.00  0.00    +0.027 C 
ATOM     13  C   UNL     1      36.157 -19.749 -21.112  0.00  0.00    +0.140 C 
ATOM     14  C   UNL     1      33.742 -19.696 -21.128  0.00  0.00    +0.002 C 
BRANCH  12  15
ATOM     15  C   UNL     1      34.990 -18.055 -22.467  0.00  0.00    +0.002 C 
ATOM     16  C   UNL     1      34.987 -18.273 -23.845  0.00  0.00    +0.000 C 
ATOM     17  C   UNL     1      35.017 -16.753 -21.967  0.00  0.00    +0.000 C 
ATOM     18  C   UNL     1      35.010 -17.190 -24.722  0.00  0.00    +0.000 C 
ATOM     19  C   UNL     1      35.040 -15.670 -22.845  0.00  0.00    +0.000 C 
ATOM     20  C   UNL     1      35.038 -15.887 -24.223  0.00  0.00    +0.000 C 
ENDBRANCH  12  15
ENDBRANCH   6   9
ENDBRANCH   3   6
BRANCH   5  21
ATOM     21  N   UNL     1      37.561 -22.427 -14.736  0.00  0.00    -0.147 NA
BRANCH  21  29
ATOM     22  O   UNL     1      38.665 -27.117 -14.662  0.00  0.00    -0.350 OA
ATOM     23  N   UNL     1      37.613 -24.610 -13.989  0.00  0.00    -0.277 N 
ATOM     24  N   UNL     1      35.963 -23.311 -13.152  0.00  0.00    -0.373 N 
ATOM     25  C   UNL     1      36.829 -25.820 -13.753  0.00  0.00    +0.125 C 
ATOM     26  C   UNL     1      39.059 -24.809 -14.028  0.00  0.00    +0.125 C 
ATOM     27  C   UNL     1      37.255 -26.898 -14.742  0.00  0.00    +0.164 C 
ATOM     28  C   UNL     1      39.387 -25.932 -15.005  0.00  0.00    +0.164 C 
ATOM     29  C   UNL     1      37.055 -23.379 -13.992  0.00  0.00    +0.182 C 
ATOM     30  H   UNL     1      35.682 -24.107 -12.644  0.00  0.00    +0.158 HD
ATOM     31  H   UNL     1      35.463 -22.468 -13.060  0.00  0.00    +0.158 HD
ENDBRANCH  21  29
ENDBRANCH   5  21
TORSDOF 5
ENDMDL
MODEL 2
REMARK VINA RESULT:     -13.6      1.473      1.956
REMARK  Name = 9800765
REMARK  5 active torsions:
REMARK  status: ('A' for Active; 'I' for Inactive)
REMARK    1  A    between atoms: C_3  and  C_17
REMARK    2  A    between atoms: C_5  and  N_8
REMARK    3  A    between atoms: N_8  and  C_14
REMARK    4  A    between atoms: C_17  and  C_20
REMARK    5  A    between atoms: C_23  and  C_26
REMARK                            x       y       z     vdW  Elec       q    Type
REMARK                         _______ _______ _______ _____ _____    ______ ____
ROOT
ATOM      1  O   UNL     1      36.743 -22.694 -15.832  0.00  0.00    -0.337 OA
ATOM      2  N   UNL     1      36.052 -22.737 -17.037  0.00  0.00    -0.079 NA
ATOM      3  C   UNL     1      34.812 -23.115 -16.710  0.00  0.00    +0.106 C 
ATOM      4  C   UNL     1      34.665 -23.323 -15.328  0.00  0.00    +0.076 C 
ATOM      5  C   UNL     1      35.903 -23.044 -14.832  0.00  0.00    +0.252 C 
ENDROOT
BRANCH   3   6
ATOM      6  C   UNL     1      33.791 -23.266 -17.759  0.00  0.00    +0.066 C 
ATOM      7  C   UNL     1      32.340 -23.284 -17.219  0.00  0.00    +0.011 C 
BRANCH   6   9
ATOM      8  F   UNL     1      32.234 -19.811 -20.802  0.00  0.00    -0.204 F 
ATOM      9  C   UNL     1      34.067 -22.201 -18.825  0.00  0.00    -0.015 C 
ATOM     10  C   UNL     1      33.007 -21.487 -19.329  0.00  0.00    +0.026 C 
ATOM     11  C   UNL     1      35.365 -22.002 -19.235  0.00  0.00    -0.004 C 
ATOM     12  C   UNL     1      34.562 -20.290 -20.737  0.00  0.00    +0.027 C 
ATOM     13  C   UNL     1      33.258 -20.517 -20.300  0.00  0.00    +0.140 C 
ATOM     14  C   UNL     1      35.615 -21.033 -20.205  0.00  0.00    +0.002 C 
BRANCH  12  15
ATOM     15  C   UNL     1      34.828 -19.284 -21.743  0.00  0.00    +0.002 C 
ATOM     16  C   UNL     1      34.885 -19.643 -23.090  0.00  0.00    +0.000 C 
ATOM     17  C   UNL     1      35.025 -17.956 -21.366  0.00  0.00    +0.000 C 
ATOM     18  C   UNL     1      35.140 -18.674 -24.059  0.00  0.00    +0.000 C 
ATOM     19  C   UNL     1      35.280 -16.986 -22.337  0.00  0.00    +0.000 C 
ATOM     20  C   UNL     1      35.339 -17.345 -23.684  0.00  0.00    +0.000 C 
ENDBRANCH  12  15
ENDBRANCH   6   9
ENDBRANCH   3   6
BRANCH   5  21
ATOM     21  N   UNL     1      36.344 -23.079 -13.543  0.00  0.00    -0.147 NA
BRANCH  21  29
ATOM     22  O   UNL     1      38.978 -26.917 -14.790  0.00  0.00    -0.350 OA
ATOM     23  N   UNL     1      37.344 -25.151 -13.356  0.00  0.00    -0.277 N 
ATOM     24  N   UNL     1      35.634 -24.740 -11.935  0.00  0.00    -0.373 N 
ATOM     25  C   UNL     1      37.121 -26.591 -13.266  0.00  0.00    +0.125 C 
ATOM     26  C   UNL     1      38.704 -24.759 -13.717  0.00  0.00    +0.125 C 
ATOM     27  C   UNL     1      37.613 -27.259 -14.544  0.00  0.00    +0.164 C 
ATOM     28  C   UNL     1      39.126 -25.507 -14.976  0.00  0.00    +0.164 C 
ATOM     29  C   UNL     1      36.416 -24.250 -12.961  0.00  0.00    +0.182 C 
ATOM     30  H   UNL     1      35.792 -25.647 -11.585  0.00  0.00    +0.158 HD
ATOM     31  H   UNL     1      34.917 -24.183 -11.553  0.00  0.00    +0.158 HD
ENDBRANCH  21  29
ENDBRANCH   5  21
TORSDOF 5
ENDMDL
MODEL 3
REMARK VINA RESULT:     -13.6      9.765     13.470
REMARK  Name = 9800765
REMARK  5 active torsions:
REMARK  status: ('A' for Active; 'I' for Inactive)
REMARK    1  A    between atoms: C_3  and  C_17
REMARK    2  A    between atoms: C_5  and  N_8
REMARK    3  A    between atoms: N_8  and  C_14
REMARK    4  A    between atoms: C_17  and  C_20
REMARK    5  A    between atoms: C_23  and  C_26
REMARK                            x       y       z     vdW  Elec       q    Type
REMARK                         _______ _______ _______ _____ _____    ______ ____
ROOT
ATOM      1  O   UNL     1      32.331 -12.458 -20.645  0.00  0.00    -0.337 OA
ATOM      2  N   UNL     1      32.119 -11.222 -20.048  0.00  0.00    -0.079 NA
ATOM      3  C   UNL     1      31.804 -10.401 -21.054  0.00  0.00    +0.106 C 
ATOM      4  C   UNL     1      31.801 -11.057 -22.296  0.00  0.00    +0.076 C 
ATOM      5  C   UNL     1      32.137 -12.339 -21.978  0.00  0.00    +0.252 C 
ENDROOT
BRANCH   3   6
ATOM      6  C   UNL     1      31.509  -8.985 -20.781  0.00  0.00    +0.066 C 
ATOM      7  C   UNL     1      31.918  -8.524 -19.360  0.00  0.00    +0.011 C 
BRANCH   6   9
ATOM      8  F   UNL     1      35.356  -7.034 -23.023  0.00  0.00    -0.204 F 
ATOM      9  C   UNL     1      32.115  -8.162 -21.922  0.00  0.00    -0.015 C 
ATOM     10  C   UNL     1      33.476  -7.975 -21.946  0.00  0.00    +0.026 C 
ATOM     11  C   UNL     1      31.273  -7.643 -22.878  0.00  0.00    -0.004 C 
ATOM     12  C   UNL     1      33.202  -6.686 -23.970  0.00  0.00    +0.027 C 
ATOM     13  C   UNL     1      34.029  -7.226 -22.985  0.00  0.00    +0.140 C 
ATOM     14  C   UNL     1      31.824  -6.894 -23.916  0.00  0.00    +0.002 C 
BRANCH  12  15
ATOM     15  C   UNL     1      33.770  -5.909 -25.051  0.00  0.00    +0.002 C 
ATOM     16  C   UNL     1      35.051  -6.203 -25.521  0.00  0.00    +0.000 C 
ATOM     17  C   UNL     1      33.038  -4.869 -25.623  0.00  0.00    +0.000 C 
ATOM     18  C   UNL     1      35.598  -5.456 -26.564  0.00  0.00    +0.000 C 
ATOM     19  C   UNL     1      33.587  -4.122 -26.666  0.00  0.00    +0.000 C 
ATOM     20  C   UNL     1      34.867  -4.415 -27.137  0.00  0.00    +0.000 C 
ENDBRANCH  12  15
ENDBRANCH   6   9
ENDBRANCH   3   6
BRANCH   5  21
ATOM     21  N   UNL     1      32.286 -13.420 -22.795  0.00  0.00    -0.147 NA
BRANCH  21  29
ATOM     22  O   UNL     1      34.224 -16.122 -26.283  0.00  0.00    -0.350 OA
ATOM     23  N   UNL     1      33.902 -14.571 -23.973  0.00  0.00    -0.277 N 
ATOM     24  N   UNL     1      34.389 -14.100 -21.815  0.00  0.00    -0.373 N 
ATOM     25  C   UNL     1      34.812 -15.714 -23.966  0.00  0.00    +0.125 C 
ATOM     26  C   UNL     1      33.660 -13.983 -25.287  0.00  0.00    +0.125 C 
ATOM     27  C   UNL     1      34.346 -16.734 -24.997  0.00  0.00    +0.164 C 
ATOM     28  C   UNL     1      33.246 -15.079 -26.261  0.00  0.00    +0.164 C 
ATOM     29  C   UNL     1      33.464 -13.991 -22.833  0.00  0.00    +0.182 C 
ATOM     30  H   UNL     1      35.245 -14.560 -21.975  0.00  0.00    +0.158 HD
ATOM     31  H   UNL     1      34.194 -13.719 -20.928  0.00  0.00    +0.158 HD
ENDBRANCH  21  29
ENDBRANCH   5  21
TORSDOF 5
ENDMDL
MODEL 4
REMARK VINA RESULT:     -13.6      3.182      5.995
REMARK  Name = 9800765
REMARK  5 active torsions:
REMARK  status: ('A' for Active; 'I' for Inactive)
REMARK    1  A    between atoms: C_3  and  C_17
REMARK    2  A    between atoms: C_5  and  N_8
REMARK    3  A    between atoms: N_8  and  C_14
REMARK    4  A    between atoms: C_17  and  C_20
REMARK    5  A    between atoms: C_23  and  C_26
REMARK                            x       y       z     vdW  Elec       q    Type
REMARK                         _______ _______ _______ _____ _____    ______ ____
ROOT
ATOM      1  O   UNL     1      36.228 -19.504 -20.592  0.00  0.00    -0.337 OA
ATOM      2  N   UNL     1      36.533 -18.687 -21.673  0.00  0.00    -0.079 NA
ATOM      3  C   UNL     1      35.481 -18.787 -22.490  0.00  0.00    +0.106 C 
ATOM      4  C   UNL     1      34.491 -19.645 -21.981  0.00  0.00    +0.076 C 
ATOM      5  C   UNL     1      35.014 -20.063 -20.793  0.00  0.00    +0.252 C 
ENDROOT
BRANCH   3   6
ATOM      6  C   UNL     1      35.461 -18.039 -23.757  0.00  0.00    +0.066 C 
ATOM      7  C   UNL     1      34.834 -18.823 -24.936  0.00  0.00    +0.011 C 
BRANCH   6   9
ATOM      8  F   UNL     1      34.429 -14.382 -20.726  0.00  0.00    -0.204 F 
ATOM      9  C   UNL     1      34.817 -16.678 -23.476  0.00  0.00    -0.015 C 
ATOM     10  C   UNL     1      34.922 -16.150 -22.212  0.00  0.00    +0.026 C 
ATOM     11  C   UNL     1      34.158 -16.038 -24.500  0.00  0.00    -0.004 C 
ATOM     12  C   UNL     1      33.660 -14.236 -22.972  0.00  0.00    +0.027 C 
ATOM     13  C   UNL     1      34.335 -14.911 -21.955  0.00  0.00    +0.140 C 
ATOM     14  C   UNL     1      33.571 -14.800 -24.244  0.00  0.00    +0.002 C 
BRANCH  12  15
ATOM     15  C   UNL     1      33.051 -12.949 -22.711  0.00  0.00    +0.002 C 
ATOM     16  C   UNL     1      32.125 -12.814 -21.677  0.00  0.00    +0.000 C 
ATOM     17  C   UNL     1      33.390 -11.845 -23.493  0.00  0.00    +0.000 C 
ATOM     18  C   UNL     1      31.539 -11.574 -21.424  0.00  0.00    +0.000 C 
ATOM     19  C   UNL     1      32.803 -10.605 -23.240  0.00  0.00    +0.000 C 
ATOM     20  C   UNL     1      31.877 -10.469 -22.206  0.00  0.00    +0.000 C 
ENDBRANCH  12  15
ENDBRANCH   6   9
ENDBRANCH   3   6
BRANCH   5  21
ATOM     21  N   UNL     1      34.484 -20.912 -19.869  0.00  0.00    -0.147 NA
BRANCH  21  29
ATOM     22  O   UNL     1      33.613 -23.639 -15.993  0.00  0.00    -0.350 OA
ATOM     23  N   UNL     1      34.854 -22.488 -18.224  0.00  0.00    -0.277 N 
ATOM     24  N   UNL     1      36.690 -21.720 -19.298  0.00  0.00    -0.373 N 
ATOM     25  C   UNL     1      35.644 -22.835 -17.046  0.00  0.00    +0.125 C 
ATOM     26  C   UNL     1      33.620 -23.252 -18.387  0.00  0.00    +0.125 C 
ATOM     27  C   UNL     1      34.752 -22.794 -15.811  0.00  0.00    +0.164 C 
ATOM     28  C   UNL     1      32.817 -23.194 -17.094  0.00  0.00    +0.164 C 
ATOM     29  C   UNL     1      35.316 -21.655 -19.183  0.00  0.00    +0.182 C 
ATOM     30  H   UNL     1      37.205 -22.324 -18.715  0.00  0.00    +0.158 HD
ATOM     31  H   UNL     1      37.156 -21.161 -19.961  0.00  0.00    +0.158 HD
ENDBRANCH  21  29
ENDBRANCH   5  21
TORSDOF 5
ENDMDL
MODEL 5
REMARK VINA RESULT:     -13.5      1.283      2.008
REMARK  Name = 9800765
REMARK  5 active torsions:
REMARK  status: ('A' for Active; 'I' for Inactive)
REMARK    1  A    between atoms: C_3  and  C_17
REMARK    2  A    between atoms: C_5  and  N_8
REMARK    3  A    between atoms: N_8  and  C_14
REMARK    4  A    between atoms: C_17  and  C_20
REMARK    5  A    between atoms: C_23  and  C_26
REMARK                            x       y       z     vdW  Elec       q    Type
REMARK                         _______ _______ _______ _____ _____    ______ ____
ROOT
ATOM      1  O   UNL     1      37.516 -21.172 -17.031  0.00  0.00    -0.337 OA
ATOM      2  N   UNL     1      36.873 -21.089 -18.260  0.00  0.00    -0.079 NA
ATOM      3  C   UNL     1      35.984 -22.086 -18.254  0.00  0.00    +0.106 C 
ATOM      4  C   UNL     1      36.020 -22.825 -17.059  0.00  0.00    +0.076 C 
ATOM      5  C   UNL     1      36.996 -22.208 -16.334  0.00  0.00    +0.252 C 
ENDROOT
BRANCH   3   6
ATOM      6  C   UNL     1      35.111 -22.298 -19.419  0.00  0.00    +0.066 C 
ATOM      7  C   UNL     1      33.723 -22.884 -19.061  0.00  0.00    +0.011 C 
BRANCH   6   9
ATOM      8  F   UNL     1      37.374 -18.586 -21.592  0.00  0.00    -0.204 F 
ATOM      9  C   UNL     1      35.070 -20.985 -20.207  0.00  0.00    -0.015 C 
ATOM     10  C   UNL     1      36.259 -20.383 -20.541  0.00  0.00    +0.026 C 
ATOM     11  C   UNL     1      33.845 -20.461 -20.549  0.00  0.00    -0.004 C 
ATOM     12  C   UNL     1      34.997 -18.629 -21.621  0.00  0.00    +0.027 C 
ATOM     13  C   UNL     1      36.222 -19.187 -21.259  0.00  0.00    +0.140 C 
ATOM     14  C   UNL     1      33.808 -19.266 -21.266  0.00  0.00    +0.002 C 
BRANCH  12  15
ATOM     15  C   UNL     1      34.953 -17.389 -22.366  0.00  0.00    +0.002 C 
ATOM     16  C   UNL     1      34.780 -16.179 -21.695  0.00  0.00    +0.000 C 
ATOM     17  C   UNL     1      35.085 -17.405 -23.754  0.00  0.00    +0.000 C 
ATOM     18  C   UNL     1      34.739 -14.984 -22.413  0.00  0.00    +0.000 C 
ATOM     19  C   UNL     1      35.044 -16.209 -24.472  0.00  0.00    +0.000 C 
ATOM     20  C   UNL     1      34.870 -14.998 -23.802  0.00  0.00    +0.000 C 
ENDBRANCH  12  15
ENDBRANCH   6   9
ENDBRANCH   3   6
BRANCH   5  21
ATOM     21  N   UNL     1      37.461 -22.502 -15.088  0.00  0.00    -0.147 NA
BRANCH  21  29
ATOM     22  O   UNL     1      36.086 -25.471 -11.550  0.00  0.00    -0.350 OA
ATOM     23  N   UNL     1      37.211 -24.472 -13.913  0.00  0.00    -0.277 N 
ATOM     24  N   UNL     1      38.843 -24.447 -15.477  0.00  0.00    -0.373 N 
ATOM     25  C   UNL     1      37.896 -25.522 -13.163  0.00  0.00    +0.125 C 
ATOM     26  C   UNL     1      35.766 -24.410 -13.708  0.00  0.00    +0.125 C 
ATOM     27  C   UNL     1      37.507 -25.427 -11.693  0.00  0.00    +0.164 C 
ATOM     28  C   UNL     1      35.471 -24.364 -12.214  0.00  0.00    +0.164 C 
ATOM     29  C   UNL     1      37.836 -23.735 -14.858  0.00  0.00    +0.182 C 
ATOM     30  H   UNL     1      39.027 -25.377 -15.208  0.00  0.00    +0.158 HD
ATOM     31  H   UNL     1      39.380 -24.026 -16.187  0.00  0.00    +0.158 HD
ENDBRANCH  21  29
ENDBRANCH   5  21
TORSDOF 5
ENDMDL
MODEL 6
REMARK VINA RESULT:     -13.4      9.782     13.491
REMARK  Name = 9800765
REMARK  5 active torsions:
REMARK  status: ('A' for Active; 'I' for Inactive)
REMARK    1  A    between atoms: C_3  and  C_17
REMARK    2  A    between atoms: C_5  and  N_8
REMARK    3  A    between atoms: N_8  and  C_14
REMARK    4  A    between atoms: C_17  and  C_20
REMARK    5  A    between atoms: C_23  and  C_26
REMARK                            x       y       z     vdW  Elec       q    Type
REMARK                         _______ _______ _______ _____ _____    ______ ____
ROOT
ATOM      1  O   UNL     1      32.297 -12.615 -20.653  0.00  0.00    -0.337 OA
ATOM      2  N   UNL     1      32.069 -11.404 -20.012  0.00  0.00    -0.079 NA
ATOM      3  C   UNL     1      31.823 -10.533 -20.995  0.00  0.00    +0.106 C 
ATOM      4  C   UNL     1      31.882 -11.132 -22.265  0.00  0.00    +0.076 C 
ATOM      5  C   UNL     1      32.181 -12.433 -21.988  0.00  0.00    +0.252 C 
ENDROOT
BRANCH   3   6
ATOM      6  C   UNL     1      31.533  -9.127 -20.674  0.00  0.00    +0.066 C 
ATOM      7  C   UNL     1      31.986  -8.703 -19.256  0.00  0.00    +0.011 C 
BRANCH   6   9
ATOM      8  F   UNL     1      30.965  -6.740 -24.870  0.00  0.00    -0.204 F 
ATOM      9  C   UNL     1      32.099  -8.271 -21.812  0.00  0.00    -0.015 C 
ATOM     10  C   UNL     1      31.258  -7.895 -22.831  0.00  0.00    +0.026 C 
ATOM     11  C   UNL     1      33.426  -7.913 -21.768  0.00  0.00    -0.004 C 
ATOM     12  C   UNL     1      33.114  -6.736 -23.853  0.00  0.00    +0.027 C 
ATOM     13  C   UNL     1      31.773  -7.115 -23.867  0.00  0.00    +0.140 C 
ATOM     14  C   UNL     1      33.941  -7.135 -22.803  0.00  0.00    +0.002 C 
BRANCH  12  15
ATOM     15  C   UNL     1      33.653  -5.926 -24.925  0.00  0.00    +0.002 C 
ATOM     16  C   UNL     1      32.888  -4.895 -25.471  0.00  0.00    +0.000 C 
ATOM     17  C   UNL     1      34.936  -6.175 -25.411  0.00  0.00    +0.000 C 
ATOM     18  C   UNL     1      33.407  -4.113 -26.502  0.00  0.00    +0.000 C 
ATOM     19  C   UNL     1      35.455  -5.393 -26.443  0.00  0.00    +0.000 C 
ATOM     20  C   UNL     1      34.690  -4.362 -26.990  0.00  0.00    +0.000 C 
ENDBRANCH  12  15
ENDBRANCH   6   9
ENDBRANCH   3   6
BRANCH   5  21
ATOM     21  N   UNL     1      32.361 -13.478 -22.844  0.00  0.00    -0.147 NA
BRANCH  21  29
ATOM     22  O   UNL     1      34.272 -16.330 -26.225  0.00  0.00    -0.350 OA
ATOM     23  N   UNL     1      33.971 -14.670 -23.989  0.00  0.00    -0.277 N 
ATOM     24  N   UNL     1      34.486 -14.089 -21.865  0.00  0.00    -0.373 N 
ATOM     25  C   UNL     1      34.892 -15.803 -23.940  0.00  0.00    +0.125 C 
ATOM     26  C   UNL     1      33.702 -14.150 -25.327  0.00  0.00    +0.125 C 
ATOM     27  C   UNL     1      34.421 -16.877 -24.913  0.00  0.00    +0.164 C 
ATOM     28  C   UNL     1      33.284 -15.297 -26.239  0.00  0.00    +0.164 C 
ATOM     29  C   UNL     1      33.544 -14.039 -22.872  0.00  0.00    +0.182 C 
ATOM     30  H   UNL     1      35.344 -14.548 -22.016  0.00  0.00    +0.158 HD
ATOM     31  H   UNL     1      34.300 -13.667 -20.995  0.00  0.00    +0.158 HD
ENDBRANCH  21  29
ENDBRANCH   5  21
TORSDOF 5
ENDMDL
MODEL 7
REMARK VINA RESULT:     -13.3      9.066     13.212
REMARK  Name = 9800765
REMARK  5 active torsions:
REMARK  status: ('A' for Active; 'I' for Inactive)
REMARK    1  A    between atoms: C_3  and  C_17
REMARK    2  A    between atoms: C_5  and  N_8
REMARK    3  A    between atoms: N_8  and  C_14
REMARK    4  A    between atoms: C_17  and  C_20
REMARK    5  A    between atoms: C_23  and  C_26
REMARK                            x       y       z     vdW  Elec       q    Type
REMARK                         _______ _______ _______ _____ _____    ______ ____
ROOT
ATOM      1  O   UNL     1      32.954 -12.321 -23.348  0.00  0.00    -0.337 OA
ATOM      2  N   UNL     1      32.725 -10.966 -23.145  0.00  0.00    -0.079 NA
ATOM      3  C   UNL     1      32.105 -10.893 -21.964  0.00  0.00    +0.106 C 
ATOM      4  C   UNL     1      31.918 -12.158 -21.381  0.00  0.00    +0.076 C 
ATOM      5  C   UNL     1      32.469 -13.011 -22.291  0.00  0.00    +0.252 C 
ENDROOT
BRANCH   3   6
ATOM      6  C   UNL     1      31.706  -9.584 -21.423  0.00  0.00    +0.066 C 
ATOM      7  C   UNL     1      32.155  -9.349 -19.960  0.00  0.00    +0.011 C 
BRANCH   6   9
ATOM      8  F   UNL     1      35.220  -6.829 -23.346  0.00  0.00    -0.204 F 
ATOM      9  C   UNL     1      32.174  -8.516 -22.418  0.00  0.00    -0.015 C 
ATOM     10  C   UNL     1      33.501  -8.160 -22.423  0.00  0.00    +0.026 C 
ATOM     11  C   UNL     1      31.247  -7.955 -23.265  0.00  0.00    -0.004 C 
ATOM     12  C   UNL     1      33.012  -6.600 -24.201  0.00  0.00    +0.027 C 
ATOM     13  C   UNL     1      33.927  -7.188 -23.328  0.00  0.00    +0.140 C 
ATOM     14  C   UNL     1      31.672  -6.983 -24.169  0.00  0.00    +0.002 C 
BRANCH  12  15
ATOM     15  C   UNL     1      33.450  -5.592 -25.143  0.00  0.00    +0.002 C 
ATOM     16  C   UNL     1      32.686  -4.439 -25.334  0.00  0.00    +0.000 C 
ATOM     17  C   UNL     1      34.633  -5.771 -25.858  0.00  0.00    +0.000 C 
ATOM     18  C   UNL     1      33.107  -3.467 -26.241  0.00  0.00    +0.000 C 
ATOM     19  C   UNL     1      35.054  -4.798 -26.765  0.00  0.00    +0.000 C 
ATOM     20  C   UNL     1      34.290  -3.646 -26.957  0.00  0.00    +0.000 C 
ENDBRANCH  12  15
ENDBRANCH   6   9
ENDBRANCH   3   6
BRANCH   5  21
ATOM     21  N   UNL     1      32.570 -14.369 -22.249  0.00  0.00    -0.147 NA
BRANCH  21  29
ATOM     22  O   UNL     1      34.544 -16.850 -25.878  0.00  0.00    -0.350 OA
ATOM     23  N   UNL     1      34.208 -15.404 -23.503  0.00  0.00    -0.277 N 
ATOM     24  N   UNL     1      34.721 -14.996 -21.338  0.00  0.00    -0.373 N 
ATOM     25  C   UNL     1      35.164 -16.507 -23.559  0.00  0.00    +0.125 C 
ATOM     26  C   UNL     1      33.914 -14.776 -24.788  0.00  0.00    +0.125 C 
ATOM     27  C   UNL     1      34.720 -17.506 -24.620  0.00  0.00    +0.164 C 
ATOM     28  C   UNL     1      33.524 -15.851 -25.796  0.00  0.00    +0.164 C 
ATOM     29  C   UNL     1      33.770 -14.888 -22.332  0.00  0.00    +0.182 C 
ATOM     30  H   UNL     1      35.592 -15.413 -21.533  0.00  0.00    +0.158 HD
ATOM     31  H   UNL     1      34.529 -14.659 -20.434  0.00  0.00    +0.158 HD
ENDBRANCH  21  29
ENDBRANCH   5  21
TORSDOF 5
ENDMDL
MODEL 8
REMARK VINA RESULT:     -13.1      7.349     12.818
REMARK  Name = 9800765
REMARK  5 active torsions:
REMARK  status: ('A' for Active; 'I' for Inactive)
REMARK    1  A    between atoms: C_3  and  C_17
REMARK    2  A    between atoms: C_5  and  N_8
REMARK    3  A    between atoms: N_8  and  C_14
REMARK    4  A    between atoms: C_17  and  C_20
REMARK    5  A    between atoms: C_23  and  C_26
REMARK                            x       y       z     vdW  Elec       q    Type
REMARK                         _______ _______ _______ _____ _____    ______ ____
ROOT
ATOM      1  O   UNL     1      31.601 -12.296 -20.968  0.00  0.00    -0.337 OA
ATOM      2  N   UNL     1      32.148 -13.287 -21.774  0.00  0.00    -0.079 NA
ATOM      3  C   UNL     1      32.653 -12.636 -22.826  0.00  0.00    +0.106 C 
ATOM      4  C   UNL     1      32.456 -11.248 -22.740  0.00  0.00    +0.076 C 
ATOM      5  C   UNL     1      31.794 -11.095 -21.558  0.00  0.00    +0.252 C 
ENDROOT
BRANCH   3   6
ATOM      6  C   UNL     1      33.323 -13.387 -23.901  0.00  0.00    +0.066 C 
ATOM      7  C   UNL     1      34.349 -12.548 -24.702  0.00  0.00    +0.011 C 
BRANCH   6   9
ATOM      8  F   UNL     1      34.866 -17.976 -24.326  0.00  0.00    -0.204 F 
ATOM      9  C   UNL     1      33.886 -14.670 -23.281  0.00  0.00    -0.015 C 
ATOM     10  C   UNL     1      34.120 -15.747 -24.102  0.00  0.00    +0.026 C 
ATOM     11  C   UNL     1      34.135 -14.693 -21.929  0.00  0.00    -0.004 C 
ATOM     12  C   UNL     1      34.896 -16.972 -22.171  0.00  0.00    +0.027 C 
ATOM     13  C   UNL     1      34.633 -16.916 -23.539  0.00  0.00    +0.140 C 
ATOM     14  C   UNL     1      34.647 -15.861 -21.366  0.00  0.00    +0.002 C 
BRANCH  12  15
ATOM     15  C   UNL     1      35.430 -18.182 -21.581  0.00  0.00    +0.002 C 
ATOM     16  C   UNL     1      36.805 -18.310 -21.381  0.00  0.00    +0.000 C 
ATOM     17  C   UNL     1      34.571 -19.217 -21.214  0.00  0.00    +0.000 C 
ATOM     18  C   UNL     1      37.319 -19.475 -20.812  0.00  0.00    +0.000 C 
ATOM     19  C   UNL     1      35.087 -20.382 -20.645  0.00  0.00    +0.000 C 
ATOM     20  C   UNL     1      36.461 -20.512 -20.444  0.00  0.00    +0.000 C 
ENDBRANCH  12  15
ENDBRANCH   6   9
ENDBRANCH   3   6
BRANCH   5  21
ATOM     21  N   UNL     1      31.345  -9.954 -20.962  0.00  0.00    -0.147 NA
BRANCH  21  29
ATOM     22  O   UNL     1      32.933  -6.741 -24.182  0.00  0.00    -0.350 OA
ATOM     23  N   UNL     1      32.399  -8.070 -21.775  0.00  0.00    -0.277 N 
ATOM     24  N   UNL     1      32.998  -8.726 -19.695  0.00  0.00    -0.373 N 
ATOM     25  C   UNL     1      33.681  -7.399 -21.971  0.00  0.00    +0.125 C 
ATOM     26  C   UNL     1      31.299  -7.547 -22.580  0.00  0.00    +0.125 C 
ATOM     27  C   UNL     1      34.004  -7.353 -23.460  0.00  0.00    +0.164 C 
ATOM     28  C   UNL     1      31.726  -7.495 -24.042  0.00  0.00    +0.164 C 
ATOM     29  C   UNL     1      32.205  -8.981 -20.795  0.00  0.00    +0.182 C 
ATOM     30  H   UNL     1      33.610  -7.954 -19.697  0.00  0.00    +0.158 HD
ATOM     31  H   UNL     1      32.954  -9.317 -18.909  0.00  0.00    +0.158 HD
ENDBRANCH  21  29
ENDBRANCH   5  21
TORSDOF 5
ENDMDL
MODEL 9
REMARK VINA RESULT:     -13.0      4.802      8.577
REMARK  Name = 9800765
REMARK  5 active torsions:
REMARK  status: ('A' for Active; 'I' for Inactive)
REMARK    1  A    between atoms: C_3  and  C_17
REMARK    2  A    between atoms: C_5  and  N_8
REMARK    3  A    between atoms: N_8  and  C_14
REMARK    4  A    between atoms: C_17  and  C_20
REMARK    5  A    between atoms: C_23  and  C_26
REMARK                            x       y       z     vdW  Elec       q    Type
REMARK                         _______ _______ _______ _____ _____    ______ ____
ROOT
ATOM      1  O   UNL     1      35.080 -18.096 -23.428  0.00  0.00    -0.337 OA
ATOM      2  N   UNL     1      34.662 -17.349 -24.522  0.00  0.00    -0.079 NA
ATOM      3  C   UNL     1      34.551 -16.098 -24.064  0.00  0.00    +0.106 C 
ATOM      4  C   UNL     1      34.882 -15.998 -22.702  0.00  0.00    +0.076 C 
ATOM      5  C   UNL     1      35.205 -17.278 -22.359  0.00  0.00    +0.252 C 
ENDROOT
BRANCH   3   6
ATOM      6  C   UNL     1      34.123 -15.020 -24.970  0.00  0.00    +0.066 C 
ATOM      7  C   UNL     1      33.110 -15.476 -26.049  0.00  0.00    +0.011 C 
BRANCH   6   9
ATOM      8  F   UNL     1      31.680 -13.305 -21.133  0.00  0.00    -0.204 F 
ATOM      9  C   UNL     1      33.652 -13.851 -24.100  0.00  0.00    -0.015 C 
ATOM     10  C   UNL     1      32.872 -14.122 -23.001  0.00  0.00    +0.026 C 
ATOM     11  C   UNL     1      34.027 -12.576 -24.453  0.00  0.00    -0.004 C 
ATOM     12  C   UNL     1      32.805 -11.752 -22.539  0.00  0.00    +0.027 C 
ATOM     13  C   UNL     1      32.442 -13.058 -22.209  0.00  0.00    +0.140 C 
ATOM     14  C   UNL     1      33.598 -11.511 -23.661  0.00  0.00    +0.002 C 
BRANCH  12  15
ATOM     15  C   UNL     1      32.364 -10.644 -21.720  0.00  0.00    +0.002 C 
ATOM     16  C   UNL     1      32.300  -9.360 -22.261  0.00  0.00    +0.000 C 
ATOM     17  C   UNL     1      32.001 -10.860 -20.391  0.00  0.00    +0.000 C 
ATOM     18  C   UNL     1      31.874  -8.292 -21.472  0.00  0.00    +0.000 C 
ATOM     19  C   UNL     1      31.574  -9.791 -19.602  0.00  0.00    +0.000 C 
ATOM     20  C   UNL     1      31.511  -8.506 -20.142  0.00  0.00    +0.000 C 
ENDBRANCH  12  15
ENDBRANCH   6   9
ENDBRANCH   3   6
BRANCH   5  21
ATOM     21  N   UNL     1      35.604 -17.773 -21.154  0.00  0.00    -0.147 NA
BRANCH  21  29
ATOM     22  O   UNL     1      34.557 -22.121 -19.359  0.00  0.00    -0.350 OA
ATOM     23  N   UNL     1      35.801 -20.038 -20.759  0.00  0.00    -0.277 N 
ATOM     24  N   UNL     1      37.652 -18.999 -21.539  0.00  0.00    -0.373 N 
ATOM     25  C   UNL     1      36.608 -21.085 -20.138  0.00  0.00    +0.125 C 
ATOM     26  C   UNL     1      34.434 -20.427 -21.091  0.00  0.00    +0.125 C 
ATOM     27  C   UNL     1      35.850 -21.667 -18.951  0.00  0.00    +0.164 C 
ATOM     28  C   UNL     1      33.771 -21.038 -19.862  0.00  0.00    +0.164 C 
ATOM     29  C   UNL     1      36.333 -18.861 -21.160  0.00  0.00    +0.182 C 
ATOM     30  H   UNL     1      38.088 -19.881 -21.494  0.00  0.00    +0.158 HD
ATOM     31  H   UNL     1      38.160 -18.215 -21.852  0.00  0.00    +0.158 HD
ENDBRANCH  21  29
ENDBRANCH   5  21
TORSDOF 5
ENDMDL
