MODEL 1
REMARK VINA RESULT:     -14.0      0.000      0.000
REMARK  Name = 5291
REMARK  6 active torsions:
REMARK  status: ('A' for Active; 'I' for Inactive)
REMARK    1  A    between atoms: C_1  and  N_23
REMARK    2  A    between atoms: C_2  and  N_8
REMARK    3  A    between atoms: C_12  and  C_17
REMARK    4  A    between atoms: C_24  and  C_31
REMARK    5  A    between atoms: C_26  and  C_32
REMARK    6  A    between atoms: C_32  and  N_33
REMARK                            x       y       z     vdW  Elec       q    Type
REMARK                         _______ _______ _______ _____ _____    ______ ____
ROOT
ATOM      1  C   UNL     1      32.955 -23.059 -16.473  0.00  0.00    +0.052 C 
ATOM      2  C   UNL     1      32.946 -23.802 -14.194  0.00  0.00    +0.055 C 
ATOM      3  C   UNL     1      33.520 -23.039 -15.210  0.00  0.00    +0.030 C 
ATOM      4  C   UNL     1      31.815 -24.576 -14.457  0.00  0.00    -0.008 C 
ATOM      5  C   UNL     1      31.833 -23.821 -16.752  0.00  0.00    +0.014 C 
ATOM      6  C   UNL     1      31.259 -24.585 -15.736  0.00  0.00    -0.002 C 
ATOM      7  C   UNL     1      31.180 -25.404 -13.388  0.00  0.00    +0.032 C 
ENDROOT
BRANCH   2   8
ATOM      8  N   UNL     1      33.521 -23.781 -12.904  0.00  0.00    -0.248 N 
ATOM      9  N   UNL     1      35.786 -24.160 -13.389  0.00  0.00    -0.337 NA
ATOM     10  N   UNL     1      35.040 -23.860 -11.117  0.00  0.00    -0.170 NA
ATOM     11  C   UNL     1      34.843 -23.941 -12.449  0.00  0.00    +0.149 C 
ATOM     12  C   UNL     1      37.041 -24.310 -12.918  0.00  0.00    +0.147 C 
ATOM     13  C   UNL     1      37.370 -24.248 -11.579  0.00  0.00    +0.055 C 
ATOM     14  C   UNL     1      36.319 -24.019 -10.716  0.00  0.00    +0.114 C 
ATOM     15  H   UNL     1      32.870 -23.623 -12.183  0.00  0.00    +0.165 HD
BRANCH  12  17
ATOM     16  N   UNL     1      39.035 -23.922 -16.043  0.00  0.00    -0.242 NA
ATOM     17  C   UNL     1      38.049 -24.543 -13.924  0.00  0.00    +0.050 C 
ATOM     18  C   UNL     1      38.985 -25.563 -13.780  0.00  0.00    +0.006 C 
ATOM     19  C   UNL     1      38.118 -23.758 -15.064  0.00  0.00    +0.101 C 
ATOM     20  C   UNL     1      39.944 -25.763 -14.766  0.00  0.00    +0.021 C 
ATOM     21  C   UNL     1      39.927 -24.923 -15.868  0.00  0.00    +0.099 C 
ENDBRANCH  12  17
ENDBRANCH   2   8
BRANCH   1  23
ATOM     22  O   UNL     1      33.947 -23.870 -19.184  0.00  0.00    -0.270 OA
ATOM     23  N   UNL     1      33.537 -22.283 -17.505  0.00  0.00    -0.280 N 
ATOM     24  C   UNL     1      33.990 -22.702 -18.764  0.00  0.00    +0.249 C 
ATOM     25  H   UNL     1      33.637 -21.322 -17.313  0.00  0.00    +0.155 HD
BRANCH  24  31
ATOM     26  C   UNL     1      35.684 -19.695 -21.209  0.00  0.00    -0.043 C 
ATOM     27  C   UNL     1      36.517 -20.554 -20.507  0.00  0.00    -0.006 C 
ATOM     28  C   UNL     1      34.303 -19.807 -21.121  0.00  0.00    -0.006 C 
ATOM     29  C   UNL     1      35.958 -21.546 -19.702  0.00  0.00    +0.004 C 
ATOM     30  C   UNL     1      33.744 -20.799 -20.315  0.00  0.00    +0.004 C 
ATOM     31  C   UNL     1      34.572 -21.669 -19.606  0.00  0.00    +0.054 C 
BRANCH  26  32
ATOM     32  C   UNL     1      36.286 -18.624 -22.080  0.00  0.00    -0.050 C 
BRANCH  32  33
ATOM     33  N   UNL     1      35.274 -17.953 -22.895  0.00  0.00    +0.387 N 
ATOM     34  N   UNL     1      34.437 -16.255 -25.080  0.00  0.00    +0.383 N 
ATOM     35  C   UNL     1      35.334 -18.417 -24.286  0.00  0.00    -0.100 C 
ATOM     36  C   UNL     1      35.439 -16.496 -22.833  0.00  0.00    -0.100 C 
ATOM     37  C   UNL     1      34.274 -17.712 -25.141  0.00  0.00    -0.101 C 
ATOM     38  C   UNL     1      34.381 -15.790 -23.688  0.00  0.00    -0.101 C 
ATOM     39  C   UNL     1      33.426 -15.585 -25.893  0.00  0.00    -0.101 C 
ATOM     40  H   UNL     1      34.358 -18.189 -22.516  0.00  0.00    -0.079 HD
ATOM     41  H   UNL     1      35.354 -16.018 -25.460  0.00  0.00    -0.080 HD
ENDBRANCH  32  33
ENDBRANCH  26  32
ENDBRANCH  24  31
ENDBRANCH   1  23
TORSDOF 6
ENDMDL
MODEL 2
REMARK VINA RESULT:     -11.9      3.002      5.869
REMARK  Name = 5291
REMARK  6 active torsions:
REMARK  status: ('A' for Active; 'I' for Inactive)
REMARK    1  A    between atoms: C_1  and  N_23
REMARK    2  A    between atoms: C_2  and  N_8
REMARK    3  A    between atoms: C_12  and  C_17
REMARK    4  A    between atoms: C_24  and  C_31
REMARK    5  A    between atoms: C_26  and  C_32
REMARK    6  A    between atoms: C_32  and  N_33
REMARK                            x       y       z     vdW  Elec       q    Type
REMARK                         _______ _______ _______ _____ _____    ______ ____
ROOT
ATOM      1  C   UNL     1      34.236 -20.326 -20.556  0.00  0.00    +0.052 C 
ATOM      2  C   UNL     1      33.082 -21.908 -19.174  0.00  0.00    +0.055 C 
ATOM      3  C   UNL     1      33.108 -20.681 -19.835  0.00  0.00    +0.030 C 
ATOM      4  C   UNL     1      34.183 -22.762 -19.243  0.00  0.00    -0.008 C 
ATOM      5  C   UNL     1      35.337 -21.160 -20.635  0.00  0.00    +0.014 C 
ATOM      6  C   UNL     1      35.311 -22.387 -19.973  0.00  0.00    -0.002 C 
ATOM      7  C   UNL     1      34.183 -24.082 -18.543  0.00  0.00    +0.032 C 
ENDROOT
BRANCH   2   8
ATOM      8  N   UNL     1      31.932 -22.273 -18.440  0.00  0.00    -0.248 N 
ATOM      9  N   UNL     1      32.870 -22.961 -16.401  0.00  0.00    -0.337 NA
ATOM     10  N   UNL     1      30.487 -23.018 -16.748  0.00  0.00    -0.170 NA
ATOM     11  C   UNL     1      31.755 -22.773 -17.136  0.00  0.00    +0.149 C 
ATOM     12  C   UNL     1      32.665 -23.442 -15.158  0.00  0.00    +0.147 C 
ATOM     13  C   UNL     1      31.417 -23.731 -14.645  0.00  0.00    +0.055 C 
ATOM     14  C   UNL     1      30.354 -23.498 -15.493  0.00  0.00    +0.114 C 
ATOM     15  H   UNL     1      31.090 -22.152 -18.935  0.00  0.00    +0.165 HD
BRANCH  12  17
ATOM     16  N   UNL     1      34.876 -24.426 -12.324  0.00  0.00    -0.242 NA
ATOM     17  C   UNL     1      33.859 -23.641 -14.372  0.00  0.00    +0.050 C 
ATOM     18  C   UNL     1      35.108 -23.267 -14.857  0.00  0.00    +0.006 C 
ATOM     19  C   UNL     1      33.798 -24.212 -13.111  0.00  0.00    +0.101 C 
ATOM     20  C   UNL     1      36.240 -23.471 -14.077  0.00  0.00    +0.021 C 
ATOM     21  C   UNL     1      36.072 -24.049 -12.829  0.00  0.00    +0.099 C 
ENDBRANCH  12  17
ENDBRANCH   2   8
BRANCH   1  23
ATOM     22  O   UNL     1      36.434 -18.300 -20.798  0.00  0.00    -0.270 OA
ATOM     23  N   UNL     1      34.263 -19.080 -21.229  0.00  0.00    -0.280 N 
ATOM     24  C   UNL     1      35.316 -18.158 -21.319  0.00  0.00    +0.249 C 
ATOM     25  H   UNL     1      33.433 -18.827 -21.695  0.00  0.00    +0.155 HD
BRANCH  24  31
ATOM     26  C   UNL     1      34.489 -14.620 -23.484  0.00  0.00    -0.043 C 
ATOM     27  C   UNL     1      34.548 -14.574 -22.099  0.00  0.00    -0.006 C 
ATOM     28  C   UNL     1      34.698 -15.808 -24.170  0.00  0.00    -0.006 C 
ATOM     29  C   UNL     1      34.821 -15.741 -21.385  0.00  0.00    +0.004 C 
ATOM     30  C   UNL     1      34.971 -16.975 -23.457  0.00  0.00    +0.004 C 
ATOM     31  C   UNL     1      35.033 -16.941 -22.064  0.00  0.00    +0.054 C 
BRANCH  26  32
ATOM     32  C   UNL     1      34.196 -13.361 -24.256  0.00  0.00    -0.050 C 
BRANCH  32  33
ATOM     33  N   UNL     1      33.742 -12.279 -23.382  0.00  0.00    +0.387 N 
ATOM     34  N   UNL     1      31.987 -10.088 -22.692  0.00  0.00    +0.383 N 
ATOM     35  C   UNL     1      32.367 -12.519 -22.927  0.00  0.00    -0.100 C 
ATOM     36  C   UNL     1      33.838 -10.983 -24.064  0.00  0.00    -0.100 C 
ATOM     37  C   UNL     1      31.891 -11.385 -22.012  0.00  0.00    -0.101 C 
ATOM     38  C   UNL     1      33.362  -9.849 -23.150  0.00  0.00    -0.101 C 
ATOM     39  C   UNL     1      31.536  -9.008 -21.818  0.00  0.00    -0.101 C 
ATOM     40  H   UNL     1      34.353 -12.260 -22.565  0.00  0.00    -0.079 HD
ATOM     41  H   UNL     1      31.377 -10.108 -23.509  0.00  0.00    -0.080 HD
ENDBRANCH  32  33
ENDBRANCH  26  32
ENDBRANCH  24  31
ENDBRANCH   1  23
TORSDOF 6
ENDMDL
MODEL 3
REMARK VINA RESULT:     -11.1      5.543     13.559
REMARK  Name = 5291
REMARK  6 active torsions:
REMARK  status: ('A' for Active; 'I' for Inactive)
REMARK    1  A    between atoms: C_1  and  N_23
REMARK    2  A    between atoms: C_2  and  N_8
REMARK    3  A    between atoms: C_12  and  C_17
REMARK    4  A    between atoms: C_24  and  C_31
REMARK    5  A    between atoms: C_26  and  C_32
REMARK    6  A    between atoms: C_32  and  N_33
REMARK                            x       y       z     vdW  Elec       q    Type
REMARK                         _______ _______ _______ _____ _____    ______ ____
ROOT
ATOM      1  C   UNL     1      33.558 -14.786 -22.148  0.00  0.00    +0.052 C 
ATOM      2  C   UNL     1      32.584 -12.660 -21.622  0.00  0.00    +0.055 C 
ATOM      3  C   UNL     1      33.073 -13.897 -21.204  0.00  0.00    +0.030 C 
ATOM      4  C   UNL     1      32.588 -12.330 -22.978  0.00  0.00    -0.008 C 
ATOM      5  C   UNL     1      33.570 -14.475 -23.496  0.00  0.00    +0.014 C 
ATOM      6  C   UNL     1      33.080 -13.238 -23.914  0.00  0.00    -0.002 C 
ATOM      7  C   UNL     1      32.070 -11.012 -23.454  0.00  0.00    +0.032 C 
ENDROOT
BRANCH   2   8
ATOM      8  N   UNL     1      32.090 -11.751 -20.660  0.00  0.00    -0.248 N 
ATOM      9  N   UNL     1      32.686  -9.688 -21.608  0.00  0.00    -0.337 NA
ATOM     10  N   UNL     1      31.524  -9.791 -19.499  0.00  0.00    -0.170 NA
ATOM     11  C   UNL     1      32.100 -10.346 -20.586  0.00  0.00    +0.149 C 
ATOM     12  C   UNL     1      32.679  -8.343 -21.504  0.00  0.00    +0.147 C 
ATOM     13  C   UNL     1      32.121  -7.659 -20.443  0.00  0.00    +0.055 C 
ATOM     14  C   UNL     1      31.553  -8.442 -19.460  0.00  0.00    +0.114 C 
ATOM     15  H   UNL     1      31.651 -12.185 -19.894  0.00  0.00    +0.165 HD
BRANCH  12  17
ATOM     16  N   UNL     1      33.096  -6.110 -24.459  0.00  0.00    -0.242 NA
ATOM     17  C   UNL     1      33.305  -7.640 -22.598  0.00  0.00    +0.050 C 
ATOM     18  C   UNL     1      34.663  -7.787 -22.863  0.00  0.00    +0.006 C 
ATOM     19  C   UNL     1      32.573  -6.797 -23.419  0.00  0.00    +0.101 C 
ATOM     20  C   UNL     1      35.237  -7.097 -23.924  0.00  0.00    +0.021 C 
ATOM     21  C   UNL     1      34.418  -6.279 -24.685  0.00  0.00    +0.099 C 
ENDBRANCH  12  17
ENDBRANCH   2   8
BRANCH   1  23
ATOM     22  O   UNL     1      35.726 -16.504 -23.306  0.00  0.00    -0.270 OA
ATOM     23  N   UNL     1      34.055 -16.042 -21.723  0.00  0.00    -0.280 N 
ATOM     24  C   UNL     1      35.076 -16.817 -22.295  0.00  0.00    +0.249 C 
ATOM     25  H   UNL     1      33.629 -16.422 -20.921  0.00  0.00    +0.155 HD
BRANCH  24  31
ATOM     26  C   UNL     1      35.871 -20.517 -20.406  0.00  0.00    -0.043 C 
ATOM     27  C   UNL     1      36.920 -19.652 -20.684  0.00  0.00    -0.006 C 
ATOM     28  C   UNL     1      34.565 -20.186 -20.739  0.00  0.00    -0.006 C 
ATOM     29  C   UNL     1      36.658 -18.432 -21.306  0.00  0.00    +0.004 C 
ATOM     30  C   UNL     1      34.302 -18.965 -21.361  0.00  0.00    +0.004 C 
ATOM     31  C   UNL     1      35.349 -18.088 -21.644  0.00  0.00    +0.054 C 
BRANCH  26  32
ATOM     32  C   UNL     1      36.153 -21.834 -19.734  0.00  0.00    -0.050 C 
BRANCH  32  33
ATOM     33  N   UNL     1      35.384 -21.991 -18.500  0.00  0.00    +0.387 N 
ATOM     34  N   UNL     1      34.375 -23.531 -16.271  0.00  0.00    +0.383 N 
ATOM     35  C   UNL     1      36.258 -22.384 -17.388  0.00  0.00    -0.100 C 
ATOM     36  C   UNL     1      34.308 -22.972 -18.678  0.00  0.00    -0.100 C 
ATOM     37  C   UNL     1      35.452 -22.550 -16.094  0.00  0.00    -0.101 C 
ATOM     38  C   UNL     1      33.502 -23.140 -17.385  0.00  0.00    -0.101 C 
ATOM     39  C   UNL     1      33.607 -23.686 -15.038  0.00  0.00    -0.101 C 
ATOM     40  H   UNL     1      34.964 -21.089 -18.275  0.00  0.00    -0.079 HD
ATOM     41  H   UNL     1      34.795 -24.433 -16.495  0.00  0.00    -0.080 HD
ENDBRANCH  32  33
ENDBRANCH  26  32
ENDBRANCH  24  31
ENDBRANCH   1  23
TORSDOF 6
ENDMDL
