MODEL 1
REMARK VINA RESULT:     -13.4      0.000      0.000
REMARK  Name = 11987860
REMARK  5 active torsions:
REMARK  status: ('A' for Active; 'I' for Inactive)
REMARK    1  A    between atoms: N_2  and  C_19
REMARK    2  A    between atoms: C_3  and  C_11
REMARK    3  A    between atoms: N_9  and  O_17
REMARK    4  A    between atoms: C_19  and  C_20
REMARK    5  A    between atoms: C_23  and  C_26
REMARK                            x       y       z     vdW  Elec       q    Type
REMARK                         _______ _______ _______ _____ _____    ______ ____
ROOT
ATOM      1  O   UNL     1      33.920 -22.807 -15.179  0.00  0.00    -0.272 OA
ATOM      2  N   UNL     1      34.519 -23.474 -17.327  0.00  0.00    -0.298 N 
ATOM      3  C   UNL     1      34.705 -23.335 -15.963  0.00  0.00    +0.253 C 
ATOM      4  H   UNL     1      35.224 -23.918 -17.853  0.00  0.00    +0.150 HD
ENDROOT
BRANCH   3  11
ATOM      5  O   UNL     1      35.430 -24.965 -13.531  0.00  0.00    -0.327 OA
ATOM      6  O   UNL     1      35.898 -25.334 -15.775  0.00  0.00    -0.320 OA
ATOM      7  O   UNL     1      40.357 -24.565 -13.799  0.00  0.00    -0.250 OA
ATOM      8  N   UNL     1      38.174 -25.333 -13.991  0.00  0.00    -0.255 N 
ATOM      9  N   UNL     1      40.003 -26.718 -14.501  0.00  0.00    -0.181 N 
ATOM     10  C   UNL     1      36.175 -23.832 -13.997  0.00  0.00    +0.174 C 
ATOM     11  C   UNL     1      35.996 -23.934 -15.503  0.00  0.00    +0.222 C 
ATOM     12  C   UNL     1      35.823 -25.956 -14.484  0.00  0.00    +0.256 C 
ATOM     13  C   UNL     1      37.625 -24.042 -13.551  0.00  0.00    +0.128 C 
ATOM     14  C   UNL     1      37.218 -26.453 -14.105  0.00  0.00    +0.156 C 
ATOM     15  C   UNL     1      39.572 -25.478 -14.076  0.00  0.00    +0.326 C 
ATOM     16  H   UNL     1      39.379 -27.445 -14.721  0.00  0.00    +0.184 HD
BRANCH   9  17
ATOM     17  O   UNL     1      41.395 -26.868 -14.594  0.00  0.00    -0.294 OA
ATOM     18  H   UNL     1      41.630 -27.166 -15.488  0.00  0.00    +0.241 HD
ENDBRANCH   9  17
ENDBRANCH   3  11
BRANCH   2  19
ATOM     19  C   UNL     1      33.341 -22.999 -18.017  0.00  0.00    +0.116 C 
BRANCH  19  20
ATOM     20  C   UNL     1      33.712 -21.966 -19.044  0.00  0.00    -0.003 C 
ATOM     21  C   UNL     1      35.045 -21.802 -19.401  0.00  0.00    -0.003 C 
ATOM     22  C   UNL     1      32.719 -21.188 -19.624  0.00  0.00    -0.003 C 
ATOM     23  C   UNL     1      34.398 -20.057 -20.941  0.00  0.00    -0.000 C 
ATOM     24  C   UNL     1      35.389 -20.843 -20.353  0.00  0.00    -0.000 C 
ATOM     25  C   UNL     1      33.063 -20.229 -20.576  0.00  0.00    -0.000 C 
BRANCH  23  26
ATOM     26  C   UNL     1      34.755 -19.062 -21.930  0.00  0.00    -0.000 C 
ATOM     27  C   UNL     1      34.793 -19.406 -23.281  0.00  0.00    -0.000 C 
ATOM     28  C   UNL     1      35.058 -17.761 -21.532  0.00  0.00    -0.000 C 
ATOM     29  C   UNL     1      35.136 -18.447 -24.235  0.00  0.00    +0.000 C 
ATOM     30  C   UNL     1      35.401 -16.802 -22.485  0.00  0.00    +0.000 C 
ATOM     31  C   UNL     1      35.440 -17.145 -23.837  0.00  0.00    +0.000 C 
ENDBRANCH  23  26
ENDBRANCH  19  20
ENDBRANCH   2  19
TORSDOF 5
ENDMDL
MODEL 2
REMARK VINA RESULT:     -13.0      8.369     12.860
REMARK  Name = 11987860
REMARK  5 active torsions:
REMARK  status: ('A' for Active; 'I' for Inactive)
REMARK    1  A    between atoms: N_2  and  C_19
REMARK    2  A    between atoms: C_3  and  C_11
REMARK    3  A    between atoms: N_9  and  O_17
REMARK    4  A    between atoms: C_19  and  C_20
REMARK    5  A    between atoms: C_23  and  C_26
REMARK                            x       y       z     vdW  Elec       q    Type
REMARK                         _______ _______ _______ _____ _____    ______ ____
ROOT
ATOM      1  O   UNL     1      32.973 -15.335 -26.531  0.00  0.00    -0.272 OA
ATOM      2  N   UNL     1      34.334 -15.640 -24.667  0.00  0.00    -0.298 N 
ATOM      3  C   UNL     1      33.403 -14.969 -25.440  0.00  0.00    +0.253 C 
ATOM      4  H   UNL     1      34.601 -15.244 -23.806  0.00  0.00    +0.150 HD
ENDROOT
BRANCH   3  11
ATOM      5  O   UNL     1      34.612 -13.207 -23.312  0.00  0.00    -0.327 OA
ATOM      6  O   UNL     1      33.691 -12.651 -25.370  0.00  0.00    -0.320 OA
ATOM      7  O   UNL     1      30.588 -10.570 -22.142  0.00  0.00    -0.250 OA
ATOM      8  N   UNL     1      32.595 -11.269 -23.078  0.00  0.00    -0.255 N 
ATOM      9  N   UNL     1      31.819  -9.068 -23.358  0.00  0.00    -0.181 N 
ATOM     10  C   UNL     1      33.255 -13.670 -23.304  0.00  0.00    +0.174 C 
ATOM     11  C   UNL     1      32.926 -13.710 -24.787  0.00  0.00    +0.222 C 
ATOM     12  C   UNL     1      34.543 -12.187 -24.312  0.00  0.00    +0.256 C 
ATOM     13  C   UNL     1      32.435 -12.627 -22.538  0.00  0.00    +0.128 C 
ATOM     14  C   UNL     1      33.903 -10.948 -23.685  0.00  0.00    +0.156 C 
ATOM     15  C   UNL     1      31.595 -10.314 -22.811  0.00  0.00    +0.326 C 
ATOM     16  H   UNL     1      32.620  -8.864 -23.891  0.00  0.00    +0.184 HD
BRANCH   9  17
ATOM     17  O   UNL     1      30.824  -8.113 -23.101  0.00  0.00    -0.294 OA
ATOM     18  H   UNL     1      31.209  -7.223 -23.150  0.00  0.00    +0.241 HD
ENDBRANCH   9  17
ENDBRANCH   3  11
BRANCH   2  19
ATOM     19  C   UNL     1      34.932 -16.895 -25.064  0.00  0.00    +0.116 C 
BRANCH  19  20
ATOM     20  C   UNL     1      34.996 -17.840 -23.897  0.00  0.00    -0.003 C 
ATOM     21  C   UNL     1      35.196 -17.337 -22.616  0.00  0.00    -0.003 C 
ATOM     22  C   UNL     1      34.856 -19.205 -24.111  0.00  0.00    -0.003 C 
ATOM     23  C   UNL     1      35.115 -19.586 -21.740  0.00  0.00    -0.000 C 
ATOM     24  C   UNL     1      35.256 -18.214 -21.534  0.00  0.00    -0.000 C 
ATOM     25  C   UNL     1      34.915 -20.082 -23.028  0.00  0.00    -0.000 C 
BRANCH  23  26
ATOM     26  C   UNL     1      35.176 -20.497 -20.616  0.00  0.00    -0.000 C 
ATOM     27  C   UNL     1      34.007 -21.081 -20.129  0.00  0.00    -0.000 C 
ATOM     28  C   UNL     1      36.403 -20.791 -20.023  0.00  0.00    -0.000 C 
ATOM     29  C   UNL     1      34.066 -21.960 -19.047  0.00  0.00    +0.000 C 
ATOM     30  C   UNL     1      36.462 -21.669 -18.941  0.00  0.00    +0.000 C 
ATOM     31  C   UNL     1      35.294 -22.254 -18.452  0.00  0.00    +0.000 C 
ENDBRANCH  23  26
ENDBRANCH  19  20
ENDBRANCH   2  19
TORSDOF 5
ENDMDL
MODEL 3
REMARK VINA RESULT:     -12.6      1.677      1.910
REMARK  Name = 11987860
REMARK  5 active torsions:
REMARK  status: ('A' for Active; 'I' for Inactive)
REMARK    1  A    between atoms: N_2  and  C_19
REMARK    2  A    between atoms: C_3  and  C_11
REMARK    3  A    between atoms: N_9  and  O_17
REMARK    4  A    between atoms: C_19  and  C_20
REMARK    5  A    between atoms: C_23  and  C_26
REMARK                            x       y       z     vdW  Elec       q    Type
REMARK                         _______ _______ _______ _____ _____    ______ ____
ROOT
ATOM      1  O   UNL     1      32.587 -23.161 -15.633  0.00  0.00    -0.272 OA
ATOM      2  N   UNL     1      34.266 -23.240 -17.244  0.00  0.00    -0.298 N 
ATOM      3  C   UNL     1      33.773 -23.204 -15.951  0.00  0.00    +0.253 C 
ATOM      4  H   UNL     1      35.242 -23.274 -17.372  0.00  0.00    +0.150 HD
ENDROOT
BRANCH   3  11
ATOM      5  O   UNL     1      34.960 -25.471 -14.354  0.00  0.00    -0.327 OA
ATOM      6  O   UNL     1      36.002 -23.804 -15.591  0.00  0.00    -0.320 OA
ATOM      7  O   UNL     1      37.385 -22.808 -10.957  0.00  0.00    -0.250 OA
ATOM      8  N   UNL     1      36.856 -24.060 -12.840  0.00  0.00    -0.255 N 
ATOM      9  N   UNL     1      39.086 -23.548 -12.303  0.00  0.00    -0.181 N 
ATOM     10  C   UNL     1      34.551 -24.215 -13.796  0.00  0.00    +0.174 C 
ATOM     11  C   UNL     1      34.862 -23.250 -14.928  0.00  0.00    +0.222 C 
ATOM     12  C   UNL     1      36.184 -25.096 -14.993  0.00  0.00    +0.256 C 
ATOM     13  C   UNL     1      35.416 -23.980 -12.554  0.00  0.00    +0.128 C 
ATOM     14  C   UNL     1      37.266 -24.983 -13.918  0.00  0.00    +0.156 C 
ATOM     15  C   UNL     1      37.755 -23.428 -11.959  0.00  0.00    +0.326 C 
ATOM     16  H   UNL     1      39.381 -24.041 -13.101  0.00  0.00    +0.184 HD
BRANCH   9  17
ATOM     17  O   UNL     1      39.988 -22.916 -11.433  0.00  0.00    -0.294 OA
ATOM     18  H   UNL     1      39.505 -22.558 -10.670  0.00  0.00    +0.241 HD
ENDBRANCH   9  17
ENDBRANCH   3  11
BRANCH   2  19
ATOM     19  C   UNL     1      33.417 -23.230 -18.414  0.00  0.00    +0.116 C 
BRANCH  19  20
ATOM     20  C   UNL     1      33.777 -22.082 -19.316  0.00  0.00    -0.003 C 
ATOM     21  C   UNL     1      35.114 -21.818 -19.588  0.00  0.00    -0.003 C 
ATOM     22  C   UNL     1      32.770 -21.301 -19.866  0.00  0.00    -0.003 C 
ATOM     23  C   UNL     1      34.444 -19.963 -20.982  0.00  0.00    -0.000 C 
ATOM     24  C   UNL     1      35.448 -20.753 -20.425  0.00  0.00    -0.000 C 
ATOM     25  C   UNL     1      33.105 -20.236 -20.703  0.00  0.00    -0.000 C 
BRANCH  23  26
ATOM     26  C   UNL     1      34.790 -18.858 -21.852  0.00  0.00    -0.000 C 
ATOM     27  C   UNL     1      34.882 -19.058 -23.229  0.00  0.00    -0.000 C 
ATOM     28  C   UNL     1      35.028 -17.595 -21.312  0.00  0.00    -0.000 C 
ATOM     29  C   UNL     1      35.215 -17.993 -24.067  0.00  0.00    +0.000 C 
ATOM     30  C   UNL     1      35.361 -16.530 -22.149  0.00  0.00    +0.000 C 
ATOM     31  C   UNL     1      35.455 -16.729 -23.527  0.00  0.00    +0.000 C 
ENDBRANCH  23  26
ENDBRANCH  19  20
ENDBRANCH   2  19
TORSDOF 5
ENDMDL
MODEL 4
REMARK VINA RESULT:     -12.0      8.441     12.567
REMARK  Name = 11987860
REMARK  5 active torsions:
REMARK  status: ('A' for Active; 'I' for Inactive)
REMARK    1  A    between atoms: N_2  and  C_19
REMARK    2  A    between atoms: C_3  and  C_11
REMARK    3  A    between atoms: N_9  and  O_17
REMARK    4  A    between atoms: C_19  and  C_20
REMARK    5  A    between atoms: C_23  and  C_26
REMARK                            x       y       z     vdW  Elec       q    Type
REMARK                         _______ _______ _______ _____ _____    ______ ____
ROOT
ATOM      1  O   UNL     1      32.729 -14.054 -24.986  0.00  0.00    -0.272 OA
ATOM      2  N   UNL     1      34.664 -14.333 -23.723  0.00  0.00    -0.298 N 
ATOM      3  C   UNL     1      33.490 -13.698 -24.091  0.00  0.00    +0.253 C 
ATOM      4  H   UNL     1      35.192 -13.951 -22.985  0.00  0.00    +0.150 HD
ENDROOT
BRANCH   3  11
ATOM      5  O   UNL     1      31.659 -13.270 -21.733  0.00  0.00    -0.327 OA
ATOM      6  O   UNL     1      33.897 -12.715 -22.011  0.00  0.00    -0.320 OA
ATOM      7  O   UNL     1      31.675  -8.320 -21.656  0.00  0.00    -0.250 OA
ATOM      8  N   UNL     1      32.144 -10.553 -21.224  0.00  0.00    -0.255 N 
ATOM      9  N   UNL     1      33.011  -8.840 -19.869  0.00  0.00    -0.181 N 
ATOM     10  C   UNL     1      31.738 -12.395 -22.865  0.00  0.00    +0.174 C 
ATOM     11  C   UNL     1      33.206 -12.499 -23.244  0.00  0.00    +0.222 C 
ATOM     12  C   UNL     1      32.860 -12.922 -21.039  0.00  0.00    +0.256 C 
ATOM     13  C   UNL     1      31.343 -10.998 -22.374  0.00  0.00    +0.128 C 
ATOM     14  C   UNL     1      32.619 -11.604 -20.302  0.00  0.00    +0.156 C 
ATOM     15  C   UNL     1      32.237  -9.173 -20.961  0.00  0.00    +0.326 C 
ATOM     16  H   UNL     1      33.459  -9.518 -19.314  0.00  0.00    +0.184 HD
BRANCH   9  17
ATOM     17  O   UNL     1      33.113  -7.466 -19.603  0.00  0.00    -0.294 OA
ATOM     18  H   UNL     1      33.399  -7.001 -20.406  0.00  0.00    +0.241 HD
ENDBRANCH   9  17
ENDBRANCH   3  11
BRANCH   2  19
ATOM     19  C   UNL     1      35.151 -15.529 -24.371  0.00  0.00    +0.116 C 
BRANCH  19  20
ATOM     20  C   UNL     1      35.043 -16.711 -23.447  0.00  0.00    -0.003 C 
ATOM     21  C   UNL     1      34.957 -17.992 -23.980  0.00  0.00    -0.003 C 
ATOM     22  C   UNL     1      35.028 -16.509 -22.073  0.00  0.00    -0.003 C 
ATOM     23  C   UNL     1      34.841 -18.894 -21.742  0.00  0.00    -0.000 C 
ATOM     24  C   UNL     1      34.856 -19.087 -23.123  0.00  0.00    -0.000 C 
ATOM     25  C   UNL     1      34.927 -17.605 -21.217  0.00  0.00    -0.000 C 
BRANCH  23  26
ATOM     26  C   UNL     1      34.737 -20.031 -20.853  0.00  0.00    -0.000 C 
ATOM     27  C   UNL     1      35.892 -20.664 -20.393  0.00  0.00    -0.000 C 
ATOM     28  C   UNL     1      33.483 -20.492 -20.455  0.00  0.00    -0.000 C 
ATOM     29  C   UNL     1      35.792 -21.760 -19.535  0.00  0.00    +0.000 C 
ATOM     30  C   UNL     1      33.382 -21.587 -19.597  0.00  0.00    +0.000 C 
ATOM     31  C   UNL     1      34.537 -22.222 -19.137  0.00  0.00    +0.000 C 
ENDBRANCH  23  26
ENDBRANCH  19  20
ENDBRANCH   2  19
TORSDOF 5
ENDMDL
MODEL 5
REMARK VINA RESULT:     -11.9      9.584     13.588
REMARK  Name = 11987860
REMARK  5 active torsions:
REMARK  status: ('A' for Active; 'I' for Inactive)
REMARK    1  A    between atoms: N_2  and  C_19
REMARK    2  A    between atoms: C_3  and  C_11
REMARK    3  A    between atoms: N_9  and  O_17
REMARK    4  A    between atoms: C_19  and  C_20
REMARK    5  A    between atoms: C_23  and  C_26
REMARK                            x       y       z     vdW  Elec       q    Type
REMARK                         _______ _______ _______ _____ _____    ______ ____
ROOT
ATOM      1  O   UNL     1      31.980 -12.851 -20.464  0.00  0.00    -0.272 OA
ATOM      2  N   UNL     1      32.225 -11.573 -22.393  0.00  0.00    -0.298 N 
ATOM      3  C   UNL     1      32.320 -12.728 -21.637  0.00  0.00    +0.253 C 
ATOM      4  H   UNL     1      32.532 -11.598 -23.329  0.00  0.00    +0.150 HD
ENDROOT
BRANCH   3  11
ATOM      5  O   UNL     1      35.126 -13.784 -21.967  0.00  0.00    -0.327 OA
ATOM      6  O   UNL     1      33.153 -14.904 -21.469  0.00  0.00    -0.320 OA
ATOM      7  O   UNL     1      34.377 -16.689 -25.906  0.00  0.00    -0.250 OA
ATOM      8  N   UNL     1      34.642 -15.911 -23.735  0.00  0.00    -0.255 N 
ATOM      9  N   UNL     1      34.555 -18.212 -24.204  0.00  0.00    -0.181 N 
ATOM     10  C   UNL     1      34.219 -13.543 -23.052  0.00  0.00    +0.174 C 
ATOM     11  C   UNL     1      32.876 -13.874 -22.421  0.00  0.00    +0.222 C 
ATOM     12  C   UNL     1      34.585 -14.994 -21.429  0.00  0.00    +0.256 C 
ATOM     13  C   UNL     1      34.606 -14.509 -24.176  0.00  0.00    +0.128 C 
ATOM     14  C   UNL     1      35.021 -16.152 -22.327  0.00  0.00    +0.156 C 
ATOM     15  C   UNL     1      34.516 -16.927 -24.702  0.00  0.00    +0.326 C 
ATOM     16  H   UNL     1      34.666 -18.402 -23.245  0.00  0.00    +0.184 HD
BRANCH   9  17
ATOM     17  O   UNL     1      34.425 -19.230 -25.161  0.00  0.00    -0.294 OA
ATOM     18  H   UNL     1      33.541 -19.625 -25.096  0.00  0.00    +0.241 HD
ENDBRANCH   9  17
ENDBRANCH   3  11
BRANCH   2  19
ATOM     19  C   UNL     1      31.698 -10.331 -21.875  0.00  0.00    +0.116 C 
BRANCH  19  20
ATOM     20  C   UNL     1      32.142  -9.174 -22.726  0.00  0.00    -0.003 C 
ATOM     21  C   UNL     1      33.500  -8.938 -22.908  0.00  0.00    -0.003 C 
ATOM     22  C   UNL     1      31.192  -8.354 -23.320  0.00  0.00    -0.003 C 
ATOM     23  C   UNL     1      32.965  -7.037 -24.298  0.00  0.00    -0.000 C 
ATOM     24  C   UNL     1      33.912  -7.865 -23.698  0.00  0.00    -0.000 C 
ATOM     25  C   UNL     1      31.605  -7.281 -24.109  0.00  0.00    -0.000 C 
BRANCH  23  26
ATOM     26  C   UNL     1      33.393  -5.923 -25.118  0.00  0.00    -0.000 C 
ATOM     27  C   UNL     1      34.643  -5.951 -25.734  0.00  0.00    -0.000 C 
ATOM     28  C   UNL     1      32.553  -4.824 -25.293  0.00  0.00    -0.000 C 
ATOM     29  C   UNL     1      35.055  -4.878 -26.526  0.00  0.00    +0.000 C 
ATOM     30  C   UNL     1      32.964  -3.751 -26.084  0.00  0.00    +0.000 C 
ATOM     31  C   UNL     1      34.215  -3.778 -26.701  0.00  0.00    +0.000 C 
ENDBRANCH  23  26
ENDBRANCH  19  20
ENDBRANCH   2  19
TORSDOF 5
ENDMDL
MODEL 6
REMARK VINA RESULT:     -11.9      5.350     10.006
REMARK  Name = 11987860
REMARK  5 active torsions:
REMARK  status: ('A' for Active; 'I' for Inactive)
REMARK    1  A    between atoms: N_2  and  C_19
REMARK    2  A    between atoms: C_3  and  C_11
REMARK    3  A    between atoms: N_9  and  O_17
REMARK    4  A    between atoms: C_19  and  C_20
REMARK    5  A    between atoms: C_23  and  C_26
REMARK                            x       y       z     vdW  Elec       q    Type
REMARK                         _______ _______ _______ _____ _____    ______ ____
ROOT
ATOM      1  O   UNL     1      37.961 -18.910 -19.740  0.00  0.00    -0.272 OA
ATOM      2  N   UNL     1      36.523 -20.700 -20.126  0.00  0.00    -0.298 N 
ATOM      3  C   UNL     1      37.064 -19.451 -20.380  0.00  0.00    +0.253 C 
ATOM      4  H   UNL     1      35.804 -21.027 -20.713  0.00  0.00    +0.150 HD
ENDROOT
BRANCH   3  11
ATOM      5  O   UNL     1      34.205 -18.778 -21.070  0.00  0.00    -0.327 OA
ATOM      6  O   UNL     1      36.119 -17.466 -21.173  0.00  0.00    -0.320 OA
ATOM      7  O   UNL     1      34.787 -17.897 -25.907  0.00  0.00    -0.250 OA
ATOM      8  N   UNL     1      34.572 -17.639 -23.610  0.00  0.00    -0.255 N 
ATOM      9  N   UNL     1      34.537 -15.785 -25.053  0.00  0.00    -0.181 N 
ATOM     10  C   UNL     1      35.119 -19.435 -21.959  0.00  0.00    +0.174 C 
ATOM     11  C   UNL     1      36.445 -18.799 -21.576  0.00  0.00    +0.222 C 
ATOM     12  C   UNL     1      34.685 -17.432 -21.139  0.00  0.00    +0.256 C 
ATOM     13  C   UNL     1      34.678 -19.088 -23.384  0.00  0.00    +0.128 C 
ATOM     14  C   UNL     1      34.185 -16.816 -22.446  0.00  0.00    +0.156 C 
ATOM     15  C   UNL     1      34.640 -17.155 -24.930  0.00  0.00    +0.326 C 
ATOM     16  H   UNL     1      34.420 -15.194 -24.276  0.00  0.00    +0.184 HD
BRANCH   9  17
ATOM     17  O   UNL     1      34.610 -15.295 -26.366  0.00  0.00    -0.294 OA
ATOM     18  H   UNL     1      34.925 -14.376 -26.351  0.00  0.00    +0.241 HD
ENDBRANCH   9  17
ENDBRANCH   3  11
BRANCH   2  19
ATOM     19  C   UNL     1      36.963 -21.545 -19.039  0.00  0.00    +0.116 C 
BRANCH  19  20
ATOM     20  C   UNL     1      35.784 -22.067 -18.266  0.00  0.00    -0.003 C 
ATOM     21  C   UNL     1      35.947 -22.441 -16.938  0.00  0.00    -0.003 C 
ATOM     22  C   UNL     1      34.548 -22.171 -18.889  0.00  0.00    -0.003 C 
ATOM     23  C   UNL     1      33.608 -23.033 -16.838  0.00  0.00    -0.000 C 
ATOM     24  C   UNL     1      34.853 -22.926 -16.221  0.00  0.00    -0.000 C 
ATOM     25  C   UNL     1      33.455 -22.656 -18.172  0.00  0.00    -0.000 C 
BRANCH  23  26
ATOM     26  C   UNL     1      32.472 -23.536 -16.094  0.00  0.00    -0.000 C 
ATOM     27  C   UNL     1      32.674 -24.348 -14.978  0.00  0.00    -0.000 C 
ATOM     28  C   UNL     1      31.177 -23.206 -16.492  0.00  0.00    -0.000 C 
ATOM     29  C   UNL     1      31.579 -24.832 -14.261  0.00  0.00    +0.000 C 
ATOM     30  C   UNL     1      30.083 -23.689 -15.775  0.00  0.00    +0.000 C 
ATOM     31  C   UNL     1      30.283 -24.503 -14.659  0.00  0.00    +0.000 C 
ENDBRANCH  23  26
ENDBRANCH  19  20
ENDBRANCH   2  19
TORSDOF 5
ENDMDL
MODEL 7
REMARK VINA RESULT:     -11.7      5.743     10.734
REMARK  Name = 11987860
REMARK  5 active torsions:
REMARK  status: ('A' for Active; 'I' for Inactive)
REMARK    1  A    between atoms: N_2  and  C_19
REMARK    2  A    between atoms: C_3  and  C_11
REMARK    3  A    between atoms: N_9  and  O_17
REMARK    4  A    between atoms: C_19  and  C_20
REMARK    5  A    between atoms: C_23  and  C_26
REMARK                            x       y       z     vdW  Elec       q    Type
REMARK                         _______ _______ _______ _____ _____    ______ ____
ROOT
ATOM      1  O   UNL     1      34.969 -19.782 -23.147  0.00  0.00    -0.272 OA
ATOM      2  N   UNL     1      35.247 -19.630 -20.841  0.00  0.00    -0.298 N 
ATOM      3  C   UNL     1      34.885 -19.160 -22.092  0.00  0.00    +0.253 C 
ATOM      4  H   UNL     1      35.131 -19.035 -20.065  0.00  0.00    +0.150 HD
ENDROOT
BRANCH   3  11
ATOM      5  O   UNL     1      36.193 -16.451 -22.317  0.00  0.00    -0.327 OA
ATOM      6  O   UNL     1      34.316 -17.302 -23.388  0.00  0.00    -0.320 OA
ATOM      7  O   UNL     1      32.476 -13.676 -20.587  0.00  0.00    -0.250 OA
ATOM      8  N   UNL     1      33.948 -14.797 -21.988  0.00  0.00    -0.255 N 
ATOM      9  N   UNL     1      32.394 -13.253 -22.837  0.00  0.00    -0.181 N 
ATOM     10  C   UNL     1      35.254 -16.814 -21.296  0.00  0.00    +0.174 C 
ATOM     11  C   UNL     1      34.335 -17.771 -22.037  0.00  0.00    +0.222 C 
ATOM     12  C   UNL     1      35.319 -16.276 -23.436  0.00  0.00    +0.256 C 
ATOM     13  C   UNL     1      34.551 -15.524 -20.861  0.00  0.00    +0.128 C 
ATOM     14  C   UNL     1      34.630 -14.919 -23.293  0.00  0.00    +0.156 C 
ATOM     15  C   UNL     1      32.906 -13.888 -21.725  0.00  0.00    +0.326 C 
ATOM     16  H   UNL     1      32.737 -13.421 -23.744  0.00  0.00    +0.184 HD
BRANCH   9  17
ATOM     17  O   UNL     1      31.351 -12.349 -22.583  0.00  0.00    -0.294 OA
ATOM     18  H   UNL     1      30.554 -12.839 -22.325  0.00  0.00    +0.241 HD
ENDBRANCH   9  17
ENDBRANCH   3  11
BRANCH   2  19
ATOM     19  C   UNL     1      35.785 -20.953 -20.620  0.00  0.00    +0.116 C 
BRANCH  19  20
ATOM     20  C   UNL     1      35.084 -21.622 -19.470  0.00  0.00    -0.003 C 
ATOM     21  C   UNL     1      33.714 -21.842 -19.537  0.00  0.00    -0.003 C 
ATOM     22  C   UNL     1      35.814 -22.011 -18.355  0.00  0.00    -0.003 C 
ATOM     23  C   UNL     1      33.789 -22.857 -17.346  0.00  0.00    -0.000 C 
ATOM     24  C   UNL     1      33.064 -22.462 -18.470  0.00  0.00    -0.000 C 
ATOM     25  C   UNL     1      35.164 -22.632 -17.288  0.00  0.00    -0.000 C 
BRANCH  23  26
ATOM     26  C   UNL     1      33.114 -23.502 -16.239  0.00  0.00    -0.000 C 
ATOM     27  C   UNL     1      31.725 -23.619 -16.242  0.00  0.00    -0.000 C 
ATOM     28  C   UNL     1      33.855 -24.007 -15.172  0.00  0.00    -0.000 C 
ATOM     29  C   UNL     1      31.075 -24.241 -15.176  0.00  0.00    +0.000 C 
ATOM     30  C   UNL     1      33.206 -24.629 -14.105  0.00  0.00    +0.000 C 
ATOM     31  C   UNL     1      31.816 -24.746 -14.107  0.00  0.00    +0.000 C 
ENDBRANCH  23  26
ENDBRANCH  19  20
ENDBRANCH   2  19
TORSDOF 5
ENDMDL
MODEL 8
REMARK VINA RESULT:     -11.5      6.577     11.355
REMARK  Name = 11987860
REMARK  5 active torsions:
REMARK  status: ('A' for Active; 'I' for Inactive)
REMARK    1  A    between atoms: N_2  and  C_19
REMARK    2  A    between atoms: C_3  and  C_11
REMARK    3  A    between atoms: N_9  and  O_17
REMARK    4  A    between atoms: C_19  and  C_20
REMARK    5  A    between atoms: C_23  and  C_26
REMARK                            x       y       z     vdW  Elec       q    Type
REMARK                         _______ _______ _______ _____ _____    ______ ____
ROOT
ATOM      1  O   UNL     1      34.813 -17.980 -24.376  0.00  0.00    -0.272 OA
ATOM      2  N   UNL     1      34.975 -18.373 -22.087  0.00  0.00    -0.298 N 
ATOM      3  C   UNL     1      34.636 -17.638 -23.210  0.00  0.00    +0.253 C 
ATOM      4  H   UNL     1      34.781 -17.990 -21.201  0.00  0.00    +0.150 HD
ENDROOT
BRANCH   3  11
ATOM      5  O   UNL     1      35.562 -14.776 -23.431  0.00  0.00    -0.327 OA
ATOM      6  O   UNL     1      33.568 -15.761 -24.102  0.00  0.00    -0.320 OA
ATOM      7  O   UNL     1      32.152 -12.657 -20.533  0.00  0.00    -0.250 OA
ATOM      8  N   UNL     1      33.321 -13.455 -22.373  0.00  0.00    -0.255 N 
ATOM      9  N   UNL     1      31.454 -12.053 -22.630  0.00  0.00    -0.181 N 
ATOM     10  C   UNL     1      34.957 -15.343 -22.261  0.00  0.00    +0.174 C 
ATOM     11  C   UNL     1      33.980 -16.340 -22.861  0.00  0.00    +0.222 C 
ATOM     12  C   UNL     1      34.417 -14.616 -24.274  0.00  0.00    +0.256 C 
ATOM     13  C   UNL     1      34.263 -14.195 -21.520  0.00  0.00    +0.128 C 
ATOM     14  C   UNL     1      33.654 -13.375 -23.810  0.00  0.00    +0.156 C 
ATOM     15  C   UNL     1      32.295 -12.712 -21.759  0.00  0.00    +0.326 C 
ATOM     16  H   UNL     1      31.567 -12.096 -23.606  0.00  0.00    +0.184 HD
BRANCH   9  17
ATOM     17  O   UNL     1      30.425 -11.314 -22.025  0.00  0.00    -0.294 OA
ATOM     18  H   UNL     1      30.303 -10.477 -22.502  0.00  0.00    +0.241 HD
ENDBRANCH   9  17
ENDBRANCH   3  11
BRANCH   2  19
ATOM     19  C   UNL     1      35.601 -19.674 -22.154  0.00  0.00    +0.116 C 
BRANCH  19  20
ATOM     20  C   UNL     1      35.266 -20.483 -20.932  0.00  0.00    -0.003 C 
ATOM     21  C   UNL     1      36.292 -21.032 -20.172  0.00  0.00    -0.003 C 
ATOM     22  C   UNL     1      33.937 -20.673 -20.578  0.00  0.00    -0.003 C 
ATOM     23  C   UNL     1      34.649 -21.979 -18.675  0.00  0.00    -0.000 C 
ATOM     24  C   UNL     1      35.981 -21.783 -19.039  0.00  0.00    -0.000 C 
ATOM     25  C   UNL     1      33.627 -21.424 -19.445  0.00  0.00    -0.000 C 
BRANCH  23  26
ATOM     26  C   UNL     1      34.327 -22.758 -17.498  0.00  0.00    -0.000 C 
ATOM     27  C   UNL     1      33.020 -23.199 -17.291  0.00  0.00    -0.000 C 
ATOM     28  C   UNL     1      35.323 -23.068 -16.573  0.00  0.00    -0.000 C 
ATOM     29  C   UNL     1      32.709 -23.950 -16.158  0.00  0.00    +0.000 C 
ATOM     30  C   UNL     1      35.012 -23.819 -15.440  0.00  0.00    +0.000 C 
ATOM     31  C   UNL     1      33.705 -24.260 -15.231  0.00  0.00    +0.000 C 
ENDBRANCH  23  26
ENDBRANCH  19  20
ENDBRANCH   2  19
TORSDOF 5
ENDMDL
MODEL 9
REMARK VINA RESULT:     -11.4     11.377     15.958
REMARK  Name = 11987860
REMARK  5 active torsions:
REMARK  status: ('A' for Active; 'I' for Inactive)
REMARK    1  A    between atoms: N_2  and  C_19
REMARK    2  A    between atoms: C_3  and  C_11
REMARK    3  A    between atoms: N_9  and  O_17
REMARK    4  A    between atoms: C_19  and  C_20
REMARK    5  A    between atoms: C_23  and  C_26
REMARK                            x       y       z     vdW  Elec       q    Type
REMARK                         _______ _______ _______ _____ _____    ______ ____
ROOT
ATOM      1  O   UNL     1      32.320  -8.806 -20.263  0.00  0.00    -0.272 OA
ATOM      2  N   UNL     1      31.513 -10.214 -21.932  0.00  0.00    -0.298 N 
ATOM      3  C   UNL     1      32.033  -9.031 -21.436  0.00  0.00    +0.253 C 
ATOM      4  H   UNL     1      31.324 -10.275 -22.896  0.00  0.00    +0.150 HD
ENDROOT
BRANCH   3  11
ATOM      5  O   UNL     1      34.273  -7.080 -21.957  0.00  0.00    -0.327 OA
ATOM      6  O   UNL     1      33.225  -8.574 -23.393  0.00  0.00    -0.320 OA
ATOM      7  O   UNL     1      31.984  -4.168 -25.243  0.00  0.00    -0.250 OA
ATOM      8  N   UNL     1      33.293  -5.818 -24.266  0.00  0.00    -0.255 N 
ATOM      9  N   UNL     1      33.413  -5.371 -26.569  0.00  0.00    -0.181 N 
ATOM     10  C   UNL     1      32.880  -6.738 -21.978  0.00  0.00    +0.174 C 
ATOM     11  C   UNL     1      32.249  -8.013 -22.510  0.00  0.00    +0.222 C 
ATOM     12  C   UNL     1      34.398  -7.770 -23.204  0.00  0.00    +0.256 C 
ATOM     13  C   UNL     1      32.730  -5.551 -22.934  0.00  0.00    +0.128 C 
ATOM     14  C   UNL     1      34.455  -6.728 -24.321  0.00  0.00    +0.156 C 
ATOM     15  C   UNL     1      32.838  -5.053 -25.357  0.00  0.00    +0.326 C 
ATOM     16  H   UNL     1      34.094  -6.075 -26.661  0.00  0.00    +0.184 HD
BRANCH   9  17
ATOM     17  O   UNL     1      32.960  -4.617 -27.663  0.00  0.00    -0.294 OA
ATOM     18  H   UNL     1      32.030  -4.374 -27.526  0.00  0.00    +0.241 HD
ENDBRANCH   9  17
ENDBRANCH   3  11
BRANCH   2  19
ATOM     19  C   UNL     1      31.234 -11.364 -21.101  0.00  0.00    +0.116 C 
BRANCH  19  20
ATOM     20  C   UNL     1      32.047 -12.547 -21.548  0.00  0.00    -0.003 C 
ATOM     21  C   UNL     1      32.354 -13.551 -20.638  0.00  0.00    -0.003 C 
ATOM     22  C   UNL     1      32.481 -12.623 -22.865  0.00  0.00    -0.003 C 
ATOM     23  C   UNL     1      33.548 -14.734 -22.372  0.00  0.00    -0.000 C 
ATOM     24  C   UNL     1      33.108 -14.648 -21.052  0.00  0.00    -0.000 C 
ATOM     25  C   UNL     1      33.234 -13.721 -23.279  0.00  0.00    -0.000 C 
BRANCH  23  26
ATOM     26  C   UNL     1      34.330 -15.873 -22.803  0.00  0.00    -0.000 C 
ATOM     27  C   UNL     1      34.984 -16.666 -21.861  0.00  0.00    -0.000 C 
ATOM     28  C   UNL     1      34.427 -16.178 -24.160  0.00  0.00    -0.000 C 
ATOM     29  C   UNL     1      35.736 -17.765 -22.276  0.00  0.00    +0.000 C 
ATOM     30  C   UNL     1      35.179 -17.277 -24.576  0.00  0.00    +0.000 C 
ATOM     31  C   UNL     1      35.835 -18.071 -23.634  0.00  0.00    +0.000 C 
ENDBRANCH  23  26
ENDBRANCH  19  20
ENDBRANCH   2  19
TORSDOF 5
ENDMDL
