MODEL 1
REMARK VINA RESULT:     -12.2      0.000      0.000
REMARK  Name = 5287739
REMARK  3 active torsions:
REMARK  status: ('A' for Active; 'I' for Inactive)
REMARK    1  A    between atoms: C_2  and  O_21
REMARK    2  A    between atoms: C_3  and  O_23
REMARK    3  A    between atoms: C_4  and  O_25
REMARK                            x       y       z     vdW  Elec       q    Type
REMARK                         _______ _______ _______ _____ _____    ______ ____
ROOT
ATOM      1  C   UNL     1      35.703 -23.863 -13.766  0.00  0.00    -0.021 C 
ATOM      2  C   UNL     1      37.298 -24.939 -11.570  0.00  0.00    +0.168 C 
ATOM      3  C   UNL     1      37.966 -23.983 -12.559  0.00  0.00    +0.162 C 
ATOM      4  C   UNL     1      35.870 -24.482 -11.287  0.00  0.00    +0.144 C 
ATOM      5  C   UNL     1      35.024 -24.485 -12.559  0.00  0.00    +0.058 C 
ATOM      6  C   UNL     1      37.096 -23.642 -13.753  0.00  0.00    +0.003 C 
ATOM      7  C   UNL     1      34.944 -23.545 -14.933  0.00  0.00    -0.004 C 
ATOM      8  C   UNL     1      35.599 -22.966 -16.052  0.00  0.00    -0.000 C 
ATOM      9  C   UNL     1      36.989 -22.723 -16.013  0.00  0.00    -0.000 C 
ATOM     10  C   UNL     1      37.717 -23.065 -14.871  0.00  0.00    -0.002 C 
ATOM     11  C   UNL     1      34.871 -22.627 -17.227  0.00  0.00    -0.000 C 
ATOM     12  C   UNL     1      33.556 -23.778 -15.047  0.00  0.00    -0.000 C 
ATOM     13  C   UNL     1      33.482 -22.870 -17.297  0.00  0.00    -0.000 C 
ATOM     14  C   UNL     1      35.532 -22.045 -18.336  0.00  0.00    -0.000 C 
ATOM     15  C   UNL     1      37.628 -22.147 -17.119  0.00  0.00    -0.000 C 
ATOM     16  C   UNL     1      32.840 -23.448 -16.201  0.00  0.00    -0.000 C 
ATOM     17  C   UNL     1      36.909 -21.811 -18.266  0.00  0.00    -0.000 C 
ATOM     18  C   UNL     1      32.774 -22.531 -18.459  0.00  0.00    -0.000 C 
ATOM     19  C   UNL     1      34.799 -21.716 -19.486  0.00  0.00    -0.000 C 
ATOM     20  C   UNL     1      33.429 -21.957 -19.545  0.00  0.00    +0.000 C 
ENDROOT
BRANCH   2  21
ATOM     21  O   UNL     1      37.281 -26.260 -12.113  0.00  0.00    -0.379 OA
ATOM     22  H   UNL     1      36.613 -26.789 -11.653  0.00  0.00    +0.211 HD
ENDBRANCH   2  21
BRANCH   3  23
ATOM     23  O   UNL     1      38.283 -22.759 -11.898  0.00  0.00    -0.377 OA
ATOM     24  H   UNL     1      39.161 -22.458 -12.180  0.00  0.00    +0.211 HD
ENDBRANCH   3  23
BRANCH   4  25
ATOM     25  O   UNL     1      35.259 -25.345 -10.333  0.00  0.00    -0.382 OA
ATOM     26  H   UNL     1      34.299 -25.208 -10.340  0.00  0.00    +0.210 HD
ENDBRANCH   4  25
TORSDOF 3
ENDMDL
MODEL 2
REMARK VINA RESULT:     -11.4      0.901      3.141
REMARK  Name = 5287739
REMARK  3 active torsions:
REMARK  status: ('A' for Active; 'I' for Inactive)
REMARK    1  A    between atoms: C_2  and  O_21
REMARK    2  A    between atoms: C_3  and  O_23
REMARK    3  A    between atoms: C_4  and  O_25
REMARK                            x       y       z     vdW  Elec       q    Type
REMARK                         _______ _______ _______ _____ _____    ______ ____
ROOT
ATOM      1  C   UNL     1      36.655 -23.283 -14.193  0.00  0.00    -0.021 C 
ATOM      2  C   UNL     1      37.072 -23.737 -11.339  0.00  0.00    +0.168 C 
ATOM      3  C   UNL     1      35.780 -24.248 -11.981  0.00  0.00    +0.162 C 
ATOM      4  C   UNL     1      38.244 -23.940 -12.295  0.00  0.00    +0.144 C 
ATOM      5  C   UNL     1      38.043 -23.157 -13.592  0.00  0.00    +0.058 C 
ATOM      6  C   UNL     1      35.595 -23.791 -13.414  0.00  0.00    +0.003 C 
ATOM      7  C   UNL     1      36.408 -22.844 -15.530  0.00  0.00    -0.004 C 
ATOM      8  C   UNL     1      35.102 -22.969 -16.072  0.00  0.00    -0.000 C 
ATOM      9  C   UNL     1      34.057 -23.507 -15.290  0.00  0.00    -0.000 C 
ATOM     10  C   UNL     1      34.315 -23.907 -13.976  0.00  0.00    -0.002 C 
ATOM     11  C   UNL     1      34.823 -22.551 -17.403  0.00  0.00    -0.000 C 
ATOM     12  C   UNL     1      37.400 -22.280 -16.360  0.00  0.00    -0.000 C 
ATOM     13  C   UNL     1      35.847 -21.999 -18.203  0.00  0.00    -0.000 C 
ATOM     14  C   UNL     1      33.518 -22.683 -17.937  0.00  0.00    -0.000 C 
ATOM     15  C   UNL     1      32.771 -23.631 -15.833  0.00  0.00    -0.000 C 
ATOM     16  C   UNL     1      37.128 -21.867 -17.667  0.00  0.00    -0.000 C 
ATOM     17  C   UNL     1      32.505 -23.226 -17.141  0.00  0.00    -0.000 C 
ATOM     18  C   UNL     1      35.562 -21.591 -19.515  0.00  0.00    -0.000 C 
ATOM     19  C   UNL     1      33.261 -22.268 -19.252  0.00  0.00    -0.000 C 
ATOM     20  C   UNL     1      34.277 -21.726 -20.035  0.00  0.00    +0.000 C 
ENDROOT
BRANCH   2  21
ATOM     21  O   UNL     1      36.939 -22.350 -11.029  0.00  0.00    -0.379 OA
ATOM     22  H   UNL     1      37.638 -21.850 -11.477  0.00  0.00    +0.211 HD
ENDBRANCH   2  21
BRANCH   3  23
ATOM     23  O   UNL     1      35.783 -25.675 -11.983  0.00  0.00    -0.377 OA
ATOM     24  H   UNL     1      35.183 -25.999 -11.293  0.00  0.00    +0.211 HD
ENDBRANCH   3  23
BRANCH   4  25
ATOM     25  O   UNL     1      39.455 -23.505 -11.685  0.00  0.00    -0.382 OA
ATOM     26  H   UNL     1      39.679 -24.097 -10.950  0.00  0.00    +0.210 HD
ENDBRANCH   4  25
TORSDOF 3
ENDMDL
MODEL 3
REMARK VINA RESULT:     -10.9      1.284      3.373
REMARK  Name = 5287739
REMARK  3 active torsions:
REMARK  status: ('A' for Active; 'I' for Inactive)
REMARK    1  A    between atoms: C_2  and  O_21
REMARK    2  A    between atoms: C_3  and  O_23
REMARK    3  A    between atoms: C_4  and  O_25
REMARK                            x       y       z     vdW  Elec       q    Type
REMARK                         _______ _______ _______ _____ _____    ______ ____
ROOT
ATOM      1  C   UNL     1      37.013 -23.803 -15.355  0.00  0.00    -0.021 C 
ATOM      2  C   UNL     1      38.025 -24.810 -12.808  0.00  0.00    +0.168 C 
ATOM      3  C   UNL     1      36.585 -25.140 -13.205  0.00  0.00    +0.162 C 
ATOM      4  C   UNL     1      38.930 -24.871 -14.035  0.00  0.00    +0.144 C 
ATOM      5  C   UNL     1      38.506 -23.847 -15.087  0.00  0.00    +0.058 C 
ATOM      6  C   UNL     1      36.118 -24.411 -14.449  0.00  0.00    +0.003 C 
ATOM      7  C   UNL     1      36.507 -23.107 -16.494  0.00  0.00    -0.004 C 
ATOM      8  C   UNL     1      35.107 -23.076 -16.725  0.00  0.00    -0.000 C 
ATOM      9  C   UNL     1      34.225 -23.715 -15.826  0.00  0.00    -0.000 C 
ATOM     10  C   UNL     1      34.739 -24.368 -14.703  0.00  0.00    -0.002 C 
ATOM     11  C   UNL     1      34.569 -22.401 -17.856  0.00  0.00    -0.000 C 
ATOM     12  C   UNL     1      37.329 -22.432 -17.423  0.00  0.00    -0.000 C 
ATOM     13  C   UNL     1      35.428 -21.744 -18.765  0.00  0.00    -0.000 C 
ATOM     14  C   UNL     1      33.172 -22.379 -18.081  0.00  0.00    -0.000 C 
ATOM     15  C   UNL     1      32.844 -23.683 -16.062  0.00  0.00    -0.000 C 
ATOM     16  C   UNL     1      36.803 -21.767 -18.533  0.00  0.00    -0.000 C 
ATOM     17  C   UNL     1      32.323 -23.026 -17.176  0.00  0.00    -0.000 C 
ATOM     18  C   UNL     1      34.888 -21.083 -19.878  0.00  0.00    -0.000 C 
ATOM     19  C   UNL     1      32.659 -21.710 -19.202  0.00  0.00    -0.000 C 
ATOM     20  C   UNL     1      33.513 -21.067 -20.094  0.00  0.00    +0.000 C 
ENDROOT
BRANCH   2  21
ATOM     21  O   UNL     1      38.079 -23.505 -12.233  0.00  0.00    -0.379 OA
ATOM     22  H   UNL     1      38.017 -22.840 -12.936  0.00  0.00    +0.211 HD
ENDBRANCH   2  21
BRANCH   3  23
ATOM     23  O   UNL     1      36.470 -26.539 -13.461  0.00  0.00    -0.377 OA
ATOM     24  H   UNL     1      35.536 -26.769 -13.583  0.00  0.00    +0.211 HD
ENDBRANCH   3  23
BRANCH   4  25
ATOM     25  O   UNL     1      40.280 -24.607 -13.661  0.00  0.00    -0.382 OA
ATOM     26  H   UNL     1      40.560 -23.759 -14.039  0.00  0.00    +0.210 HD
ENDBRANCH   4  25
TORSDOF 3
ENDMDL
MODEL 4
REMARK VINA RESULT:     -10.8      1.492      3.687
REMARK  Name = 5287739
REMARK  3 active torsions:
REMARK  status: ('A' for Active; 'I' for Inactive)
REMARK    1  A    between atoms: C_2  and  O_21
REMARK    2  A    between atoms: C_3  and  O_23
REMARK    3  A    between atoms: C_4  and  O_25
REMARK                            x       y       z     vdW  Elec       q    Type
REMARK                         _______ _______ _______ _____ _____    ______ ____
ROOT
ATOM      1  C   UNL     1      36.627 -23.402 -16.068  0.00  0.00    -0.021 C 
ATOM      2  C   UNL     1      37.224 -24.571 -13.459  0.00  0.00    +0.168 C 
ATOM      3  C   UNL     1      35.836 -24.796 -14.062  0.00  0.00    +0.162 C 
ATOM      4  C   UNL     1      38.284 -24.637 -14.556  0.00  0.00    +0.144 C 
ATOM      5  C   UNL     1      38.065 -23.548 -15.605  0.00  0.00    +0.058 C 
ATOM      6  C   UNL     1      35.585 -23.990 -15.320  0.00  0.00    +0.003 C 
ATOM      7  C   UNL     1      36.320 -22.631 -17.231  0.00  0.00    -0.004 C 
ATOM      8  C   UNL     1      34.969 -22.505 -17.645  0.00  0.00    -0.000 C 
ATOM      9  C   UNL     1      33.939 -23.124 -16.904  0.00  0.00    -0.000 C 
ATOM     10  C   UNL     1      34.258 -23.852 -15.755  0.00  0.00    -0.002 C 
ATOM     11  C   UNL     1      34.629 -21.754 -18.804  0.00  0.00    -0.000 C 
ATOM     12  C   UNL     1      37.297 -21.971 -18.007  0.00  0.00    -0.000 C 
ATOM     13  C   UNL     1      35.638 -21.115 -19.558  0.00  0.00    -0.000 C 
ATOM     14  C   UNL     1      33.278 -21.638 -19.213  0.00  0.00    -0.000 C 
ATOM     15  C   UNL     1      32.607 -22.999 -17.321  0.00  0.00    -0.000 C 
ATOM     16  C   UNL     1      36.966 -21.231 -19.145  0.00  0.00    -0.000 C 
ATOM     17  C   UNL     1      32.280 -22.267 -18.462  0.00  0.00    -0.000 C 
ATOM     18  C   UNL     1      35.294 -20.378 -20.699  0.00  0.00    -0.000 C 
ATOM     19  C   UNL     1      32.961 -20.894 -20.359  0.00  0.00    -0.000 C 
ATOM     20  C   UNL     1      33.964 -20.269 -21.097  0.00  0.00    +0.000 C 
ENDROOT
BRANCH   2  21
ATOM     21  O   UNL     1      37.272 -23.295 -12.821  0.00  0.00    -0.379 OA
ATOM     22  H   UNL     1      36.582 -22.723 -13.192  0.00  0.00    +0.211 HD
ENDBRANCH   2  21
BRANCH   3  23
ATOM     23  O   UNL     1      35.680 -26.173 -14.397  0.00  0.00    -0.377 OA
ATOM     24  H   UNL     1      34.766 -26.447 -14.223  0.00  0.00    +0.211 HD
ENDBRANCH   3  23
BRANCH   4  25
ATOM     25  O   UNL     1      39.582 -24.471 -13.993  0.00  0.00    -0.382 OA
ATOM     26  H   UNL     1      39.694 -25.085 -13.250  0.00  0.00    +0.210 HD
ENDBRANCH   4  25
TORSDOF 3
ENDMDL
MODEL 5
REMARK VINA RESULT:     -10.8      2.939      4.825
REMARK  Name = 5287739
REMARK  3 active torsions:
REMARK  status: ('A' for Active; 'I' for Inactive)
REMARK    1  A    between atoms: C_2  and  O_21
REMARK    2  A    between atoms: C_3  and  O_23
REMARK    3  A    between atoms: C_4  and  O_25
REMARK                            x       y       z     vdW  Elec       q    Type
REMARK                         _______ _______ _______ _____ _____    ______ ____
ROOT
ATOM      1  C   UNL     1      31.895 -23.402 -16.189  0.00  0.00    -0.021 C 
ATOM      2  C   UNL     1      30.176 -24.932 -14.392  0.00  0.00    +0.168 C 
ATOM      3  C   UNL     1      31.577 -24.546 -13.912  0.00  0.00    +0.162 C 
ATOM      4  C   UNL     1      29.567 -23.787 -15.195  0.00  0.00    +0.144 C 
ATOM      5  C   UNL     1      30.399 -23.476 -16.437  0.00  0.00    +0.058 C 
ATOM      6  C   UNL     1      32.436 -23.922 -14.994  0.00  0.00    +0.003 C 
ATOM      7  C   UNL     1      32.763 -22.851 -17.180  0.00  0.00    -0.004 C 
ATOM      8  C   UNL     1      34.158 -22.794 -16.929  0.00  0.00    -0.000 C 
ATOM      9  C   UNL     1      34.682 -23.290 -15.716  0.00  0.00    -0.000 C 
ATOM     10  C   UNL     1      33.819 -23.849 -14.769  0.00  0.00    -0.002 C 
ATOM     11  C   UNL     1      35.050 -22.242 -17.891  0.00  0.00    -0.000 C 
ATOM     12  C   UNL     1      32.310 -22.354 -18.422  0.00  0.00    -0.000 C 
ATOM     13  C   UNL     1      34.554 -21.748 -19.117  0.00  0.00    -0.000 C 
ATOM     14  C   UNL     1      36.440 -22.184 -17.629  0.00  0.00    -0.000 C 
ATOM     15  C   UNL     1      36.060 -23.227 -15.472  0.00  0.00    -0.000 C 
ATOM     16  C   UNL     1      33.183 -21.814 -19.369  0.00  0.00    -0.000 C 
ATOM     17  C   UNL     1      36.929 -22.679 -16.416  0.00  0.00    -0.000 C 
ATOM     18  C   UNL     1      35.441 -21.205 -20.058  0.00  0.00    -0.000 C 
ATOM     19  C   UNL     1      37.305 -21.636 -18.588  0.00  0.00    -0.000 C 
ATOM     20  C   UNL     1      36.807 -21.149 -19.794  0.00  0.00    +0.000 C 
ENDROOT
BRANCH   2  21
ATOM     21  O   UNL     1      30.251 -26.103 -15.205  0.00  0.00    -0.379 OA
ATOM     22  H   UNL     1      29.403 -26.239 -15.654  0.00  0.00    +0.211 HD
ENDBRANCH   2  21
BRANCH   3  23
ATOM     23  O   UNL     1      31.472 -23.600 -12.850  0.00  0.00    -0.377 OA
ATOM     24  H   UNL     1      30.540 -23.500 -12.597  0.00  0.00    +0.211 HD
ENDBRANCH   3  23
BRANCH   4  25
ATOM     25  O   UNL     1      28.245 -24.125 -15.606  0.00  0.00    -0.382 OA
ATOM     26  H   UNL     1      27.973 -24.950 -15.175  0.00  0.00    +0.210 HD
ENDBRANCH   4  25
TORSDOF 3
ENDMDL
MODEL 6
REMARK VINA RESULT:     -10.6      1.024      1.349
REMARK  Name = 5287739
REMARK  3 active torsions:
REMARK  status: ('A' for Active; 'I' for Inactive)
REMARK    1  A    between atoms: C_2  and  O_21
REMARK    2  A    between atoms: C_3  and  O_23
REMARK    3  A    between atoms: C_4  and  O_25
REMARK                            x       y       z     vdW  Elec       q    Type
REMARK                         _______ _______ _______ _____ _____    ______ ____
ROOT
ATOM      1  C   UNL     1      35.185 -23.625 -14.996  0.00  0.00    -0.021 C 
ATOM      2  C   UNL     1      36.648 -24.950 -12.844  0.00  0.00    +0.168 C 
ATOM      3  C   UNL     1      37.389 -23.932 -13.713  0.00  0.00    +0.162 C 
ATOM      4  C   UNL     1      35.224 -24.470 -12.578  0.00  0.00    +0.144 C 
ATOM      5  C   UNL     1      34.435 -24.329 -13.879  0.00  0.00    +0.058 C 
ATOM      6  C   UNL     1      36.583 -23.455 -14.905  0.00  0.00    +0.003 C 
ATOM      7  C   UNL     1      34.489 -23.176 -16.159  0.00  0.00    -0.004 C 
ATOM      8  C   UNL     1      35.210 -22.523 -17.192  0.00  0.00    -0.000 C 
ATOM      9  C   UNL     1      36.603 -22.333 -17.074  0.00  0.00    -0.000 C 
ATOM     10  C   UNL     1      37.270 -22.802 -15.940  0.00  0.00    -0.002 C 
ATOM     11  C   UNL     1      34.545 -22.054 -18.360  0.00  0.00    -0.000 C 
ATOM     12  C   UNL     1      33.101 -23.349 -16.350  0.00  0.00    -0.000 C 
ATOM     13  C   UNL     1      33.153 -22.240 -18.508  0.00  0.00    -0.000 C 
ATOM     14  C   UNL     1      35.271 -21.398 -19.383  0.00  0.00    -0.000 C 
ATOM     15  C   UNL     1      37.308 -21.683 -18.097  0.00  0.00    -0.000 C 
ATOM     16  C   UNL     1      32.446 -22.892 -17.497  0.00  0.00    -0.000 C 
ATOM     17  C   UNL     1      36.651 -21.220 -19.236  0.00  0.00    -0.000 C 
ATOM     18  C   UNL     1      32.508 -21.774 -19.662  0.00  0.00    -0.000 C 
ATOM     19  C   UNL     1      34.601 -20.942 -20.527  0.00  0.00    -0.000 C 
ATOM     20  C   UNL     1      33.227 -21.128 -20.664  0.00  0.00    +0.000 C 
ENDROOT
BRANCH   2  21
ATOM     21  O   UNL     1      36.614 -26.214 -13.505  0.00  0.00    -0.379 OA
ATOM     22  H   UNL     1      35.831 -26.708 -13.218  0.00  0.00    +0.211 HD
ENDBRANCH   2  21
BRANCH   3  23
ATOM     23  O   UNL     1      37.715 -22.785 -12.930  0.00  0.00    -0.377 OA
ATOM     24  H   UNL     1      36.910 -22.270 -12.762  0.00  0.00    +0.211 HD
ENDBRANCH   3  23
BRANCH   4  25
ATOM     25  O   UNL     1      34.545 -25.393 -11.733  0.00  0.00    -0.382 OA
ATOM     26  H   UNL     1      33.680 -25.608 -12.116  0.00  0.00    +0.210 HD
ENDBRANCH   4  25
TORSDOF 3
ENDMDL
MODEL 7
REMARK VINA RESULT:     -10.5     10.570     13.256
REMARK  Name = 5287739
REMARK  3 active torsions:
REMARK  status: ('A' for Active; 'I' for Inactive)
REMARK    1  A    between atoms: C_2  and  O_21
REMARK    2  A    between atoms: C_3  and  O_23
REMARK    3  A    between atoms: C_4  and  O_25
REMARK                            x       y       z     vdW  Elec       q    Type
REMARK                         _______ _______ _______ _____ _____    ______ ____
ROOT
ATOM      1  C   UNL     1      32.733 -12.759 -21.531  0.00  0.00    -0.021 C 
ATOM      2  C   UNL     1      31.706 -10.050 -21.167  0.00  0.00    +0.168 C 
ATOM      3  C   UNL     1      31.466 -10.750 -22.506  0.00  0.00    +0.162 C 
ATOM      4  C   UNL     1      31.563 -11.051 -20.024  0.00  0.00    +0.144 C 
ATOM      5  C   UNL     1      32.594 -12.173 -20.138  0.00  0.00    +0.058 C 
ATOM      6  C   UNL     1      32.202 -12.067 -22.641  0.00  0.00    +0.003 C 
ATOM      7  C   UNL     1      33.440 -13.984 -21.729  0.00  0.00    -0.004 C 
ATOM      8  C   UNL     1      33.560 -14.513 -23.041  0.00  0.00    -0.000 C 
ATOM      9  C   UNL     1      32.998 -13.826 -24.138  0.00  0.00    -0.000 C 
ATOM     10  C   UNL     1      32.332 -12.616 -23.926  0.00  0.00    -0.002 C 
ATOM     11  C   UNL     1      34.249 -15.737 -23.273  0.00  0.00    -0.000 C 
ATOM     12  C   UNL     1      34.041 -14.714 -20.681  0.00  0.00    -0.000 C 
ATOM     13  C   UNL     1      34.830 -16.440 -22.195  0.00  0.00    -0.000 C 
ATOM     14  C   UNL     1      34.360 -16.260 -24.584  0.00  0.00    -0.000 C 
ATOM     15  C   UNL     1      33.117 -14.356 -25.430  0.00  0.00    -0.000 C 
ATOM     16  C   UNL     1      34.720 -15.914 -20.907  0.00  0.00    -0.000 C 
ATOM     17  C   UNL     1      33.787 -15.559 -25.650  0.00  0.00    -0.000 C 
ATOM     18  C   UNL     1      35.505 -17.645 -22.433  0.00  0.00    -0.000 C 
ATOM     19  C   UNL     1      35.041 -17.468 -24.794  0.00  0.00    -0.000 C 
ATOM     20  C   UNL     1      35.609 -18.155 -23.725  0.00  0.00    +0.000 C 
ENDROOT
BRANCH   2  21
ATOM     21  O   UNL     1      33.016  -9.482 -21.148  0.00  0.00    -0.379 OA
ATOM     22  H   UNL     1      33.074  -8.784 -21.819  0.00  0.00    +0.211 HD
ENDBRANCH   2  21
BRANCH   3  23
ATOM     23  O   UNL     1      30.073 -11.020 -22.659  0.00  0.00    -0.377 OA
ATOM     24  H   UNL     1      29.858 -11.080 -23.603  0.00  0.00    +0.211 HD
ENDBRANCH   3  23
BRANCH   4  25
ATOM     25  O   UNL     1      31.743 -10.394 -18.772  0.00  0.00    -0.382 OA
ATOM     26  H   UNL     1      32.687 -10.374 -18.550  0.00  0.00    +0.210 HD
ENDBRANCH   4  25
TORSDOF 3
ENDMDL
MODEL 8
REMARK VINA RESULT:     -10.5      1.900      3.231
REMARK  Name = 5287739
REMARK  3 active torsions:
REMARK  status: ('A' for Active; 'I' for Inactive)
REMARK    1  A    between atoms: C_2  and  O_21
REMARK    2  A    between atoms: C_3  and  O_23
REMARK    3  A    between atoms: C_4  and  O_25
REMARK                            x       y       z     vdW  Elec       q    Type
REMARK                         _______ _______ _______ _____ _____    ______ ____
ROOT
ATOM      1  C   UNL     1      35.296 -24.557 -14.168  0.00  0.00    -0.021 C 
ATOM      2  C   UNL     1      38.056 -25.498 -14.008  0.00  0.00    +0.168 C 
ATOM      3  C   UNL     1      37.676 -24.534 -15.134  0.00  0.00    +0.162 C 
ATOM      4  C   UNL     1      37.337 -25.105 -12.721  0.00  0.00    +0.144 C 
ATOM      5  C   UNL     1      35.820 -25.181 -12.888  0.00  0.00    +0.058 C 
ATOM      6  C   UNL     1      36.187 -24.267 -15.224  0.00  0.00    +0.003 C 
ATOM      7  C   UNL     1      33.900 -24.305 -14.328  0.00  0.00    -0.004 C 
ATOM      8  C   UNL     1      33.431 -23.722 -15.534  0.00  0.00    -0.000 C 
ATOM      9  C   UNL     1      34.337 -23.410 -16.570  0.00  0.00    -0.000 C 
ATOM     10  C   UNL     1      35.697 -23.687 -16.404  0.00  0.00    -0.002 C 
ATOM     11  C   UNL     1      32.047 -23.449 -15.722  0.00  0.00    -0.000 C 
ATOM     12  C   UNL     1      32.936 -24.609 -13.341  0.00  0.00    -0.000 C 
ATOM     13  C   UNL     1      31.117 -23.762 -14.706  0.00  0.00    -0.000 C 
ATOM     14  C   UNL     1      31.589 -22.863 -16.926  0.00  0.00    -0.000 C 
ATOM     15  C   UNL     1      33.868 -22.831 -17.757  0.00  0.00    -0.000 C 
ATOM     16  C   UNL     1      31.577 -24.343 -13.524  0.00  0.00    -0.000 C 
ATOM     17  C   UNL     1      32.512 -22.559 -17.933  0.00  0.00    -0.000 C 
ATOM     18  C   UNL     1      29.756 -23.487 -14.900  0.00  0.00    -0.000 C 
ATOM     19  C   UNL     1      30.222 -22.599 -17.095  0.00  0.00    -0.000 C 
ATOM     20  C   UNL     1      29.313 -22.909 -16.087  0.00  0.00    +0.000 C 
ENDROOT
BRANCH   2  21
ATOM     21  O   UNL     1      37.695 -26.831 -14.372  0.00  0.00    -0.379 OA
ATOM     22  H   UNL     1      38.080 -27.454 -13.737  0.00  0.00    +0.211 HD
ENDBRANCH   2  21
BRANCH   3  23
ATOM     23  O   UNL     1      38.324 -23.281 -14.926  0.00  0.00    -0.377 OA
ATOM     24  H   UNL     1      37.864 -22.592 -15.431  0.00  0.00    +0.211 HD
ENDBRANCH   3  23
BRANCH   4  25
ATOM     25  O   UNL     1      37.721 -25.974 -11.659  0.00  0.00    -0.382 OA
ATOM     26  H   UNL     1      38.688 -25.975 -11.576  0.00  0.00    +0.210 HD
ENDBRANCH   4  25
TORSDOF 3
ENDMDL
MODEL 9
REMARK VINA RESULT:     -10.5     10.236     13.266
REMARK  Name = 5287739
REMARK  3 active torsions:
REMARK  status: ('A' for Active; 'I' for Inactive)
REMARK    1  A    between atoms: C_2  and  O_21
REMARK    2  A    between atoms: C_3  and  O_23
REMARK    3  A    between atoms: C_4  and  O_25
REMARK                            x       y       z     vdW  Elec       q    Type
REMARK                         _______ _______ _______ _____ _____    ______ ____
ROOT
ATOM      1  C   UNL     1      32.631 -12.550 -22.536  0.00  0.00    -0.021 C 
ATOM      2  C   UNL     1      31.094 -10.530 -21.092  0.00  0.00    +0.168 C 
ATOM      3  C   UNL     1      31.980 -11.486 -20.291  0.00  0.00    +0.162 C 
ATOM      4  C   UNL     1      31.794 -10.134 -22.389  0.00  0.00    +0.144 C 
ATOM      5  C   UNL     1      32.056 -11.354 -23.272  0.00  0.00    +0.058 C 
ATOM      6  C   UNL     1      32.577 -12.601 -21.127  0.00  0.00    +0.003 C 
ATOM      7  C   UNL     1      33.182 -13.647 -23.266  0.00  0.00    -0.004 C 
ATOM      8  C   UNL     1      33.712 -14.757 -22.558  0.00  0.00    -0.000 C 
ATOM      9  C   UNL     1      33.679 -14.781 -21.147  0.00  0.00    -0.000 C 
ATOM     10  C   UNL     1      33.112 -13.709 -20.452  0.00  0.00    -0.002 C 
ATOM     11  C   UNL     1      34.278 -15.862 -23.253  0.00  0.00    -0.000 C 
ATOM     12  C   UNL     1      33.231 -13.698 -24.675  0.00  0.00    -0.000 C 
ATOM     13  C   UNL     1      34.314 -15.869 -24.665  0.00  0.00    -0.000 C 
ATOM     14  C   UNL     1      34.809 -16.963 -22.539  0.00  0.00    -0.000 C 
ATOM     15  C   UNL     1      34.207 -15.879 -20.454  0.00  0.00    -0.000 C 
ATOM     16  C   UNL     1      33.785 -14.782 -25.361  0.00  0.00    -0.000 C 
ATOM     17  C   UNL     1      34.767 -16.956 -21.141  0.00  0.00    -0.000 C 
ATOM     18  C   UNL     1      34.876 -16.962 -25.341  0.00  0.00    -0.000 C 
ATOM     19  C   UNL     1      35.364 -18.043 -23.240  0.00  0.00    -0.000 C 
ATOM     20  C   UNL     1      35.398 -18.041 -24.632  0.00  0.00    +0.000 C 
ENDROOT
BRANCH   2  21
ATOM     21  O   UNL     1      29.850 -11.163 -21.391  0.00  0.00    -0.379 OA
ATOM     22  H   UNL     1      29.457 -10.749 -22.174  0.00  0.00    +0.211 HD
ENDBRANCH   2  21
BRANCH   3  23
ATOM     23  O   UNL     1      33.063 -10.759 -19.712  0.00  0.00    -0.377 OA
ATOM     24  H   UNL     1      33.452 -10.173 -20.380  0.00  0.00    +0.211 HD
ENDBRANCH   3  23
BRANCH   4  25
ATOM     25  O   UNL     1      30.991  -9.210 -23.117  0.00  0.00    -0.382 OA
ATOM     26  H   UNL     1      30.988  -9.453 -24.056  0.00  0.00    +0.210 HD
ENDBRANCH   4  25
TORSDOF 3
ENDMDL
