MODEL 1
REMARK VINA RESULT:     -14.0      0.000      0.000
REMARK  Name = 4369496
REMARK  6 active torsions:
REMARK  status: ('A' for Active; 'I' for Inactive)
REMARK    1  A    between atoms: N_2  and  C_21
REMARK    2  A    between atoms: C_3  and  C_10
REMARK    3  A    between atoms: C_5  and  C_11
REMARK    4  A    between atoms: C_11  and  N_12
REMARK    5  A    between atoms: C_23  and  N_27
REMARK    6  A    between atoms: C_31  and  C_36
REMARK                            x       y       z     vdW  Elec       q    Type
REMARK                         _______ _______ _______ _____ _____    ______ ____
ROOT
ATOM      1  O   UNL     1      33.842 -23.945 -19.138  0.00  0.00    -0.270 OA
ATOM      2  N   UNL     1      33.579 -22.407 -17.386  0.00  0.00    -0.280 N 
ATOM      3  C   UNL     1      33.952 -22.796 -18.680  0.00  0.00    +0.249 C 
ATOM      4  H   UNL     1      33.727 -21.459 -17.166  0.00  0.00    +0.155 HD
ENDROOT
BRANCH   3  10
ATOM      5  C   UNL     1      35.638 -19.771 -21.109  0.00  0.00    -0.043 C 
ATOM      6  C   UNL     1      34.258 -19.894 -21.030  0.00  0.00    -0.006 C 
ATOM      7  C   UNL     1      36.474 -20.625 -20.403  0.00  0.00    -0.006 C 
ATOM      8  C   UNL     1      33.702 -20.891 -20.228  0.00  0.00    +0.004 C 
ATOM      9  C   UNL     1      35.918 -21.622 -19.602  0.00  0.00    +0.004 C 
ATOM     10  C   UNL     1      34.532 -21.756 -19.514  0.00  0.00    +0.054 C 
BRANCH   5  11
ATOM     11  C   UNL     1      36.239 -18.694 -21.973  0.00  0.00    -0.050 C 
BRANCH  11  12
ATOM     12  N   UNL     1      35.233 -18.047 -22.814  0.00  0.00    +0.387 N 
ATOM     13  N   UNL     1      34.413 -16.393 -25.039  0.00  0.00    +0.383 N 
ATOM     14  C   UNL     1      35.318 -18.533 -24.196  0.00  0.00    -0.100 C 
ATOM     15  C   UNL     1      35.382 -16.587 -22.774  0.00  0.00    -0.100 C 
ATOM     16  C   UNL     1      34.266 -17.853 -25.079  0.00  0.00    -0.101 C 
ATOM     17  C   UNL     1      34.330 -15.907 -23.656  0.00  0.00    -0.101 C 
ATOM     18  C   UNL     1      33.407 -15.747 -25.878  0.00  0.00    -0.101 C 
ATOM     19  H   UNL     1      34.313 -18.286 -22.445  0.00  0.00    -0.079 HD
ATOM     20  H   UNL     1      35.333 -16.153 -25.409  0.00  0.00    -0.080 HD
ENDBRANCH  11  12
ENDBRANCH   5  11
ENDBRANCH   3  10
BRANCH   2  21
ATOM     21  C   UNL     1      33.017 -23.198 -16.354  0.00  0.00    +0.052 C 
ATOM     22  C   UNL     1      33.586 -23.166 -15.092  0.00  0.00    +0.030 C 
ATOM     23  C   UNL     1      33.033 -23.947 -14.076  0.00  0.00    +0.059 C 
ATOM     24  C   UNL     1      31.914 -23.986 -16.632  0.00  0.00    +0.015 C 
ATOM     25  C   UNL     1      31.921 -24.747 -14.338  0.00  0.00    +0.015 C 
ATOM     26  C   UNL     1      31.361 -24.766 -15.616  0.00  0.00    +0.003 C 
BRANCH  23  27
ATOM     27  N   UNL     1      33.599 -23.926 -12.784  0.00  0.00    -0.247 N 
ATOM     28  N   UNL     1      35.870 -24.289 -13.250  0.00  0.00    -0.337 NA
ATOM     29  N   UNL     1      35.102 -24.002 -10.984  0.00  0.00    -0.170 NA
ATOM     30  C   UNL     1      34.919 -24.080 -12.318  0.00  0.00    +0.149 C 
ATOM     31  C   UNL     1      37.122 -24.432 -12.768  0.00  0.00    +0.147 C 
ATOM     32  C   UNL     1      37.438 -24.372 -11.427  0.00  0.00    +0.055 C 
ATOM     33  C   UNL     1      36.378 -24.153 -10.572  0.00  0.00    +0.114 C 
ATOM     34  H   UNL     1      32.941 -23.774 -12.067  0.00  0.00    +0.165 HD
BRANCH  31  36
ATOM     35  N   UNL     1      39.095 -24.072 -15.909  0.00  0.00    -0.242 NA
ATOM     36  C   UNL     1      38.140 -24.655 -13.766  0.00  0.00    +0.050 C 
ATOM     37  C   UNL     1      39.124 -25.621 -13.583  0.00  0.00    +0.006 C 
ATOM     38  C   UNL     1      38.170 -23.914 -14.936  0.00  0.00    +0.101 C 
ATOM     39  C   UNL     1      40.093 -25.813 -14.563  0.00  0.00    +0.021 C 
ATOM     40  C   UNL     1      40.034 -25.020 -15.696  0.00  0.00    +0.099 C 
ENDBRANCH  31  36
ENDBRANCH  23  27
ENDBRANCH   2  21
TORSDOF 6
ENDMDL
MODEL 2
REMARK VINA RESULT:     -13.7      3.035      6.133
REMARK  Name = 4369496
REMARK  6 active torsions:
REMARK  status: ('A' for Active; 'I' for Inactive)
REMARK    1  A    between atoms: N_2  and  C_21
REMARK    2  A    between atoms: C_3  and  C_10
REMARK    3  A    between atoms: C_5  and  C_11
REMARK    4  A    between atoms: C_11  and  N_12
REMARK    5  A    between atoms: C_23  and  N_27
REMARK    6  A    between atoms: C_31  and  C_36
REMARK                            x       y       z     vdW  Elec       q    Type
REMARK                         _______ _______ _______ _____ _____    ______ ____
ROOT
ATOM      1  O   UNL     1      35.575 -19.220 -23.648  0.00  0.00    -0.270 OA
ATOM      2  N   UNL     1      34.622 -18.717 -21.565  0.00  0.00    -0.280 N 
ATOM      3  C   UNL     1      35.016 -18.424 -22.878  0.00  0.00    +0.249 C 
ATOM      4  H   UNL     1      34.189 -17.982 -21.074  0.00  0.00    +0.155 HD
ENDROOT
BRANCH   3  10
ATOM      5  C   UNL     1      34.258 -14.476 -24.192  0.00  0.00    -0.043 C 
ATOM      6  C   UNL     1      34.681 -14.692 -22.889  0.00  0.00    -0.006 C 
ATOM      7  C   UNL     1      34.080 -15.534 -25.072  0.00  0.00    -0.006 C 
ATOM      8  C   UNL     1      34.932 -15.994 -22.455  0.00  0.00    +0.004 C 
ATOM      9  C   UNL     1      34.331 -16.836 -24.639  0.00  0.00    +0.004 C 
ATOM     10  C   UNL     1      34.757 -17.067 -23.330  0.00  0.00    +0.054 C 
BRANCH   5  11
ATOM     11  C   UNL     1      33.989 -13.070 -24.661  0.00  0.00    -0.050 C 
BRANCH  11  12
ATOM     12  N   UNL     1      33.624 -12.188 -23.554  0.00  0.00    +0.387 N 
ATOM     13  N   UNL     1      31.893 -10.277 -22.246  0.00  0.00    +0.383 N 
ATOM     14  C   UNL     1      32.347 -12.599 -22.959  0.00  0.00    -0.100 C 
ATOM     15  C   UNL     1      33.554 -10.792 -24.002  0.00  0.00    -0.100 C 
ATOM     16  C   UNL     1      31.963 -11.674 -21.800  0.00  0.00    -0.101 C 
ATOM     17  C   UNL     1      33.170  -9.865 -22.843  0.00  0.00    -0.101 C 
ATOM     18  C   UNL     1      31.530  -9.396 -21.139  0.00  0.00    -0.101 C 
ATOM     19  H   UNL     1      34.349 -12.261 -22.841  0.00  0.00    -0.079 HD
ATOM     20  H   UNL     1      31.166 -10.203 -22.959  0.00  0.00    -0.080 HD
ENDBRANCH  11  12
ENDBRANCH   5  11
ENDBRANCH   3  10
BRANCH   2  21
ATOM     21  C   UNL     1      34.766 -19.932 -20.851  0.00  0.00    +0.052 C 
ATOM     22  C   UNL     1      33.664 -20.477 -20.214  0.00  0.00    +0.030 C 
ATOM     23  C   UNL     1      33.807 -21.673 -19.509  0.00  0.00    +0.059 C 
ATOM     24  C   UNL     1      36.006 -20.546 -20.806  0.00  0.00    +0.015 C 
ATOM     25  C   UNL     1      35.049 -22.306 -19.454  0.00  0.00    +0.015 C 
ATOM     26  C   UNL     1      36.148 -21.743 -20.103  0.00  0.00    +0.003 C 
BRANCH  23  27
ATOM     27  N   UNL     1      32.694 -22.243 -18.856  0.00  0.00    -0.247 N 
ATOM     28  N   UNL     1      33.635 -22.918 -16.815  0.00  0.00    -0.337 NA
ATOM     29  N   UNL     1      31.302 -23.295 -17.287  0.00  0.00    -0.170 NA
ATOM     30  C   UNL     1      32.537 -22.847 -17.593  0.00  0.00    +0.149 C 
ATOM     31  C   UNL     1      33.448 -23.503 -15.613  0.00  0.00    +0.147 C 
ATOM     32  C   UNL     1      32.234 -24.000 -15.184  0.00  0.00    +0.055 C 
ATOM     33  C   UNL     1      31.187 -23.867 -16.071  0.00  0.00    +0.114 C 
ATOM     34  H   UNL     1      31.866 -22.213 -19.387  0.00  0.00    +0.165 HD
BRANCH  31  36
ATOM     35  N   UNL     1      35.639 -24.285 -12.701  0.00  0.00    -0.242 NA
ATOM     36  C   UNL     1      34.623 -23.579 -14.779  0.00  0.00    +0.050 C 
ATOM     37  C   UNL     1      35.838 -23.051 -15.202  0.00  0.00    +0.006 C 
ATOM     38  C   UNL     1      34.577 -24.180 -13.531  0.00  0.00    +0.101 C 
ATOM     39  C   UNL     1      36.953 -23.139 -14.375  0.00  0.00    +0.021 C 
ATOM     40  C   UNL     1      36.802 -23.760 -13.147  0.00  0.00    +0.099 C 
ENDBRANCH  31  36
ENDBRANCH  23  27
ENDBRANCH   2  21
TORSDOF 6
ENDMDL
MODEL 3
REMARK VINA RESULT:     -13.3      3.909     11.608
REMARK  Name = 4369496
REMARK  6 active torsions:
REMARK  status: ('A' for Active; 'I' for Inactive)
REMARK    1  A    between atoms: N_2  and  C_21
REMARK    2  A    between atoms: C_3  and  C_10
REMARK    3  A    between atoms: C_5  and  C_11
REMARK    4  A    between atoms: C_11  and  N_12
REMARK    5  A    between atoms: C_23  and  N_27
REMARK    6  A    between atoms: C_31  and  C_36
REMARK                            x       y       z     vdW  Elec       q    Type
REMARK                         _______ _______ _______ _____ _____    ______ ____
ROOT
ATOM      1  O   UNL     1      36.663 -21.919 -19.423  0.00  0.00    -0.270 OA
ATOM      2  N   UNL     1      35.125 -20.361 -20.266  0.00  0.00    -0.280 N 
ATOM      3  C   UNL     1      35.517 -21.443 -19.466  0.00  0.00    +0.249 C 
ATOM      4  H   UNL     1      34.180 -20.096 -20.193  0.00  0.00    +0.155 HD
ENDROOT
BRANCH   3  10
ATOM      5  C   UNL     1      32.474 -23.200 -17.111  0.00  0.00    -0.043 C 
ATOM      6  C   UNL     1      33.804 -23.433 -16.793  0.00  0.00    -0.006 C 
ATOM      7  C   UNL     1      32.126 -22.399 -18.190  0.00  0.00    -0.006 C 
ATOM      8  C   UNL     1      34.808 -22.853 -17.569  0.00  0.00    +0.004 C 
ATOM      9  C   UNL     1      33.130 -21.819 -18.965  0.00  0.00    +0.004 C 
ATOM     10  C   UNL     1      34.471 -22.046 -18.656  0.00  0.00    +0.054 C 
BRANCH   5  11
ATOM     11  C   UNL     1      31.390 -23.825 -16.273  0.00  0.00    -0.050 C 
BRANCH  11  12
ATOM     12  N   UNL     1      30.127 -23.098 -16.386  0.00  0.00    +0.387 N 
ATOM     13  N   UNL     1      27.304 -22.743 -15.875  0.00  0.00    +0.383 N 
ATOM     14  C   UNL     1      29.638 -22.694 -15.063  0.00  0.00    -0.100 C 
ATOM     15  C   UNL     1      29.120 -23.909 -17.080  0.00  0.00    -0.100 C 
ATOM     16  C   UNL     1      28.313 -21.933 -15.180  0.00  0.00    -0.101 C 
ATOM     17  C   UNL     1      27.794 -23.149 -17.198  0.00  0.00    -0.101 C 
ATOM     18  C   UNL     1      26.042 -22.015 -15.989  0.00  0.00    -0.101 C 
ATOM     19  H   UNL     1      30.297 -22.256 -16.936  0.00  0.00    -0.079 HD
ATOM     20  H   UNL     1      27.133 -23.585 -15.324  0.00  0.00    -0.080 HD
ENDBRANCH  11  12
ENDBRANCH   5  11
ENDBRANCH   3  10
BRANCH   2  21
ATOM     21  C   UNL     1      35.909 -19.599 -21.167  0.00  0.00    +0.052 C 
ATOM     22  C   UNL     1      35.333 -19.127 -22.333  0.00  0.00    +0.030 C 
ATOM     23  C   UNL     1      36.107 -18.378 -23.220  0.00  0.00    +0.059 C 
ATOM     24  C   UNL     1      37.235 -19.346 -20.859  0.00  0.00    +0.015 C 
ATOM     25  C   UNL     1      37.444 -18.113 -22.926  0.00  0.00    +0.015 C 
ATOM     26  C   UNL     1      38.008 -18.597 -21.746  0.00  0.00    +0.003 C 
BRANCH  23  27
ATOM     27  N   UNL     1      35.535 -17.887 -24.413  0.00  0.00    -0.247 N 
ATOM     28  N   UNL     1      34.304 -16.049 -23.631  0.00  0.00    -0.337 NA
ATOM     29  N   UNL     1      34.321 -16.622 -25.971  0.00  0.00    -0.170 NA
ATOM     30  C   UNL     1      34.680 -16.802 -24.684  0.00  0.00    +0.149 C 
ATOM     31  C   UNL     1      33.485 -15.019 -23.928  0.00  0.00    +0.147 C 
ATOM     32  C   UNL     1      33.048 -14.730 -25.204  0.00  0.00    +0.055 C 
ATOM     33  C   UNL     1      33.502 -15.574 -26.196  0.00  0.00    +0.114 C 
ATOM     34  H   UNL     1      35.783 -18.406 -25.212  0.00  0.00    +0.165 HD
BRANCH  31  36
ATOM     35  N   UNL     1      32.299 -12.086 -21.957  0.00  0.00    -0.242 NA
ATOM     36  C   UNL     1      33.083 -14.212 -22.801  0.00  0.00    +0.050 C 
ATOM     37  C   UNL     1      33.079 -14.732 -21.510  0.00  0.00    +0.006 C 
ATOM     38  C   UNL     1      32.688 -12.894 -22.968  0.00  0.00    +0.101 C 
ATOM     39  C   UNL     1      32.687 -13.930 -20.444  0.00  0.00    +0.021 C 
ATOM     40  C   UNL     1      32.309 -12.626 -20.719  0.00  0.00    +0.099 C 
ENDBRANCH  31  36
ENDBRANCH  23  27
ENDBRANCH   2  21
TORSDOF 6
ENDMDL
MODEL 4
REMARK VINA RESULT:     -12.9      5.663     13.623
REMARK  Name = 4369496
REMARK  6 active torsions:
REMARK  status: ('A' for Active; 'I' for Inactive)
REMARK    1  A    between atoms: N_2  and  C_21
REMARK    2  A    between atoms: C_3  and  C_10
REMARK    3  A    between atoms: C_5  and  C_11
REMARK    4  A    between atoms: C_11  and  N_12
REMARK    5  A    between atoms: C_23  and  N_27
REMARK    6  A    between atoms: C_31  and  C_36
REMARK                            x       y       z     vdW  Elec       q    Type
REMARK                         _______ _______ _______ _____ _____    ______ ____
ROOT
ATOM      1  O   UNL     1      35.715 -16.363 -23.335  0.00  0.00    -0.270 OA
ATOM      2  N   UNL     1      34.012 -15.967 -21.770  0.00  0.00    -0.280 N 
ATOM      3  C   UNL     1      35.056 -16.709 -22.341  0.00  0.00    +0.249 C 
ATOM      4  H   UNL     1      33.582 -16.371 -20.983  0.00  0.00    +0.155 HD
ENDROOT
BRANCH   3  10
ATOM      5  C   UNL     1      35.898 -20.428 -20.511  0.00  0.00    -0.043 C 
ATOM      6  C   UNL     1      36.932 -19.535 -20.751  0.00  0.00    -0.006 C 
ATOM      7  C   UNL     1      34.591 -20.120 -20.863  0.00  0.00    -0.006 C 
ATOM      8  C   UNL     1      36.654 -18.308 -21.353  0.00  0.00    +0.004 C 
ATOM      9  C   UNL     1      34.313 -18.893 -21.465  0.00  0.00    +0.004 C 
ATOM     10  C   UNL     1      35.345 -17.987 -21.711  0.00  0.00    +0.054 C 
BRANCH   5  11
ATOM     11  C   UNL     1      36.197 -21.752 -19.860  0.00  0.00    -0.050 C 
BRANCH  11  12
ATOM     12  N   UNL     1      35.477 -21.912 -18.597  0.00  0.00    +0.387 N 
ATOM     13  N   UNL     1      34.549 -23.461 -16.339  0.00  0.00    +0.383 N 
ATOM     14  C   UNL     1      36.392 -22.317 -17.524  0.00  0.00    -0.100 C 
ATOM     15  C   UNL     1      34.389 -22.887 -18.738  0.00  0.00    -0.100 C 
ATOM     16  C   UNL     1      35.639 -22.487 -16.200  0.00  0.00    -0.101 C 
ATOM     17  C   UNL     1      33.634 -23.057 -17.415  0.00  0.00    -0.101 C 
ATOM     18  C   UNL     1      33.829 -23.619 -15.078  0.00  0.00    -0.101 C 
ATOM     19  H   UNL     1      35.072 -21.010 -18.350  0.00  0.00    -0.079 HD
ATOM     20  H   UNL     1      34.955 -24.365 -16.586  0.00  0.00    -0.080 HD
ENDBRANCH  11  12
ENDBRANCH   5  11
ENDBRANCH   3  10
BRANCH   2  21
ATOM     21  C   UNL     1      33.496 -14.712 -22.178  0.00  0.00    +0.052 C 
ATOM     22  C   UNL     1      33.041 -13.824 -21.219  0.00  0.00    +0.030 C 
ATOM     23  C   UNL     1      32.530 -12.590 -21.621  0.00  0.00    +0.059 C 
ATOM     24  C   UNL     1      33.459 -14.404 -23.527  0.00  0.00    +0.015 C 
ATOM     25  C   UNL     1      32.485 -12.262 -22.976  0.00  0.00    +0.015 C 
ATOM     26  C   UNL     1      32.949 -13.169 -23.929  0.00  0.00    +0.003 C 
BRANCH  23  27
ATOM     27  N   UNL     1      32.063 -11.672 -20.657  0.00  0.00    -0.247 N 
ATOM     28  N   UNL     1      32.622  -9.618 -21.643  0.00  0.00    -0.337 NA
ATOM     29  N   UNL     1      31.528  -9.704 -19.498  0.00  0.00    -0.170 NA
ATOM     30  C   UNL     1      32.072 -10.265 -20.597  0.00  0.00    +0.149 C 
ATOM     31  C   UNL     1      32.613  -8.271 -21.552  0.00  0.00    +0.147 C 
ATOM     32  C   UNL     1      32.087  -7.579 -20.481  0.00  0.00    +0.055 C 
ATOM     33  C   UNL     1      31.552  -8.355 -19.473  0.00  0.00    +0.114 C 
ATOM     34  H   UNL     1      31.650 -12.100 -19.872  0.00  0.00    +0.165 HD
BRANCH  31  36
ATOM     35  N   UNL     1      32.935  -6.050 -24.527  0.00  0.00    -0.242 NA
ATOM     36  C   UNL     1      33.202  -7.578 -22.672  0.00  0.00    +0.050 C 
ATOM     37  C   UNL     1      34.547  -7.739 -22.990  0.00  0.00    +0.006 C 
ATOM     38  C   UNL     1      32.446  -6.729 -23.466  0.00  0.00    +0.101 C 
ATOM     39  C   UNL     1      35.085  -7.057 -24.076  0.00  0.00    +0.021 C 
ATOM     40  C   UNL     1      34.245  -6.232 -24.805  0.00  0.00    +0.099 C 
ENDBRANCH  31  36
ENDBRANCH  23  27
ENDBRANCH   2  21
TORSDOF 6
ENDMDL
MODEL 5
REMARK VINA RESULT:     -12.5      8.929     17.357
REMARK  Name = 4369496
REMARK  6 active torsions:
REMARK  status: ('A' for Active; 'I' for Inactive)
REMARK    1  A    between atoms: N_2  and  C_21
REMARK    2  A    between atoms: C_3  and  C_10
REMARK    3  A    between atoms: C_5  and  C_11
REMARK    4  A    between atoms: C_11  and  N_12
REMARK    5  A    between atoms: C_23  and  N_27
REMARK    6  A    between atoms: C_31  and  C_36
REMARK                            x       y       z     vdW  Elec       q    Type
REMARK                         _______ _______ _______ _____ _____    ______ ____
ROOT
ATOM      1  O   UNL     1      31.086 -10.688 -21.363  0.00  0.00    -0.270 OA
ATOM      2  N   UNL     1      32.671  -9.268 -22.350  0.00  0.00    -0.280 N 
ATOM      3  C   UNL     1      32.047 -10.504 -22.127  0.00  0.00    +0.249 C 
ATOM      4  H   UNL     1      33.423  -9.279 -22.985  0.00  0.00    +0.155 HD
ENDROOT
BRANCH   3  10
ATOM      5  C   UNL     1      33.682 -13.803 -24.207  0.00  0.00    -0.043 C 
ATOM      6  C   UNL     1      34.024 -12.515 -24.593  0.00  0.00    -0.006 C 
ATOM      7  C   UNL     1      32.812 -14.026 -23.149  0.00  0.00    -0.006 C 
ATOM      8  C   UNL     1      33.485 -11.427 -23.906  0.00  0.00    +0.004 C 
ATOM      9  C   UNL     1      32.274 -12.938 -22.462  0.00  0.00    +0.004 C 
ATOM     10  C   UNL     1      32.610 -11.638 -22.841  0.00  0.00    +0.054 C 
BRANCH   5  11
ATOM     11  C   UNL     1      34.264 -14.979 -24.947  0.00  0.00    -0.050 C 
BRANCH  11  12
ATOM     12  N   UNL     1      34.244 -16.196 -24.137  0.00  0.00    +0.387 N 
ATOM     13  N   UNL     1      35.453 -18.584 -23.046  0.00  0.00    +0.383 N 
ATOM     14  C   UNL     1      35.239 -16.122 -23.062  0.00  0.00    -0.100 C 
ATOM     15  C   UNL     1      34.478 -17.380 -24.972  0.00  0.00    -0.100 C 
ATOM     16  C   UNL     1      35.221 -17.398 -22.213  0.00  0.00    -0.101 C 
ATOM     17  C   UNL     1      34.459 -18.657 -24.124  0.00  0.00    -0.101 C 
ATOM     18  C   UNL     1      35.432 -19.800 -22.237  0.00  0.00    -0.101 C 
ATOM     19  H   UNL     1      33.320 -16.277 -23.715  0.00  0.00    -0.079 HD
ATOM     20  H   UNL     1      36.379 -18.504 -23.469  0.00  0.00    -0.080 HD
ENDBRANCH  11  12
ENDBRANCH   5  11
ENDBRANCH   3  10
BRANCH   2  21
ATOM     21  C   UNL     1      32.362  -8.008 -21.782  0.00  0.00    +0.052 C 
ATOM     22  C   UNL     1      31.725  -7.055 -22.558  0.00  0.00    +0.030 C 
ATOM     23  C   UNL     1      31.423  -5.813 -21.999  0.00  0.00    +0.059 C 
ATOM     24  C   UNL     1      32.705  -7.759 -20.465  0.00  0.00    +0.015 C 
ATOM     25  C   UNL     1      31.761  -5.544 -20.672  0.00  0.00    +0.015 C 
ATOM     26  C   UNL     1      32.402  -6.517 -19.905  0.00  0.00    +0.003 C 
BRANCH  23  27
ATOM     27  N   UNL     1      30.773  -4.830 -22.774  0.00  0.00    -0.247 N 
ATOM     28  N   UNL     1      32.301  -4.518 -24.528  0.00  0.00    -0.337 NA
ATOM     29  N   UNL     1      30.244  -3.266 -24.441  0.00  0.00    -0.170 NA
ATOM     30  C   UNL     1      31.123  -4.174 -23.970  0.00  0.00    +0.149 C 
ATOM     31  C   UNL     1      32.603  -3.870 -25.672  0.00  0.00    +0.147 C 
ATOM     32  C   UNL     1      31.787  -2.922 -26.254  0.00  0.00    +0.055 C 
ATOM     33  C   UNL     1      30.609  -2.657 -25.588  0.00  0.00    +0.114 C 
ATOM     34  H   UNL     1      29.905  -4.546 -22.406  0.00  0.00    +0.165 HD
BRANCH  31  36
ATOM     35  N   UNL     1      35.620  -3.745 -27.857  0.00  0.00    -0.242 NA
ATOM     36  C   UNL     1      33.863  -4.239 -26.270  0.00  0.00    +0.050 C 
ATOM     37  C   UNL     1      34.536  -5.391 -25.874  0.00  0.00    +0.006 C 
ATOM     38  C   UNL     1      34.443  -3.458 -27.257  0.00  0.00    +0.101 C 
ATOM     39  C   UNL     1      35.749  -5.720 -26.469  0.00  0.00    +0.021 C 
ATOM     40  C   UNL     1      36.244  -4.872 -27.446  0.00  0.00    +0.099 C 
ENDBRANCH  31  36
ENDBRANCH  23  27
ENDBRANCH   2  21
TORSDOF 6
ENDMDL
MODEL 6
REMARK VINA RESULT:     -12.1      7.362     12.730
REMARK  Name = 4369496
REMARK  6 active torsions:
REMARK  status: ('A' for Active; 'I' for Inactive)
REMARK    1  A    between atoms: N_2  and  C_21
REMARK    2  A    between atoms: C_3  and  C_10
REMARK    3  A    between atoms: C_5  and  C_11
REMARK    4  A    between atoms: C_11  and  N_12
REMARK    5  A    between atoms: C_23  and  N_27
REMARK    6  A    between atoms: C_31  and  C_36
REMARK                            x       y       z     vdW  Elec       q    Type
REMARK                         _______ _______ _______ _____ _____    ______ ____
ROOT
ATOM      1  O   UNL     1      31.716 -10.506 -20.260  0.00  0.00    -0.270 OA
ATOM      2  N   UNL     1      32.470 -11.222 -22.363  0.00  0.00    -0.280 N 
ATOM      3  C   UNL     1      31.994 -10.273 -21.447  0.00  0.00    +0.249 C 
ATOM      4  H   UNL     1      32.646 -10.888 -23.271  0.00  0.00    +0.155 HD
ENDROOT
BRANCH   3  10
ATOM      5  C   UNL     1      31.427  -6.367 -22.966  0.00  0.00    -0.043 C 
ATOM      6  C   UNL     1      31.155  -7.460 -23.775  0.00  0.00    -0.006 C 
ATOM      7  C   UNL     1      31.882  -6.534 -21.666  0.00  0.00    -0.006 C 
ATOM      8  C   UNL     1      31.341  -8.749 -23.274  0.00  0.00    +0.004 C 
ATOM      9  C   UNL     1      32.068  -7.823 -21.165  0.00  0.00    +0.004 C 
ATOM     10  C   UNL     1      31.798  -8.930 -21.969  0.00  0.00    +0.054 C 
BRANCH   5  11
ATOM     11  C   UNL     1      31.225  -4.975 -23.506  0.00  0.00    -0.050 C 
BRANCH  11  12
ATOM     12  N   UNL     1      31.739  -4.840 -24.868  0.00  0.00    +0.387 N 
ATOM     13  N   UNL     1      33.492  -3.687 -26.857  0.00  0.00    +0.383 N 
ATOM     14  C   UNL     1      33.163  -5.193 -24.924  0.00  0.00    -0.100 C 
ATOM     15  C   UNL     1      31.528  -3.478 -25.371  0.00  0.00    -0.100 C 
ATOM     16  C   UNL     1      33.704  -5.049 -26.351  0.00  0.00    -0.101 C 
ATOM     17  C   UNL     1      32.068  -3.333 -26.799  0.00  0.00    -0.101 C 
ATOM     18  C   UNL     1      34.005  -3.553 -28.218  0.00  0.00    -0.101 C 
ATOM     19  H   UNL     1      31.225  -5.487 -25.464  0.00  0.00    -0.079 HD
ATOM     20  H   UNL     1      34.009  -3.039 -26.260  0.00  0.00    -0.080 HD
ENDBRANCH  11  12
ENDBRANCH   5  11
ENDBRANCH   3  10
BRANCH   2  21
ATOM     21  C   UNL     1      32.731 -12.598 -22.152  0.00  0.00    +0.052 C 
ATOM     22  C   UNL     1      33.234 -13.358 -23.194  0.00  0.00    +0.030 C 
ATOM     23  C   UNL     1      33.489 -14.715 -22.986  0.00  0.00    +0.059 C 
ATOM     24  C   UNL     1      32.478 -13.151 -20.908  0.00  0.00    +0.015 C 
ATOM     25  C   UNL     1      33.239 -15.288 -21.739  0.00  0.00    +0.015 C 
ATOM     26  C   UNL     1      32.734 -14.506 -20.700  0.00  0.00    +0.003 C 
BRANCH  23  27
ATOM     27  N   UNL     1      34.002 -15.504 -24.036  0.00  0.00    -0.247 N 
ATOM     28  N   UNL     1      34.335 -17.565 -22.964  0.00  0.00    -0.337 NA
ATOM     29  N   UNL     1      34.870 -17.282 -25.297  0.00  0.00    -0.170 NA
ATOM     30  C   UNL     1      34.422 -16.847 -24.102  0.00  0.00    +0.149 C 
ATOM     31  C   UNL     1      34.746 -18.847 -23.064  0.00  0.00    +0.147 C 
ATOM     32  C   UNL     1      35.223 -19.410 -24.229  0.00  0.00    +0.055 C 
ATOM     33  C   UNL     1      35.264 -18.573 -25.325  0.00  0.00    +0.114 C 
ATOM     34  H   UNL     1      34.084 -15.021 -24.890  0.00  0.00    +0.165 HD
BRANCH  31  36
ATOM     35  N   UNL     1      35.768 -20.678 -19.983  0.00  0.00    -0.242 NA
ATOM     36  C   UNL     1      34.652 -19.616 -21.847  0.00  0.00    +0.050 C 
ATOM     37  C   UNL     1      33.420 -20.036 -21.356  0.00  0.00    +0.006 C 
ATOM     38  C   UNL     1      35.786 -19.961 -21.129  0.00  0.00    +0.101 C 
ATOM     39  C   UNL     1      33.361 -20.776 -20.180  0.00  0.00    +0.021 C 
ATOM     40  C   UNL     1      34.553 -21.068 -19.538  0.00  0.00    +0.099 C 
ENDBRANCH  31  36
ENDBRANCH  23  27
ENDBRANCH   2  21
TORSDOF 6
ENDMDL
MODEL 7
REMARK VINA RESULT:     -11.4      2.984      6.161
REMARK  Name = 4369496
REMARK  6 active torsions:
REMARK  status: ('A' for Active; 'I' for Inactive)
REMARK    1  A    between atoms: N_2  and  C_21
REMARK    2  A    between atoms: C_3  and  C_10
REMARK    3  A    between atoms: C_5  and  C_11
REMARK    4  A    between atoms: C_11  and  N_12
REMARK    5  A    between atoms: C_23  and  N_27
REMARK    6  A    between atoms: C_31  and  C_36
REMARK                            x       y       z     vdW  Elec       q    Type
REMARK                         _______ _______ _______ _____ _____    ______ ____
ROOT
ATOM      1  O   UNL     1      35.931 -18.982 -23.258  0.00  0.00    -0.270 OA
ATOM      2  N   UNL     1      34.249 -18.627 -21.661  0.00  0.00    -0.280 N 
ATOM      3  C   UNL     1      35.044 -18.271 -22.760  0.00  0.00    +0.249 C 
ATOM      4  H   UNL     1      33.586 -17.957 -21.379  0.00  0.00    +0.155 HD
ENDROOT
BRANCH   3  10
ATOM      5  C   UNL     1      34.342 -14.429 -24.384  0.00  0.00    -0.043 C 
ATOM      6  C   UNL     1      34.150 -15.551 -25.176  0.00  0.00    -0.006 C 
ATOM      7  C   UNL     1      34.761 -14.547 -23.066  0.00  0.00    -0.006 C 
ATOM      8  C   UNL     1      34.380 -16.818 -24.641  0.00  0.00    +0.004 C 
ATOM      9  C   UNL     1      34.992 -15.814 -22.530  0.00  0.00    +0.004 C 
ATOM     10  C   UNL     1      34.802 -16.950 -23.317  0.00  0.00    +0.054 C 
BRANCH   5  11
ATOM     11  C   UNL     1      34.092 -13.060 -24.961  0.00  0.00    -0.050 C 
BRANCH  11  12
ATOM     12  N   UNL     1      33.142 -12.295 -24.155  0.00  0.00    +0.387 N 
ATOM     13  N   UNL     1      32.326 -10.928 -21.742  0.00  0.00    +0.383 N 
ATOM     14  C   UNL     1      33.700 -10.986 -23.796  0.00  0.00    -0.100 C 
ATOM     15  C   UNL     1      32.765 -13.040 -22.948  0.00  0.00    -0.100 C 
ATOM     16  C   UNL     1      32.706 -10.184 -22.949  0.00  0.00    -0.101 C 
ATOM     17  C   UNL     1      31.770 -12.239 -22.101  0.00  0.00    -0.101 C 
ATOM     18  C   UNL     1      31.376 -10.163 -20.938  0.00  0.00    -0.101 C 
ATOM     19  H   UNL     1      32.304 -12.144 -24.715  0.00  0.00    -0.079 HD
ATOM     20  H   UNL     1      33.165 -11.078 -21.180  0.00  0.00    -0.080 HD
ENDBRANCH  11  12
ENDBRANCH   5  11
ENDBRANCH   3  10
BRANCH   2  21
ATOM     21  C   UNL     1      34.275 -19.824 -20.905  0.00  0.00    +0.052 C 
ATOM     22  C   UNL     1      35.417 -20.150 -20.193  0.00  0.00    +0.030 C 
ATOM     23  C   UNL     1      35.443 -21.330 -19.450  0.00  0.00    +0.059 C 
ATOM     24  C   UNL     1      33.158 -20.641 -20.895  0.00  0.00    +0.015 C 
ATOM     25  C   UNL     1      34.326 -22.165 -19.429  0.00  0.00    +0.015 C 
ATOM     26  C   UNL     1      33.184 -21.821 -20.151  0.00  0.00    +0.003 C 
BRANCH  23  27
ATOM     27  N   UNL     1      36.598 -21.677 -18.717  0.00  0.00    -0.247 N 
ATOM     28  N   UNL     1      35.670 -22.689 -16.814  0.00  0.00    -0.337 NA
ATOM     29  N   UNL     1      38.058 -22.486 -17.069  0.00  0.00    -0.170 NA
ATOM     30  C   UNL     1      36.783 -22.314 -17.475  0.00  0.00    +0.149 C 
ATOM     31  C   UNL     1      35.885 -23.295 -15.629  0.00  0.00    +0.147 C 
ATOM     32  C   UNL     1      37.140 -23.530 -15.105  0.00  0.00    +0.055 C 
ATOM     33  C   UNL     1      38.200 -23.100 -15.875  0.00  0.00    +0.114 C 
ATOM     34  H   UNL     1      37.439 -21.423 -19.162  0.00  0.00    +0.165 HD
BRANCH  31  36
ATOM     35  N   UNL     1      33.677 -24.513 -12.885  0.00  0.00    -0.242 NA
ATOM     36  C   UNL     1      34.694 -23.698 -14.921  0.00  0.00    +0.050 C 
ATOM     37  C   UNL     1      33.448 -23.670 -15.540  0.00  0.00    +0.006 C 
ATOM     38  C   UNL     1      34.753 -24.124 -13.604  0.00  0.00    +0.101 C 
ATOM     39  C   UNL     1      32.318 -24.064 -14.832  0.00  0.00    +0.021 C 
ATOM     40  C   UNL     1      32.484 -24.473 -13.519  0.00  0.00    +0.099 C 
ENDBRANCH  31  36
ENDBRANCH  23  27
ENDBRANCH   2  21
TORSDOF 6
ENDMDL
MODEL 8
REMARK VINA RESULT:     -11.0      5.816     14.055
REMARK  Name = 4369496
REMARK  6 active torsions:
REMARK  status: ('A' for Active; 'I' for Inactive)
REMARK    1  A    between atoms: N_2  and  C_21
REMARK    2  A    between atoms: C_3  and  C_10
REMARK    3  A    between atoms: C_5  and  C_11
REMARK    4  A    between atoms: C_11  and  N_12
REMARK    5  A    between atoms: C_23  and  N_27
REMARK    6  A    between atoms: C_31  and  C_36
REMARK                            x       y       z     vdW  Elec       q    Type
REMARK                         _______ _______ _______ _____ _____    ______ ____
ROOT
ATOM      1  O   UNL     1      35.461 -16.059 -23.453  0.00  0.00    -0.270 OA
ATOM      2  N   UNL     1      34.106 -15.617 -21.589  0.00  0.00    -0.280 N 
ATOM      3  C   UNL     1      34.996 -16.389 -22.350  0.00  0.00    +0.249 C 
ATOM      4  H   UNL     1      33.824 -16.012 -20.733  0.00  0.00    +0.155 HD
ENDROOT
BRANCH   3  10
ATOM      5  C   UNL     1      36.054 -20.140 -20.706  0.00  0.00    -0.043 C 
ATOM      6  C   UNL     1      34.716 -19.838 -20.913  0.00  0.00    -0.006 C 
ATOM      7  C   UNL     1      37.051 -19.231 -21.031  0.00  0.00    -0.006 C 
ATOM      8  C   UNL     1      34.367 -18.601 -21.456  0.00  0.00    +0.004 C 
ATOM      9  C   UNL     1      36.702 -17.994 -21.574  0.00  0.00    +0.004 C 
ATOM     10  C   UNL     1      35.360 -17.679 -21.786  0.00  0.00    +0.054 C 
BRANCH   5  11
ATOM     11  C   UNL     1      36.432 -21.475 -20.121  0.00  0.00    -0.050 C 
BRANCH  11  12
ATOM     12  N   UNL     1      35.852 -21.671 -18.794  0.00  0.00    +0.387 N 
ATOM     13  N   UNL     1      35.223 -23.269 -16.468  0.00  0.00    +0.383 N 
ATOM     14  C   UNL     1      36.888 -22.043 -17.823  0.00  0.00    -0.100 C 
ATOM     15  C   UNL     1      34.796 -22.690 -18.832  0.00  0.00    -0.100 C 
ATOM     16  C   UNL     1      36.281 -22.251 -16.431  0.00  0.00    -0.101 C 
ATOM     17  C   UNL     1      34.188 -22.898 -17.441  0.00  0.00    -0.101 C 
ATOM     18  C   UNL     1      34.643 -23.464 -15.141  0.00  0.00    -0.101 C 
ATOM     19  H   UNL     1      35.437 -20.789 -18.498  0.00  0.00    -0.079 HD
ATOM     20  H   UNL     1      35.639 -24.154 -16.762  0.00  0.00    -0.080 HD
ENDBRANCH  11  12
ENDBRANCH   5  11
ENDBRANCH   3  10
BRANCH   2  21
ATOM     21  C   UNL     1      33.561 -14.345 -21.891  0.00  0.00    +0.052 C 
ATOM     22  C   UNL     1      34.300 -13.456 -22.652  0.00  0.00    +0.030 C 
ATOM     23  C   UNL     1      33.764 -12.202 -22.948  0.00  0.00    +0.059 C 
ATOM     24  C   UNL     1      32.302 -14.020 -21.417  0.00  0.00    +0.015 C 
ATOM     25  C   UNL     1      32.496 -11.858 -22.478  0.00  0.00    +0.015 C 
ATOM     26  C   UNL     1      31.765 -12.767 -21.713  0.00  0.00    +0.003 C 
BRANCH  23  27
ATOM     27  N   UNL     1      34.502 -11.284 -23.723  0.00  0.00    -0.247 N 
ATOM     28  N   UNL     1      33.787  -9.231 -22.841  0.00  0.00    -0.337 NA
ATOM     29  N   UNL     1      35.399  -9.316 -24.631  0.00  0.00    -0.170 NA
ATOM     30  C   UNL     1      34.565  -9.878 -23.732  0.00  0.00    +0.149 C 
ATOM     31  C   UNL     1      33.873  -7.885 -22.878  0.00  0.00    +0.147 C 
ATOM     32  C   UNL     1      34.688  -7.192 -23.750  0.00  0.00    +0.055 C 
ATOM     33  C   UNL     1      35.435  -7.967 -24.612  0.00  0.00    +0.114 C 
ATOM     34  H   UNL     1      35.088 -11.711 -24.390  0.00  0.00    +0.165 HD
BRANCH  31  36
ATOM     35  N   UNL     1      32.372  -6.860 -19.624  0.00  0.00    -0.242 NA
ATOM     36  C   UNL     1      33.041  -7.192 -21.924  0.00  0.00    +0.050 C 
ATOM     37  C   UNL     1      32.133  -6.221 -22.335  0.00  0.00    +0.006 C 
ATOM     38  C   UNL     1      33.121  -7.472 -20.569  0.00  0.00    +0.101 C 
ATOM     39  C   UNL     1      31.345  -5.570 -21.391  0.00  0.00    +0.021 C 
ATOM     40  C   UNL     1      31.502  -5.923 -20.061  0.00  0.00    +0.099 C 
ENDBRANCH  31  36
ENDBRANCH  23  27
ENDBRANCH   2  21
TORSDOF 6
ENDMDL
