MODEL 1
REMARK VINA RESULT:     -14.3      0.000      0.000
REMARK  Name = 5073
REMARK  4 active torsions:
REMARK  status: ('A' for Active; 'I' for Inactive)
REMARK    1  A    between atoms: N_1  and  C_18
REMARK    2  A    between atoms: C_2  and  C_11
REMARK    3  A    between atoms: C_18  and  C_19
REMARK    4  A    between atoms: C_19  and  C_23
REMARK                            x       y       z     vdW  Elec       q    Type
REMARK                         _______ _______ _______ _____ _____    ______ ____
ROOT
ATOM      1  N   UNL     1      36.054 -19.720 -20.486  0.00  0.00    +0.387 N 
ATOM      2  C   UNL     1      35.475 -18.690 -23.172  0.00  0.00    +0.039 C 
ATOM      3  C   UNL     1      34.375 -19.213 -22.233  0.00  0.00    -0.017 C 
ATOM      4  C   UNL     1      36.681 -18.213 -22.347  0.00  0.00    -0.017 C 
ATOM      5  C   UNL     1      34.926 -20.258 -21.260  0.00  0.00    -0.077 C 
ATOM      6  C   UNL     1      37.148 -19.295 -21.370  0.00  0.00    -0.077 C 
ATOM      7  H   UNL     1      35.723 -18.901 -19.977  0.00  0.00    -0.080 HD
ENDROOT
BRANCH   2  11
ATOM      8  F   UNL     1      33.547 -12.352 -24.325  0.00  0.00    -0.204 F 
ATOM      9  O   UNL     1      34.303 -16.795 -26.003  0.00  0.00    -0.354 OA
ATOM     10  N   UNL     1      34.752 -17.965 -25.404  0.00  0.00    -0.081 NA
ATOM     11  C   UNL     1      34.970 -17.637 -24.132  0.00  0.00    +0.100 A 
ATOM     12  C   UNL     1      34.685 -16.292 -23.854  0.00  0.00    +0.054 A 
ATOM     13  C   UNL     1      34.264 -15.798 -25.077  0.00  0.00    +0.179 A 
ATOM     14  C   UNL     1      34.724 -15.430 -22.749  0.00  0.00    +0.007 C 
ATOM     15  C   UNL     1      33.869 -14.482 -25.298  0.00  0.00    +0.070 C 
ATOM     16  C   UNL     1      34.332 -14.096 -22.934  0.00  0.00    +0.030 C 
ATOM     17  C   UNL     1      33.913 -13.634 -24.186  0.00  0.00    +0.143 C 
ENDBRANCH   2  11
BRANCH   1  18
ATOM     18  C   UNL     1      36.531 -20.711 -19.522  0.00  0.00    -0.076 C 
BRANCH  18  19
ATOM     19  C   UNL     1      35.721 -21.993 -19.654  0.00  0.00    -0.007 C 
BRANCH  19  23
ATOM     20  O   UNL     1      33.000 -22.490 -19.353  0.00  0.00    -0.274 OA
ATOM     21  N   UNL     1      33.121 -22.996 -17.082  0.00  0.00    -0.237 N 
ATOM     22  N   UNL     1      35.207 -22.857 -15.973  0.00  0.00    -0.399 NA
ATOM     23  C   UNL     1      35.133 -22.392 -18.332  0.00  0.00    +0.123 C 
ATOM     24  C   UNL     1      31.665 -23.154 -17.009  0.00  0.00    +0.100 C 
ATOM     25  C   UNL     1      31.167 -23.891 -15.780  0.00  0.00    +0.022 C 
ATOM     26  C   UNL     1      33.930 -23.072 -15.962  0.00  0.00    +0.165 C 
ATOM     27  C   UNL     1      31.820 -23.300 -14.549  0.00  0.00    +0.011 C 
ATOM     28  C   UNL     1      33.318 -23.500 -14.641  0.00  0.00    +0.075 C 
ATOM     29  C   UNL     1      33.655 -22.631 -18.320  0.00  0.00    +0.237 C 
ATOM     30  C   UNL     1      35.798 -22.521 -17.167  0.00  0.00    +0.096 C 
ATOM     31  C   UNL     1      37.288 -22.337 -17.052  0.00  0.00    +0.062 C 
ENDBRANCH  19  23
ENDBRANCH  18  19
ENDBRANCH   1  18
TORSDOF 4
ENDMDL
MODEL 2
REMARK VINA RESULT:     -14.1      3.420     10.273
REMARK  Name = 5073
REMARK  4 active torsions:
REMARK  status: ('A' for Active; 'I' for Inactive)
REMARK    1  A    between atoms: N_1  and  C_18
REMARK    2  A    between atoms: C_2  and  C_11
REMARK    3  A    between atoms: C_18  and  C_19
REMARK    4  A    between atoms: C_19  and  C_23
REMARK                            x       y       z     vdW  Elec       q    Type
REMARK                         _______ _______ _______ _____ _____    ______ ____
ROOT
ATOM      1  N   UNL     1      34.521 -20.257 -20.716  0.00  0.00    +0.387 N 
ATOM      2  C   UNL     1      34.301 -22.439 -18.766  0.00  0.00    +0.039 C 
ATOM      3  C   UNL     1      35.634 -21.736 -19.072  0.00  0.00    -0.017 C 
ATOM      4  C   UNL     1      33.129 -21.497 -19.087  0.00  0.00    -0.017 C 
ATOM      5  C   UNL     1      35.651 -21.172 -20.495  0.00  0.00    -0.077 C 
ATOM      6  C   UNL     1      33.237 -20.941 -20.510  0.00  0.00    -0.077 C 
ATOM      7  H   UNL     1      34.590 -19.503 -20.034  0.00  0.00    -0.080 HD
ENDROOT
BRANCH   2  11
ATOM      8  F   UNL     1      30.657 -24.370 -13.455  0.00  0.00    -0.204 F 
ATOM      9  O   UNL     1      34.975 -23.757 -15.482  0.00  0.00    -0.354 OA
ATOM     10  N   UNL     1      35.373 -23.286 -16.726  0.00  0.00    -0.081 NA
ATOM     11  C   UNL     1      34.240 -22.988 -17.359  0.00  0.00    +0.100 A 
ATOM     12  C   UNL     1      33.097 -23.242 -16.588  0.00  0.00    +0.054 A 
ATOM     13  C   UNL     1      33.617 -23.731 -15.401  0.00  0.00    +0.179 A 
ATOM     14  C   UNL     1      31.706 -23.129 -16.726  0.00  0.00    +0.007 C 
ATOM     15  C   UNL     1      32.846 -24.126 -14.312  0.00  0.00    +0.070 C 
ATOM     16  C   UNL     1      30.899 -23.518 -15.648  0.00  0.00    +0.030 C 
ATOM     17  C   UNL     1      31.461 -24.008 -14.464  0.00  0.00    +0.143 C 
ENDBRANCH   2  11
BRANCH   1  18
ATOM     18  C   UNL     1      34.585 -19.683 -22.060  0.00  0.00    -0.076 C 
BRANCH  18  19
ATOM     19  C   UNL     1      35.355 -18.371 -22.026  0.00  0.00    -0.007 C 
BRANCH  19  23
ATOM     20  O   UNL     1      34.918 -15.645 -21.677  0.00  0.00    -0.274 OA
ATOM     21  N   UNL     1      34.370 -15.226 -23.902  0.00  0.00    -0.237 N 
ATOM     22  N   UNL     1      34.314 -17.022 -25.440  0.00  0.00    -0.399 NA
ATOM     23  C   UNL     1      34.949 -17.483 -23.166  0.00  0.00    +0.123 C 
ATOM     24  C   UNL     1      34.084 -13.820 -23.597  0.00  0.00    +0.100 C 
ATOM     25  C   UNL     1      34.033 -12.906 -24.807  0.00  0.00    +0.022 C 
ATOM     26  C   UNL     1      34.152 -15.769 -25.155  0.00  0.00    +0.165 C 
ATOM     27  C   UNL     1      33.153 -13.534 -25.867  0.00  0.00    +0.011 C 
ATOM     28  C   UNL     1      33.765 -14.850 -26.299  0.00  0.00    +0.075 C 
ATOM     29  C   UNL     1      34.753 -16.038 -22.831  0.00  0.00    +0.237 C 
ATOM     30  C   UNL     1      34.717 -17.870 -24.436  0.00  0.00    +0.096 C 
ATOM     31  C   UNL     1      34.907 -19.288 -24.907  0.00  0.00    +0.062 C 
ENDBRANCH  19  23
ENDBRANCH  18  19
ENDBRANCH   1  18
TORSDOF 4
ENDMDL
MODEL 3
REMARK VINA RESULT:     -13.9      3.397     10.105
REMARK  Name = 5073
REMARK  4 active torsions:
REMARK  status: ('A' for Active; 'I' for Inactive)
REMARK    1  A    between atoms: N_1  and  C_18
REMARK    2  A    between atoms: C_2  and  C_11
REMARK    3  A    between atoms: C_18  and  C_19
REMARK    4  A    between atoms: C_19  and  C_23
REMARK                            x       y       z     vdW  Elec       q    Type
REMARK                         _______ _______ _______ _____ _____    ______ ____
ROOT
ATOM      1  N   UNL     1      34.429 -19.976 -21.013  0.00  0.00    +0.387 N 
ATOM      2  C   UNL     1      34.381 -22.191 -19.089  0.00  0.00    +0.039 C 
ATOM      3  C   UNL     1      35.673 -21.442 -19.454  0.00  0.00    -0.017 C 
ATOM      4  C   UNL     1      33.165 -21.282 -19.333  0.00  0.00    -0.017 C 
ATOM      5  C   UNL     1      35.597 -20.857 -20.866  0.00  0.00    -0.077 C 
ATOM      6  C   UNL     1      33.180 -20.703 -20.750  0.00  0.00    -0.077 C 
ATOM      7  H   UNL     1      34.510 -19.229 -20.323  0.00  0.00    -0.080 HD
ENDROOT
BRANCH   2  11
ATOM      8  F   UNL     1      31.087 -24.495 -13.699  0.00  0.00    -0.204 F 
ATOM      9  O   UNL     1      35.270 -23.490 -15.849  0.00  0.00    -0.354 OA
ATOM     10  N   UNL     1      35.587 -22.971 -17.097  0.00  0.00    -0.081 NA
ATOM     11  C   UNL     1      34.413 -22.762 -17.690  0.00  0.00    +0.100 A 
ATOM     12  C   UNL     1      33.320 -23.122 -16.888  0.00  0.00    +0.054 A 
ATOM     13  C   UNL     1      33.917 -23.580 -15.726  0.00  0.00    +0.179 A 
ATOM     14  C   UNL     1      31.921 -23.126 -16.981  0.00  0.00    +0.007 C 
ATOM     15  C   UNL     1      33.219 -24.055 -14.619  0.00  0.00    +0.070 C 
ATOM     16  C   UNL     1      31.185 -23.596 -15.884  0.00  0.00    +0.030 C 
ATOM     17  C   UNL     1      31.824 -24.052 -14.727  0.00  0.00    +0.143 C 
ENDBRANCH   2  11
BRANCH   1  18
ATOM     18  C   UNL     1      34.403 -19.381 -22.349  0.00  0.00    -0.076 C 
BRANCH  18  19
ATOM     19  C   UNL     1      35.512 -18.346 -22.476  0.00  0.00    -0.007 C 
BRANCH  19  23
ATOM     20  O   UNL     1      34.943 -17.689 -25.120  0.00  0.00    -0.274 OA
ATOM     21  N   UNL     1      34.176 -15.541 -24.649  0.00  0.00    -0.237 N 
ATOM     22  N   UNL     1      34.216 -14.758 -22.417  0.00  0.00    -0.399 NA
ATOM     23  C   UNL     1      34.952 -17.006 -22.854  0.00  0.00    +0.123 C 
ATOM     24  C   UNL     1      33.989 -15.263 -26.077  0.00  0.00    +0.100 C 
ATOM     25  C   UNL     1      33.106 -14.068 -26.381  0.00  0.00    +0.022 C 
ATOM     26  C   UNL     1      33.981 -14.576 -23.677  0.00  0.00    +0.165 C 
ATOM     27  C   UNL     1      33.559 -12.890 -25.544  0.00  0.00    +0.011 C 
ATOM     28  C   UNL     1      33.392 -13.236 -24.078  0.00  0.00    +0.075 C 
ATOM     29  C   UNL     1      34.692 -16.795 -24.313  0.00  0.00    +0.237 C 
ATOM     30  C   UNL     1      34.698 -15.981 -22.017  0.00  0.00    +0.096 C 
ATOM     31  C   UNL     1      34.889 -16.077 -20.526  0.00  0.00    +0.062 C 
ENDBRANCH  19  23
ENDBRANCH  18  19
ENDBRANCH   1  18
TORSDOF 4
ENDMDL
MODEL 4
REMARK VINA RESULT:     -13.6      2.496      3.924
REMARK  Name = 5073
REMARK  4 active torsions:
REMARK  status: ('A' for Active; 'I' for Inactive)
REMARK    1  A    between atoms: N_1  and  C_18
REMARK    2  A    between atoms: C_2  and  C_11
REMARK    3  A    between atoms: C_18  and  C_19
REMARK    4  A    between atoms: C_19  and  C_23
REMARK                            x       y       z     vdW  Elec       q    Type
REMARK                         _______ _______ _______ _____ _____    ______ ____
ROOT
ATOM      1  N   UNL     1      34.417 -22.371 -19.396  0.00  0.00    +0.387 N 
ATOM      2  C   UNL     1      34.749 -19.837 -20.839  0.00  0.00    +0.039 C 
ATOM      3  C   UNL     1      35.889 -20.859 -20.690  0.00  0.00    -0.017 C 
ATOM      4  C   UNL     1      33.391 -20.551 -20.724  0.00  0.00    -0.017 C 
ATOM      5  C   UNL     1      35.723 -21.695 -19.420  0.00  0.00    -0.077 C 
ATOM      6  C   UNL     1      33.317 -21.399 -19.451  0.00  0.00    -0.077 C 
ATOM      7  H   UNL     1      34.356 -22.964 -20.222  0.00  0.00    -0.080 HD
ENDROOT
BRANCH   2  11
ATOM      8  F   UNL     1      34.852 -13.809 -23.816  0.00  0.00    -0.204 F 
ATOM      9  O   UNL     1      35.112 -18.596 -24.201  0.00  0.00    -0.354 OA
ATOM     10  N   UNL     1      35.042 -19.622 -23.267  0.00  0.00    -0.081 NA
ATOM     11  C   UNL     1      34.868 -19.009 -22.098  0.00  0.00    +0.100 A 
ATOM     12  C   UNL     1      34.819 -17.612 -22.211  0.00  0.00    +0.054 A 
ATOM     13  C   UNL     1      34.980 -17.398 -23.569  0.00  0.00    +0.179 A 
ATOM     14  C   UNL     1      34.665 -16.507 -21.361  0.00  0.00    +0.007 C 
ATOM     15  C   UNL     1      34.999 -16.142 -24.169  0.00  0.00    +0.070 C 
ATOM     16  C   UNL     1      34.679 -15.226 -21.931  0.00  0.00    +0.030 C 
ATOM     17  C   UNL     1      34.844 -15.049 -23.309  0.00  0.00    +0.143 C 
ENDBRANCH   2  11
BRANCH   1  18
ATOM     18  C   UNL     1      34.299 -23.210 -18.204  0.00  0.00    -0.076 C 
BRANCH  18  19
ATOM     19  C   UNL     1      34.554 -22.377 -16.956  0.00  0.00    -0.007 C 
BRANCH  19  23
ATOM     20  O   UNL     1      37.274 -22.893 -16.676  0.00  0.00    -0.274 OA
ATOM     21  N   UNL     1      37.049 -24.221 -14.775  0.00  0.00    -0.237 N 
ATOM     22  N   UNL     1      34.888 -24.661 -13.917  0.00  0.00    -0.399 NA
ATOM     23  C   UNL     1      35.085 -23.231 -15.842  0.00  0.00    +0.123 C 
ATOM     24  C   UNL     1      38.488 -24.501 -14.764  0.00  0.00    +0.100 C 
ATOM     25  C   UNL     1      39.018 -25.051 -13.453  0.00  0.00    +0.022 C 
ATOM     26  C   UNL     1      36.173 -24.818 -13.886  0.00  0.00    +0.165 C 
ATOM     27  C   UNL     1      38.130 -26.190 -12.998  0.00  0.00    +0.011 C 
ATOM     28  C   UNL     1      36.733 -25.659 -12.754  0.00  0.00    +0.075 C 
ATOM     29  C   UNL     1      36.570 -23.419 -15.814  0.00  0.00    +0.237 C 
ATOM     30  C   UNL     1      34.356 -23.860 -14.900  0.00  0.00    +0.096 C 
ATOM     31  C   UNL     1      32.859 -23.728 -14.801  0.00  0.00    +0.062 C 
ENDBRANCH  19  23
ENDBRANCH  18  19
ENDBRANCH   1  18
TORSDOF 4
ENDMDL
MODEL 5
REMARK VINA RESULT:     -13.5      3.520     10.263
REMARK  Name = 5073
REMARK  4 active torsions:
REMARK  status: ('A' for Active; 'I' for Inactive)
REMARK    1  A    between atoms: N_1  and  C_18
REMARK    2  A    between atoms: C_2  and  C_11
REMARK    3  A    between atoms: C_18  and  C_19
REMARK    4  A    between atoms: C_19  and  C_23
REMARK                            x       y       z     vdW  Elec       q    Type
REMARK                         _______ _______ _______ _____ _____    ______ ____
ROOT
ATOM      1  N   UNL     1      34.516 -20.212 -20.742  0.00  0.00    +0.387 N 
ATOM      2  C   UNL     1      34.368 -22.397 -18.789  0.00  0.00    +0.039 C 
ATOM      3  C   UNL     1      35.669 -21.627 -19.070  0.00  0.00    -0.017 C 
ATOM      4  C   UNL     1      33.156 -21.517 -19.137  0.00  0.00    -0.017 C 
ATOM      5  C   UNL     1      35.686 -21.067 -20.494  0.00  0.00    -0.077 C 
ATOM      6  C   UNL     1      33.265 -20.961 -20.559  0.00  0.00    -0.077 C 
ATOM      7  H   UNL     1      34.532 -19.453 -20.062  0.00  0.00    -0.080 HD
ENDROOT
BRANCH   2  11
ATOM      8  F   UNL     1      37.436 -23.727 -12.955  0.00  0.00    -0.204 F 
ATOM      9  O   UNL     1      33.438 -23.850 -15.626  0.00  0.00    -0.354 OA
ATOM     10  N   UNL     1      33.159 -23.439 -16.923  0.00  0.00    -0.081 NA
ATOM     11  C   UNL     1      34.307 -22.945 -17.381  0.00  0.00    +0.100 A 
ATOM     12  C   UNL     1      35.346 -23.006 -16.441  0.00  0.00    +0.054 A 
ATOM     13  C   UNL     1      34.743 -23.590 -15.340  0.00  0.00    +0.179 A 
ATOM     14  C   UNL     1      36.701 -22.652 -16.368  0.00  0.00    +0.007 C 
ATOM     15  C   UNL     1      35.395 -23.857 -14.139  0.00  0.00    +0.070 C 
ATOM     16  C   UNL     1      37.389 -22.908 -15.173  0.00  0.00    +0.030 C 
ATOM     17  C   UNL     1      36.746 -23.499 -14.081  0.00  0.00    +0.143 C 
ENDBRANCH   2  11
BRANCH   1  18
ATOM     18  C   UNL     1      34.577 -19.639 -22.087  0.00  0.00    -0.076 C 
BRANCH  18  19
ATOM     19  C   UNL     1      35.350 -18.328 -22.056  0.00  0.00    -0.007 C 
BRANCH  19  23
ATOM     20  O   UNL     1      34.947 -15.597 -21.706  0.00  0.00    -0.274 OA
ATOM     21  N   UNL     1      34.375 -15.176 -23.924  0.00  0.00    -0.237 N 
ATOM     22  N   UNL     1      34.279 -16.974 -25.459  0.00  0.00    -0.399 NA
ATOM     23  C   UNL     1      34.939 -17.439 -23.193  0.00  0.00    +0.123 C 
ATOM     24  C   UNL     1      34.107 -13.767 -23.618  0.00  0.00    +0.100 C 
ATOM     25  C   UNL     1      34.050 -12.854 -24.828  0.00  0.00    +0.022 C 
ATOM     26  C   UNL     1      34.134 -15.719 -25.173  0.00  0.00    +0.165 C 
ATOM     27  C   UNL     1      33.149 -13.475 -25.876  0.00  0.00    +0.011 C 
ATOM     28  C   UNL     1      33.742 -14.798 -26.314  0.00  0.00    +0.075 C 
ATOM     29  C   UNL     1      34.763 -15.990 -22.857  0.00  0.00    +0.237 C 
ATOM     30  C   UNL     1      34.687 -17.824 -24.459  0.00  0.00    +0.096 C 
ATOM     31  C   UNL     1      34.855 -19.245 -24.930  0.00  0.00    +0.062 C 
ENDBRANCH  19  23
ENDBRANCH  18  19
ENDBRANCH   1  18
TORSDOF 4
ENDMDL
MODEL 6
REMARK VINA RESULT:     -13.4      3.392     10.038
REMARK  Name = 5073
REMARK  4 active torsions:
REMARK  status: ('A' for Active; 'I' for Inactive)
REMARK    1  A    between atoms: N_1  and  C_18
REMARK    2  A    between atoms: C_2  and  C_11
REMARK    3  A    between atoms: C_18  and  C_19
REMARK    4  A    between atoms: C_19  and  C_23
REMARK                            x       y       z     vdW  Elec       q    Type
REMARK                         _______ _______ _______ _____ _____    ______ ____
ROOT
ATOM      1  N   UNL     1      34.451 -19.915 -21.097  0.00  0.00    +0.387 N 
ATOM      2  C   UNL     1      34.366 -22.133 -19.178  0.00  0.00    +0.039 C 
ATOM      3  C   UNL     1      35.665 -21.381 -19.514  0.00  0.00    -0.017 C 
ATOM      4  C   UNL     1      33.154 -21.226 -19.445  0.00  0.00    -0.017 C 
ATOM      5  C   UNL     1      35.617 -20.794 -20.927  0.00  0.00    -0.077 C 
ATOM      6  C   UNL     1      33.197 -20.644 -20.860  0.00  0.00    -0.077 C 
ATOM      7  H   UNL     1      34.517 -19.169 -20.404  0.00  0.00    -0.080 HD
ENDROOT
BRANCH   2  11
ATOM      8  F   UNL     1      37.678 -23.497 -13.487  0.00  0.00    -0.204 F 
ATOM      9  O   UNL     1      33.587 -23.661 -16.010  0.00  0.00    -0.354 OA
ATOM     10  N   UNL     1      33.250 -23.235 -17.288  0.00  0.00    -0.081 NA
ATOM     11  C   UNL     1      34.370 -22.707 -17.779  0.00  0.00    +0.100 A 
ATOM     12  C   UNL     1      35.444 -22.762 -16.880  0.00  0.00    +0.054 A 
ATOM     13  C   UNL     1      34.896 -23.378 -15.767  0.00  0.00    +0.179 A 
ATOM     14  C   UNL     1      36.793 -22.379 -16.850  0.00  0.00    +0.007 C 
ATOM     15  C   UNL     1      35.597 -23.652 -14.597  0.00  0.00    +0.070 C 
ATOM     16  C   UNL     1      37.531 -22.640 -15.686  0.00  0.00    +0.030 C 
ATOM     17  C   UNL     1      36.941 -23.264 -14.582  0.00  0.00    +0.143 C 
ENDBRANCH   2  11
BRANCH   1  18
ATOM     18  C   UNL     1      34.452 -19.317 -22.432  0.00  0.00    -0.076 C 
BRANCH  18  19
ATOM     19  C   UNL     1      35.549 -18.267 -22.528  0.00  0.00    -0.007 C 
BRANCH  19  23
ATOM     20  O   UNL     1      34.995 -17.589 -25.170  0.00  0.00    -0.274 OA
ATOM     21  N   UNL     1      34.201 -15.454 -24.684  0.00  0.00    -0.237 N 
ATOM     22  N   UNL     1      34.212 -14.694 -22.443  0.00  0.00    -0.399 NA
ATOM     23  C   UNL     1      34.978 -16.929 -22.897  0.00  0.00    +0.123 C 
ATOM     24  C   UNL     1      34.024 -15.164 -26.111  0.00  0.00    +0.100 C 
ATOM     25  C   UNL     1      33.129 -13.975 -26.410  0.00  0.00    +0.022 C 
ATOM     26  C   UNL     1      33.987 -14.502 -23.704  0.00  0.00    +0.165 C 
ATOM     27  C   UNL     1      33.562 -12.802 -25.557  0.00  0.00    +0.011 C 
ATOM     28  C   UNL     1      33.387 -13.164 -24.096  0.00  0.00    +0.075 C 
ATOM     29  C   UNL     1      34.728 -16.706 -24.356  0.00  0.00    +0.237 C 
ATOM     30  C   UNL     1      34.704 -15.916 -22.051  0.00  0.00    +0.096 C 
ATOM     31  C   UNL     1      34.884 -16.025 -20.560  0.00  0.00    +0.062 C 
ENDBRANCH  19  23
ENDBRANCH  18  19
ENDBRANCH   1  18
TORSDOF 4
ENDMDL
MODEL 7
REMARK VINA RESULT:     -13.2      1.263      2.040
REMARK  Name = 5073
REMARK  4 active torsions:
REMARK  status: ('A' for Active; 'I' for Inactive)
REMARK    1  A    between atoms: N_1  and  C_18
REMARK    2  A    between atoms: C_2  and  C_11
REMARK    3  A    between atoms: C_18  and  C_19
REMARK    4  A    between atoms: C_19  and  C_23
REMARK                            x       y       z     vdW  Elec       q    Type
REMARK                         _______ _______ _______ _____ _____    ______ ____
ROOT
ATOM      1  N   UNL     1      35.549 -19.398 -20.945  0.00  0.00    +0.387 N 
ATOM      2  C   UNL     1      35.488 -17.730 -23.359  0.00  0.00    +0.039 C 
ATOM      3  C   UNL     1      34.995 -19.187 -23.349  0.00  0.00    -0.017 C 
ATOM      4  C   UNL     1      35.393 -17.138 -21.943  0.00  0.00    -0.017 C 
ATOM      5  C   UNL     1      35.710 -20.008 -22.273  0.00  0.00    -0.077 C 
ATOM      6  C   UNL     1      36.094 -18.034 -20.919  0.00  0.00    -0.077 C 
ATOM      7  H   UNL     1      34.550 -19.342 -20.745  0.00  0.00    -0.080 HD
ENDROOT
BRANCH   2  11
ATOM      8  F   UNL     1      33.138 -11.743 -25.319  0.00  0.00    -0.204 F 
ATOM      9  O   UNL     1      33.774 -16.419 -26.244  0.00  0.00    -0.354 OA
ATOM     10  N   UNL     1      34.366 -17.450 -25.525  0.00  0.00    -0.081 NA
ATOM     11  C   UNL     1      34.784 -16.883 -24.395  0.00  0.00    +0.100 A 
ATOM     12  C   UNL     1      34.497 -15.513 -24.328  0.00  0.00    +0.054 A 
ATOM     13  C   UNL     1      33.854 -15.264 -25.529  0.00  0.00    +0.179 A 
ATOM     14  C   UNL     1      34.691 -14.454 -23.428  0.00  0.00    +0.007 C 
ATOM     15  C   UNL     1      33.374 -14.017 -25.918  0.00  0.00    +0.070 C 
ATOM     16  C   UNL     1      34.219 -13.184 -23.787  0.00  0.00    +0.030 C 
ATOM     17  C   UNL     1      33.574 -12.972 -25.010  0.00  0.00    +0.143 C 
ENDBRANCH   2  11
BRANCH   1  18
ATOM     18  C   UNL     1      36.188 -20.225 -19.922  0.00  0.00    -0.076 C 
BRANCH  18  19
ATOM     19  C   UNL     1      35.755 -21.675 -20.084  0.00  0.00    -0.007 C 
BRANCH  19  23
ATOM     20  O   UNL     1      36.284 -22.872 -17.628  0.00  0.00    -0.274 OA
ATOM     21  N   UNL     1      34.058 -22.969 -16.950  0.00  0.00    -0.237 N 
ATOM     22  N   UNL     1      32.366 -22.194 -18.411  0.00  0.00    -0.399 NA
ATOM     23  C   UNL     1      34.658 -22.016 -19.119  0.00  0.00    +0.123 C 
ATOM     24  C   UNL     1      34.433 -23.673 -15.719  0.00  0.00    +0.100 C 
ATOM     25  C   UNL     1      33.369 -23.673 -14.638  0.00  0.00    +0.022 C 
ATOM     26  C   UNL     1      32.739 -22.738 -17.296  0.00  0.00    +0.165 C 
ATOM     27  C   UNL     1      32.044 -24.085 -15.245  0.00  0.00    +0.011 C 
ATOM     28  C   UNL     1      31.646 -23.068 -16.295  0.00  0.00    +0.075 C 
ATOM     29  C   UNL     1      35.091 -22.653 -17.835  0.00  0.00    +0.237 C 
ATOM     30  C   UNL     1      33.337 -21.833 -19.314  0.00  0.00    +0.096 C 
ATOM     31  C   UNL     1      32.775 -21.178 -20.548  0.00  0.00    +0.062 C 
ENDBRANCH  19  23
ENDBRANCH  18  19
ENDBRANCH   1  18
TORSDOF 4
ENDMDL
MODEL 8
REMARK VINA RESULT:     -13.2      1.314      2.177
REMARK  Name = 5073
REMARK  4 active torsions:
REMARK  status: ('A' for Active; 'I' for Inactive)
REMARK    1  A    between atoms: N_1  and  C_18
REMARK    2  A    between atoms: C_2  and  C_11
REMARK    3  A    between atoms: C_18  and  C_19
REMARK    4  A    between atoms: C_19  and  C_23
REMARK                            x       y       z     vdW  Elec       q    Type
REMARK                         _______ _______ _______ _____ _____    ______ ____
ROOT
ATOM      1  N   UNL     1      36.284 -19.350 -20.574  0.00  0.00    +0.387 N 
ATOM      2  C   UNL     1      35.543 -18.426 -23.259  0.00  0.00    +0.039 C 
ATOM      3  C   UNL     1      34.506 -18.939 -22.246  0.00  0.00    -0.017 C 
ATOM      4  C   UNL     1      36.780 -17.895 -22.514  0.00  0.00    -0.017 C 
ATOM      5  C   UNL     1      35.130 -19.938 -21.269  0.00  0.00    -0.077 C 
ATOM      6  C   UNL     1      37.321 -18.932 -21.527  0.00  0.00    -0.077 C 
ATOM      7  H   UNL     1      35.961 -18.520 -20.076  0.00  0.00    -0.080 HD
ENDROOT
BRANCH   2  11
ATOM      8  F   UNL     1      33.394 -12.180 -24.514  0.00  0.00    -0.204 F 
ATOM      9  O   UNL     1      34.190 -16.654 -26.088  0.00  0.00    -0.354 OA
ATOM     10  N   UNL     1      34.698 -17.792 -25.475  0.00  0.00    -0.081 NA
ATOM     11  C   UNL     1      34.966 -17.417 -24.226  0.00  0.00    +0.100 A 
ATOM     12  C   UNL     1      34.658 -16.072 -23.977  0.00  0.00    +0.054 A 
ATOM     13  C   UNL     1      34.167 -15.628 -25.193  0.00  0.00    +0.179 A 
ATOM     14  C   UNL     1      34.726 -15.174 -22.902  0.00  0.00    +0.007 C 
ATOM     15  C   UNL     1      33.727 -14.331 -25.435  0.00  0.00    +0.070 C 
ATOM     16  C   UNL     1      34.290 -13.857 -23.109  0.00  0.00    +0.030 C 
ATOM     17  C   UNL     1      33.801 -13.446 -24.354  0.00  0.00    +0.143 C 
ENDBRANCH   2  11
BRANCH   1  18
ATOM     18  C   UNL     1      36.832 -20.297 -19.603  0.00  0.00    -0.076 C 
BRANCH  18  19
ATOM     19  C   UNL     1      36.233 -21.677 -19.831  0.00  0.00    -0.007 C 
BRANCH  19  23
ATOM     20  O   UNL     1      37.671 -22.156 -17.497  0.00  0.00    -0.274 OA
ATOM     21  N   UNL     1      35.835 -22.869 -16.254  0.00  0.00    -0.237 N 
ATOM     22  N   UNL     1      33.709 -22.988 -17.287  0.00  0.00    -0.399 NA
ATOM     23  C   UNL     1      35.568 -22.184 -18.584  0.00  0.00    +0.123 C 
ATOM     24  C   UNL     1      36.693 -23.169 -15.103  0.00  0.00    +0.100 C 
ATOM     25  C   UNL     1      35.957 -23.328 -13.786  0.00  0.00    +0.022 C 
ATOM     26  C   UNL     1      34.482 -23.161 -16.262  0.00  0.00    +0.165 C 
ATOM     27  C   UNL     1      34.784 -24.264 -13.983  0.00  0.00    +0.011 C 
ATOM     28  C   UNL     1      33.827 -23.650 -14.984  0.00  0.00    +0.075 C 
ATOM     29  C   UNL     1      36.466 -22.392 -17.405  0.00  0.00    +0.237 C 
ATOM     30  C   UNL     1      34.265 -22.494 -18.443  0.00  0.00    +0.096 C 
ATOM     31  C   UNL     1      33.254 -22.302 -19.543  0.00  0.00    +0.062 C 
ENDBRANCH  19  23
ENDBRANCH  18  19
ENDBRANCH   1  18
TORSDOF 4
ENDMDL
MODEL 9
REMARK VINA RESULT:     -13.2      3.853      9.873
REMARK  Name = 5073
REMARK  4 active torsions:
REMARK  status: ('A' for Active; 'I' for Inactive)
REMARK    1  A    between atoms: N_1  and  C_18
REMARK    2  A    between atoms: C_2  and  C_11
REMARK    3  A    between atoms: C_18  and  C_19
REMARK    4  A    between atoms: C_19  and  C_23
REMARK                            x       y       z     vdW  Elec       q    Type
REMARK                         _______ _______ _______ _____ _____    ______ ____
ROOT
ATOM      1  N   UNL     1      35.370 -16.524 -23.649  0.00  0.00    +0.387 N 
ATOM      2  C   UNL     1      34.917 -18.701 -21.735  0.00  0.00    +0.039 C 
ATOM      3  C   UNL     1      35.287 -18.957 -23.206  0.00  0.00    -0.017 C 
ATOM      4  C   UNL     1      35.425 -17.315 -21.305  0.00  0.00    -0.017 C 
ATOM      5  C   UNL     1      34.821 -17.809 -24.104  0.00  0.00    -0.077 C 
ATOM      6  C   UNL     1      34.953 -16.226 -22.272  0.00  0.00    -0.077 C 
ATOM      7  H   UNL     1      36.387 -16.595 -23.663  0.00  0.00    -0.080 HD
ENDROOT
BRANCH   2  11
ATOM      8  F   UNL     1      33.457 -23.767 -17.562  0.00  0.00    -0.204 F 
ATOM      9  O   UNL     1      36.778 -21.067 -19.756  0.00  0.00    -0.354 OA
ATOM     10  N   UNL     1      36.690 -20.000 -20.640  0.00  0.00    -0.081 NA
ATOM     11  C   UNL     1      35.385 -19.806 -20.815  0.00  0.00    +0.100 A 
ATOM     12  C   UNL     1      34.593 -20.701 -20.082  0.00  0.00    +0.054 A 
ATOM     13  C   UNL     1      35.525 -21.485 -19.424  0.00  0.00    +0.179 A 
ATOM     14  C   UNL     1      33.228 -20.958 -19.886  0.00  0.00    +0.007 C 
ATOM     15  C   UNL     1      35.205 -22.531 -18.564  0.00  0.00    +0.070 C 
ATOM     16  C   UNL     1      32.868 -22.005 -19.024  0.00  0.00    +0.030 C 
ATOM     17  C   UNL     1      33.840 -22.775 -18.377  0.00  0.00    +0.143 C 
ENDBRANCH   2  11
BRANCH   1  18
ATOM     18  C   UNL     1      34.962 -15.446 -24.551  0.00  0.00    -0.076 C 
BRANCH  18  19
ATOM     19  C   UNL     1      33.489 -15.127 -24.343  0.00  0.00    -0.007 C 
BRANCH  19  23
ATOM     20  O   UNL     1      32.298 -14.465 -21.916  0.00  0.00    -0.274 OA
ATOM     21  N   UNL     1      32.486 -12.161 -22.204  0.00  0.00    -0.237 N 
ATOM     22  N   UNL     1      33.422 -11.315 -24.206  0.00  0.00    -0.399 NA
ATOM     23  C   UNL     1      33.306 -13.700 -23.916  0.00  0.00    +0.123 C 
ATOM     24  C   UNL     1      31.772 -11.916 -20.947  0.00  0.00    +0.100 C 
ATOM     25  C   UNL     1      31.927 -10.513 -20.391  0.00  0.00    +0.022 C 
ATOM     26  C   UNL     1      32.865 -11.134 -23.050  0.00  0.00    +0.165 C 
ATOM     27  C   UNL     1      31.662  -9.510 -21.495  0.00  0.00    +0.011 C 
ATOM     28  C   UNL     1      32.693  -9.699 -22.589  0.00  0.00    +0.075 C 
ATOM     29  C   UNL     1      32.654 -13.494 -22.585  0.00  0.00    +0.237 C 
ATOM     30  C   UNL     1      33.641 -12.605 -24.626  0.00  0.00    +0.096 C 
ATOM     31  C   UNL     1      34.328 -12.676 -25.964  0.00  0.00    +0.062 C 
ENDBRANCH  19  23
ENDBRANCH  18  19
ENDBRANCH   1  18
TORSDOF 4
ENDMDL
