MODEL 1
REMARK VINA RESULT:     -13.9      0.000      0.000
REMARK  Name = 11167118
REMARK  6 active torsions:
REMARK  status: ('A' for Active; 'I' for Inactive)
REMARK    1  A    between atoms: N_2  and  C_6
REMARK    2  A    between atoms: N_2  and  C_15
REMARK    3  A    between atoms: C_8  and  O_25
REMARK    4  A    between atoms: C_17  and  C_24
REMARK    5  A    between atoms: O_25  and  C_27
REMARK    6  A    between atoms: C_30  and  C_34
REMARK                            x       y       z     vdW  Elec       q    Type
REMARK                         _______ _______ _______ _____ _____    ______ ____
ROOT
ATOM      1  N   UNL     1      35.154 -22.425 -18.276  0.00  0.00    -0.302 N 
ATOM      2  N   UNL     1      32.938 -22.417 -18.446  0.00  0.00    -0.302 N 
ATOM      3  C   UNL     1      34.870 -21.579 -19.317  0.00  0.00    +0.063 C 
ATOM      4  C   UNL     1      33.480 -21.592 -19.403  0.00  0.00    +0.060 C 
ATOM      5  C   UNL     1      33.969 -22.900 -17.788  0.00  0.00    +0.225 C 
ATOM      6  C   UNL     1      35.684 -20.828 -20.167  0.00  0.00    +0.053 C 
ATOM      7  C   UNL     1      35.038 -20.060 -21.140  0.00  0.00    +0.147 C 
ATOM      8  C   UNL     1      32.848 -20.814 -20.388  0.00  0.00    +0.019 C 
ATOM      9  C   UNL     1      33.646 -20.051 -21.251  0.00  0.00    +0.039 C 
ATOM     10  H   UNL     1      36.052 -22.649 -17.940  0.00  0.00    +0.150 HD
ATOM     11  H   UNL     1      31.985 -22.606 -18.287  0.00  0.00    +0.150 HD
ENDROOT
BRANCH   5  12
ATOM     12  N   UNL     1      34.004 -23.759 -16.746  0.00  0.00    -0.303 N 
ATOM     13  H   UNL     1      33.208 -24.332 -16.655  0.00  0.00    +0.150 HD
BRANCH  12  15
ATOM     14 CL   UNL     1      38.180 -24.593 -12.625  0.00  0.00    -0.082 Cl
ATOM     15  C   UNL     1      35.008 -23.969 -15.759  0.00  0.00    +0.047 C 
ATOM     16  C   UNL     1      35.668 -25.189 -15.703  0.00  0.00    +0.019 C 
ATOM     17  C   UNL     1      36.653 -25.394 -14.736  0.00  0.00    +0.083 C 
ATOM     18  C   UNL     1      35.313 -22.950 -14.867  0.00  0.00    +0.015 C 
ATOM     19  C   UNL     1      36.967 -24.377 -13.834  0.00  0.00    +0.062 C 
ATOM     20  C   UNL     1      36.297 -23.155 -13.900  0.00  0.00    +0.013 C 
BRANCH  17  24
ATOM     21  F   UNL     1      36.967 -27.521 -15.722  0.00  0.00    -0.166 F 
ATOM     22  F   UNL     1      38.694 -26.594 -14.782  0.00  0.00    -0.166 F 
ATOM     23  F   UNL     1      37.077 -27.378 -13.549  0.00  0.00    -0.166 F 
ATOM     24  C   UNL     1      37.347 -26.717 -14.700  0.00  0.00    +0.419 C 
ENDBRANCH  17  24
ENDBRANCH  12  15
ENDBRANCH   5  12
BRANCH   7  25
ATOM     25  O   UNL     1      35.783 -19.305 -21.998  0.00  0.00    -0.453 OA
BRANCH  25  27
ATOM     26  N   UNL     1      34.510 -15.422 -22.753  0.00  0.00    -0.239 NA
ATOM     27  C   UNL     1      35.359 -18.013 -22.249  0.00  0.00    +0.149 C 
ATOM     28  C   UNL     1      35.082 -17.634 -23.546  0.00  0.00    +0.061 C 
ATOM     29  C   UNL     1      35.222 -17.131 -21.199  0.00  0.00    +0.058 C 
ATOM     30  C   UNL     1      34.661 -16.329 -23.746  0.00  0.00    +0.137 C 
ATOM     31  C   UNL     1      34.795 -15.848 -21.502  0.00  0.00    +0.102 C 
BRANCH  30  34
ATOM     32  O   UNL     1      34.659 -16.532 -26.081  0.00  0.00    -0.268 OA
ATOM     33  N   UNL     1      33.677 -14.633 -25.186  0.00  0.00    -0.298 N 
ATOM     34  C   UNL     1      34.351 -15.856 -25.084  0.00  0.00    +0.264 C 
ATOM     35  C   UNL     1      33.280 -14.041 -26.444  0.00  0.00    +0.111 C 
ATOM     36  H   UNL     1      33.464 -14.148 -24.356  0.00  0.00    +0.150 HD
ENDBRANCH  30  34
ENDBRANCH  25  27
ENDBRANCH   7  25
TORSDOF 6
ENDMDL
MODEL 2
REMARK VINA RESULT:     -13.7      3.693      4.485
REMARK  Name = 11167118
REMARK  6 active torsions:
REMARK  status: ('A' for Active; 'I' for Inactive)
REMARK    1  A    between atoms: N_2  and  C_6
REMARK    2  A    between atoms: N_2  and  C_15
REMARK    3  A    between atoms: C_8  and  O_25
REMARK    4  A    between atoms: C_17  and  C_24
REMARK    5  A    between atoms: O_25  and  C_27
REMARK    6  A    between atoms: C_30  and  C_34
REMARK                            x       y       z     vdW  Elec       q    Type
REMARK                         _______ _______ _______ _____ _____    ______ ____
ROOT
ATOM      1  N   UNL     1      33.675 -21.353 -20.235  0.00  0.00    -0.302 N 
ATOM      2  N   UNL     1      35.484 -21.914 -19.072  0.00  0.00    -0.302 N 
ATOM      3  C   UNL     1      34.666 -20.513 -20.672  0.00  0.00    +0.063 C 
ATOM      4  C   UNL     1      35.785 -20.883 -19.930  0.00  0.00    +0.060 C 
ATOM      5  C   UNL     1      34.211 -22.172 -19.280  0.00  0.00    +0.225 C 
ATOM      6  C   UNL     1      34.681 -19.491 -21.623  0.00  0.00    +0.053 C 
ATOM      7  C   UNL     1      35.897 -18.828 -21.815  0.00  0.00    +0.147 C 
ATOM      8  C   UNL     1      36.998 -20.205 -20.137  0.00  0.00    +0.019 C 
ATOM      9  C   UNL     1      37.036 -19.177 -21.087  0.00  0.00    +0.039 C 
ATOM     10  H   UNL     1      32.743 -21.365 -20.553  0.00  0.00    +0.150 HD
ATOM     11  H   UNL     1      36.088 -22.364 -18.438  0.00  0.00    +0.150 HD
ENDROOT
BRANCH   5  12
ATOM     12  N   UNL     1      33.409 -23.092 -18.702  0.00  0.00    -0.303 N 
ATOM     13  H   UNL     1      33.154 -23.843 -19.285  0.00  0.00    +0.150 HD
BRANCH  12  15
ATOM     14 CL   UNL     1      31.222 -23.339 -13.200  0.00  0.00    -0.082 Cl
ATOM     15  C   UNL     1      32.874 -23.150 -17.384  0.00  0.00    +0.047 C 
ATOM     16  C   UNL     1      31.506 -23.018 -17.194  0.00  0.00    +0.019 C 
ATOM     17  C   UNL     1      30.982 -23.075 -15.902  0.00  0.00    +0.083 C 
ATOM     18  C   UNL     1      33.730 -23.337 -16.307  0.00  0.00    +0.015 C 
ATOM     19  C   UNL     1      31.833 -23.263 -14.812  0.00  0.00    +0.062 C 
ATOM     20  C   UNL     1      33.207 -23.394 -15.015  0.00  0.00    +0.013 C 
BRANCH  17  24
ATOM     21  F   UNL     1      28.934 -24.066 -15.259  0.00  0.00    -0.166 F 
ATOM     22  F   UNL     1      29.182 -21.944 -14.858  0.00  0.00    -0.166 F 
ATOM     23  F   UNL     1      28.902 -22.637 -16.906  0.00  0.00    -0.166 F 
ATOM     24  C   UNL     1      29.505 -22.931 -15.728  0.00  0.00    +0.419 C 
ENDBRANCH  17  24
ENDBRANCH  12  15
ENDBRANCH   5  12
BRANCH   7  25
ATOM     25  O   UNL     1      35.970 -17.820 -22.732  0.00  0.00    -0.453 OA
BRANCH  25  27
ATOM     26  N   UNL     1      33.885 -14.319 -21.917  0.00  0.00    -0.239 NA
ATOM     27  C   UNL     1      35.276 -16.655 -22.460  0.00  0.00    +0.149 C 
ATOM     28  C   UNL     1      34.963 -15.799 -23.496  0.00  0.00    +0.061 C 
ATOM     29  C   UNL     1      34.910 -16.373 -21.161  0.00  0.00    +0.058 C 
ATOM     30  C   UNL     1      34.267 -14.645 -23.173  0.00  0.00    +0.137 C 
ATOM     31  C   UNL     1      34.217 -15.194 -20.941  0.00  0.00    +0.102 C 
BRANCH  30  34
ATOM     32  O   UNL     1      33.825 -12.480 -23.955  0.00  0.00    -0.268 OA
ATOM     33  N   UNL     1      33.672 -14.209 -25.491  0.00  0.00    -0.298 N 
ATOM     34  C   UNL     1      33.902 -13.695 -24.209  0.00  0.00    +0.264 C 
ATOM     35  C   UNL     1      33.323 -13.391 -26.631  0.00  0.00    +0.111 C 
ATOM     36  H   UNL     1      33.749 -15.182 -25.623  0.00  0.00    +0.150 HD
ENDBRANCH  30  34
ENDBRANCH  25  27
ENDBRANCH   7  25
TORSDOF 6
ENDMDL
MODEL 3
REMARK VINA RESULT:     -13.7      6.575     11.343
REMARK  Name = 11167118
REMARK  6 active torsions:
REMARK  status: ('A' for Active; 'I' for Inactive)
REMARK    1  A    between atoms: N_2  and  C_6
REMARK    2  A    between atoms: N_2  and  C_15
REMARK    3  A    between atoms: C_8  and  O_25
REMARK    4  A    between atoms: C_17  and  C_24
REMARK    5  A    between atoms: O_25  and  C_27
REMARK    6  A    between atoms: C_30  and  C_34
REMARK                            x       y       z     vdW  Elec       q    Type
REMARK                         _______ _______ _______ _____ _____    ______ ____
ROOT
ATOM      1  N   UNL     1      34.545 -19.075 -21.323  0.00  0.00    -0.302 N 
ATOM      2  N   UNL     1      36.662 -19.550 -20.842  0.00  0.00    -0.302 N 
ATOM      3  C   UNL     1      34.499 -20.203 -20.545  0.00  0.00    +0.063 C 
ATOM      4  C   UNL     1      35.833 -20.480 -20.258  0.00  0.00    +0.060 C 
ATOM      5  C   UNL     1      35.857 -18.723 -21.472  0.00  0.00    +0.225 C 
ATOM      6  C   UNL     1      33.437 -20.983 -20.082  0.00  0.00    +0.053 C 
ATOM      7  C   UNL     1      33.767 -22.089 -19.292  0.00  0.00    +0.147 C 
ATOM      8  C   UNL     1      36.145 -21.595 -19.463  0.00  0.00    +0.019 C 
ATOM      9  C   UNL     1      35.096 -22.391 -18.987  0.00  0.00    +0.039 C 
ATOM     10  H   UNL     1      33.770 -18.603 -21.705  0.00  0.00    +0.150 HD
ATOM     11  H   UNL     1      37.644 -19.511 -20.798  0.00  0.00    +0.150 HD
ENDROOT
BRANCH   5  12
ATOM     12  N   UNL     1      36.146 -17.628 -22.209  0.00  0.00    -0.303 N 
ATOM     13  H   UNL     1      37.001 -17.194 -21.986  0.00  0.00    +0.150 HD
BRANCH  12  15
ATOM     14 CL   UNL     1      33.095 -15.058 -26.590  0.00  0.00    -0.082 Cl
ATOM     15  C   UNL     1      35.412 -17.002 -23.256  0.00  0.00    +0.047 C 
ATOM     16  C   UNL     1      34.978 -15.694 -23.099  0.00  0.00    +0.019 C 
ATOM     17  C   UNL     1      34.259 -15.080 -24.126  0.00  0.00    +0.083 C 
ATOM     18  C   UNL     1      35.142 -17.711 -24.418  0.00  0.00    +0.015 C 
ATOM     19  C   UNL     1      33.981 -15.783 -25.299  0.00  0.00    +0.062 C 
ATOM     20  C   UNL     1      34.422 -17.098 -25.445  0.00  0.00    +0.013 C 
BRANCH  17  24
ATOM     21  F   UNL     1      34.284 -13.135 -22.781  0.00  0.00    -0.166 F 
ATOM     22  F   UNL     1      34.204 -12.855 -24.935  0.00  0.00    -0.166 F 
ATOM     23  F   UNL     1      32.453 -13.598 -23.871  0.00  0.00    -0.166 F 
ATOM     24  C   UNL     1      33.804 -13.670 -23.930  0.00  0.00    +0.419 C 
ENDBRANCH  17  24
ENDBRANCH  12  15
ENDBRANCH   5  12
BRANCH   7  25
ATOM     25  O   UNL     1      32.771 -22.887 -18.812  0.00  0.00    -0.453 OA
BRANCH  25  27
ATOM     26  N   UNL     1      32.565 -23.446 -14.699  0.00  0.00    -0.239 NA
ATOM     27  C   UNL     1      32.702 -23.073 -17.443  0.00  0.00    +0.149 C 
ATOM     28  C   UNL     1      33.827 -23.486 -16.761  0.00  0.00    +0.061 C 
ATOM     29  C   UNL     1      31.511 -22.841 -16.789  0.00  0.00    +0.058 C 
ATOM     30  C   UNL     1      33.707 -23.658 -15.391  0.00  0.00    +0.137 C 
ATOM     31  C   UNL     1      31.493 -23.042 -15.418  0.00  0.00    +0.102 C 
BRANCH  30  34
ATOM     32  O   UNL     1      35.605 -24.985 -15.027  0.00  0.00    -0.268 OA
ATOM     33  N   UNL     1      35.061 -23.446 -13.381  0.00  0.00    -0.298 N 
ATOM     34  C   UNL     1      34.849 -24.092 -14.604  0.00  0.00    +0.264 C 
ATOM     35  C   UNL     1      36.164 -23.749 -12.496  0.00  0.00    +0.111 C 
ATOM     36  H   UNL     1      34.423 -22.748 -13.106  0.00  0.00    +0.150 HD
ENDBRANCH  30  34
ENDBRANCH  25  27
ENDBRANCH   7  25
TORSDOF 6
ENDMDL
MODEL 4
REMARK VINA RESULT:     -13.6      8.388     12.506
REMARK  Name = 11167118
REMARK  6 active torsions:
REMARK  status: ('A' for Active; 'I' for Inactive)
REMARK    1  A    between atoms: N_2  and  C_6
REMARK    2  A    between atoms: N_2  and  C_15
REMARK    3  A    between atoms: C_8  and  O_25
REMARK    4  A    between atoms: C_17  and  C_24
REMARK    5  A    between atoms: O_25  and  C_27
REMARK    6  A    between atoms: C_30  and  C_34
REMARK                            x       y       z     vdW  Elec       q    Type
REMARK                         _______ _______ _______ _____ _____    ______ ____
ROOT
ATOM      1  N   UNL     1      33.039 -14.455 -21.659  0.00  0.00    -0.302 N 
ATOM      2  N   UNL     1      32.521 -13.434 -23.564  0.00  0.00    -0.302 N 
ATOM      3  C   UNL     1      33.677 -15.167 -22.642  0.00  0.00    +0.063 C 
ATOM      4  C   UNL     1      33.337 -14.510 -23.821  0.00  0.00    +0.060 C 
ATOM      5  C   UNL     1      32.362 -13.430 -22.259  0.00  0.00    +0.225 C 
ATOM      6  C   UNL     1      34.497 -16.296 -22.602  0.00  0.00    +0.053 C 
ATOM      7  C   UNL     1      34.985 -16.763 -23.827  0.00  0.00    +0.147 C 
ATOM      8  C   UNL     1      33.837 -14.993 -25.043  0.00  0.00    +0.019 C 
ATOM      9  C   UNL     1      34.662 -16.125 -25.026  0.00  0.00    +0.039 C 
ATOM     10  H   UNL     1      33.065 -14.648 -20.694  0.00  0.00    +0.150 HD
ATOM     11  H   UNL     1      32.137 -12.802 -24.215  0.00  0.00    +0.150 HD
ENDROOT
BRANCH   5  12
ATOM     12  N   UNL     1      31.653 -12.587 -21.476  0.00  0.00    -0.303 N 
ATOM     13  H   UNL     1      30.872 -12.991 -21.034  0.00  0.00    +0.150 HD
BRANCH  12  15
ATOM     14 CL   UNL     1      32.500  -6.854 -20.239  0.00  0.00    -0.082 Cl
ATOM     15  C   UNL     1      31.856 -11.207 -21.189  0.00  0.00    +0.047 C 
ATOM     16  C   UNL     1      31.819 -10.281 -22.221  0.00  0.00    +0.019 C 
ATOM     17  C   UNL     1      32.017  -8.929 -21.940  0.00  0.00    +0.083 C 
ATOM     18  C   UNL     1      32.087 -10.809 -19.880  0.00  0.00    +0.015 C 
ATOM     19  C   UNL     1      32.251  -8.517 -20.627  0.00  0.00    +0.062 C 
ATOM     20  C   UNL     1      32.287  -9.457 -19.597  0.00  0.00    +0.013 C 
BRANCH  17  24
ATOM     21  F   UNL     1      31.002  -7.022 -22.902  0.00  0.00    -0.166 F 
ATOM     22  F   UNL     1      33.137  -7.280 -23.219  0.00  0.00    -0.166 F 
ATOM     23  F   UNL     1      31.722  -8.581 -24.245  0.00  0.00    -0.166 F 
ATOM     24  C   UNL     1      31.971  -7.954 -23.071  0.00  0.00    +0.419 C 
ENDBRANCH  17  24
ENDBRANCH  12  15
ENDBRANCH   5  12
BRANCH   7  25
ATOM     25  O   UNL     1      35.791 -17.863 -23.849  0.00  0.00    -0.453 OA
BRANCH  25  27
ATOM     26  N   UNL     1      36.275 -19.968 -20.299  0.00  0.00    -0.239 NA
ATOM     27  C   UNL     1      35.952 -18.563 -22.667  0.00  0.00    +0.149 C 
ATOM     28  C   UNL     1      34.893 -19.289 -22.163  0.00  0.00    +0.061 C 
ATOM     29  C   UNL     1      37.168 -18.523 -22.019  0.00  0.00    +0.058 C 
ATOM     30  C   UNL     1      35.105 -19.973 -20.976  0.00  0.00    +0.137 C 
ATOM     31  C   UNL     1      37.279 -19.241 -20.839  0.00  0.00    +0.102 C 
BRANCH  30  34
ATOM     32  O   UNL     1      32.862 -20.621 -20.768  0.00  0.00    -0.268 OA
ATOM     33  N   UNL     1      34.398 -21.678 -19.392  0.00  0.00    -0.298 N 
ATOM     34  C   UNL     1      34.037 -20.758 -20.383  0.00  0.00    +0.264 C 
ATOM     35  C   UNL     1      33.455 -22.547 -18.723  0.00  0.00    +0.111 C 
ATOM     36  H   UNL     1      35.347 -21.736 -19.134  0.00  0.00    +0.150 HD
ENDBRANCH  30  34
ENDBRANCH  25  27
ENDBRANCH   7  25
TORSDOF 6
ENDMDL
MODEL 5
REMARK VINA RESULT:     -13.6      8.310     12.948
REMARK  Name = 11167118
REMARK  6 active torsions:
REMARK  status: ('A' for Active; 'I' for Inactive)
REMARK    1  A    between atoms: N_2  and  C_6
REMARK    2  A    between atoms: N_2  and  C_15
REMARK    3  A    between atoms: C_8  and  O_25
REMARK    4  A    between atoms: C_17  and  C_24
REMARK    5  A    between atoms: O_25  and  C_27
REMARK    6  A    between atoms: C_30  and  C_34
REMARK                            x       y       z     vdW  Elec       q    Type
REMARK                         _______ _______ _______ _____ _____    ______ ____
ROOT
ATOM      1  N   UNL     1      33.678 -13.938 -22.386  0.00  0.00    -0.302 N 
ATOM      2  N   UNL     1      32.690 -13.383 -24.298  0.00  0.00    -0.302 N 
ATOM      3  C   UNL     1      33.985 -14.947 -23.262  0.00  0.00    +0.063 C 
ATOM      4  C   UNL     1      33.356 -14.577 -24.448  0.00  0.00    +0.060 C 
ATOM      5  C   UNL     1      32.904 -13.028 -23.050  0.00  0.00    +0.225 C 
ATOM      6  C   UNL     1      34.735 -16.116 -23.124  0.00  0.00    +0.053 C 
ATOM      7  C   UNL     1      34.840 -16.933 -24.254  0.00  0.00    +0.147 C 
ATOM      8  C   UNL     1      33.472 -15.411 -25.574  0.00  0.00    +0.019 C 
ATOM      9  C   UNL     1      34.221 -16.589 -25.458  0.00  0.00    +0.039 C 
ATOM     10  H   UNL     1      33.965 -13.880 -21.446  0.00  0.00    +0.150 HD
ATOM     11  H   UNL     1      32.166 -12.898 -24.976  0.00  0.00    +0.150 HD
ENDROOT
BRANCH   5  12
ATOM     12  N   UNL     1      32.479 -11.936 -22.377  0.00  0.00    -0.303 N 
ATOM     13  H   UNL     1      32.100 -12.120 -21.487  0.00  0.00    +0.150 HD
BRANCH  12  15
ATOM     14 CL   UNL     1      32.489  -6.215 -23.922  0.00  0.00    -0.082 Cl
ATOM     15  C   UNL     1      32.492 -10.562 -22.749  0.00  0.00    +0.047 C 
ATOM     16  C   UNL     1      33.684  -9.970 -23.140  0.00  0.00    +0.019 C 
ATOM     17  C   UNL     1      33.696  -8.623 -23.505  0.00  0.00    +0.083 C 
ATOM     18  C   UNL     1      31.310  -9.835 -22.717  0.00  0.00    +0.015 C 
ATOM     19  C   UNL     1      32.514  -7.882 -23.476  0.00  0.00    +0.062 C 
ATOM     20  C   UNL     1      31.321  -8.488 -23.081  0.00  0.00    +0.013 C 
BRANCH  17  24
ATOM     21  F   UNL     1      35.912  -8.949 -24.267  0.00  0.00    -0.166 F 
ATOM     22  F   UNL     1      34.858  -7.190 -24.991  0.00  0.00    -0.166 F 
ATOM     23  F   UNL     1      35.531  -7.277 -22.919  0.00  0.00    -0.166 F 
ATOM     24  C   UNL     1      34.995  -8.013 -23.922  0.00  0.00    +0.419 C 
ENDBRANCH  17  24
ENDBRANCH  12  15
ENDBRANCH   5  12
BRANCH   7  25
ATOM     25  O   UNL     1      35.560 -18.089 -24.177  0.00  0.00    -0.453 OA
BRANCH  25  27
ATOM     26  N   UNL     1      36.120 -19.764 -20.416  0.00  0.00    -0.239 NA
ATOM     27  C   UNL     1      35.747 -18.646 -22.925  0.00  0.00    +0.149 C 
ATOM     28  C   UNL     1      34.723 -19.368 -22.349  0.00  0.00    +0.061 C 
ATOM     29  C   UNL     1      36.952 -18.469 -22.280  0.00  0.00    +0.058 C 
ATOM     30  C   UNL     1      34.959 -19.906 -21.094  0.00  0.00    +0.137 C 
ATOM     31  C   UNL     1      37.090 -19.047 -21.028  0.00  0.00    +0.102 C 
BRANCH  30  34
ATOM     32  O   UNL     1      32.728 -20.515 -20.707  0.00  0.00    -0.268 OA
ATOM     33  N   UNL     1      34.352 -21.616 -19.473  0.00  0.00    -0.298 N 
ATOM     34  C   UNL     1      33.928 -20.679 -20.422  0.00  0.00    +0.264 C 
ATOM     35  C   UNL     1      33.451 -22.475 -18.738  0.00  0.00    +0.111 C 
ATOM     36  H   UNL     1      35.318 -21.695 -19.295  0.00  0.00    +0.150 HD
ENDBRANCH  30  34
ENDBRANCH  25  27
ENDBRANCH   7  25
TORSDOF 6
ENDMDL
MODEL 6
REMARK VINA RESULT:     -13.5      3.355      4.420
REMARK  Name = 11167118
REMARK  6 active torsions:
REMARK  status: ('A' for Active; 'I' for Inactive)
REMARK    1  A    between atoms: N_2  and  C_6
REMARK    2  A    between atoms: N_2  and  C_15
REMARK    3  A    between atoms: C_8  and  O_25
REMARK    4  A    between atoms: C_17  and  C_24
REMARK    5  A    between atoms: O_25  and  C_27
REMARK    6  A    between atoms: C_30  and  C_34
REMARK                            x       y       z     vdW  Elec       q    Type
REMARK                         _______ _______ _______ _____ _____    ______ ____
ROOT
ATOM      1  N   UNL     1      33.288 -20.746 -20.819  0.00  0.00    -0.302 N 
ATOM      2  N   UNL     1      34.963 -21.176 -19.423  0.00  0.00    -0.302 N 
ATOM      3  C   UNL     1      34.370 -20.074 -21.327  0.00  0.00    +0.063 C 
ATOM      4  C   UNL     1      35.402 -20.359 -20.438  0.00  0.00    +0.060 C 
ATOM      5  C   UNL     1      33.691 -21.389 -19.682  0.00  0.00    +0.225 C 
ATOM      6  C   UNL     1      34.530 -19.266 -22.454  0.00  0.00    +0.053 C 
ATOM      7  C   UNL     1      35.805 -18.733 -22.670  0.00  0.00    +0.147 C 
ATOM      8  C   UNL     1      36.677 -19.814 -20.670  0.00  0.00    +0.019 C 
ATOM      9  C   UNL     1      36.860 -19.001 -21.796  0.00  0.00    +0.039 C 
ATOM     10  H   UNL     1      32.382 -20.762 -21.205  0.00  0.00    +0.150 HD
ATOM     11  H   UNL     1      35.485 -21.527 -18.666  0.00  0.00    +0.150 HD
ENDROOT
BRANCH   5  12
ATOM     12  N   UNL     1      32.782 -22.123 -19.005  0.00  0.00    -0.303 N 
ATOM     13  H   UNL     1      31.933 -22.272 -19.481  0.00  0.00    +0.150 HD
BRANCH  12  15
ATOM     14 CL   UNL     1      33.127 -24.595 -13.631  0.00  0.00    -0.082 Cl
ATOM     15  C   UNL     1      32.854 -22.715 -17.712  0.00  0.00    +0.047 C 
ATOM     16  C   UNL     1      31.702 -22.838 -16.950  0.00  0.00    +0.019 C 
ATOM     17  C   UNL     1      31.773 -23.419 -15.683  0.00  0.00    +0.083 C 
ATOM     18  C   UNL     1      34.079 -23.162 -17.234  0.00  0.00    +0.015 C 
ATOM     19  C   UNL     1      32.999 -23.871 -15.192  0.00  0.00    +0.062 C 
ATOM     20  C   UNL     1      34.151 -23.742 -15.967  0.00  0.00    +0.013 C 
BRANCH  17  24
ATOM     21  F   UNL     1      30.698 -23.182 -13.590  0.00  0.00    -0.166 F 
ATOM     22  F   UNL     1      29.522 -22.755 -15.368  0.00  0.00    -0.166 F 
ATOM     23  F   UNL     1      30.056 -24.813 -14.889  0.00  0.00    -0.166 F 
ATOM     24  C   UNL     1      30.516 -23.538 -14.885  0.00  0.00    +0.419 C 
ENDBRANCH  17  24
ENDBRANCH  12  15
ENDBRANCH   5  12
BRANCH   7  25
ATOM     25  O   UNL     1      36.020 -17.936 -23.756  0.00  0.00    -0.453 OA
BRANCH  25  27
ATOM     26  N   UNL     1      33.378 -14.791 -24.389  0.00  0.00    -0.239 NA
ATOM     27  C   UNL     1      35.140 -16.889 -23.967  0.00  0.00    +0.149 C 
ATOM     28  C   UNL     1      34.795 -16.074 -22.909  0.00  0.00    +0.061 C 
ATOM     29  C   UNL     1      34.628 -16.681 -25.229  0.00  0.00    +0.058 C 
ATOM     30  C   UNL     1      33.911 -15.040 -23.171  0.00  0.00    +0.137 C 
ATOM     31  C   UNL     1      33.752 -15.620 -25.389  0.00  0.00    +0.102 C 
BRANCH  30  34
ATOM     32  O   UNL     1      34.149 -14.075 -21.048  0.00  0.00    -0.268 OA
ATOM     33  N   UNL     1      32.370 -13.348 -22.344  0.00  0.00    -0.298 N 
ATOM     34  C   UNL     1      33.500 -14.140 -22.107  0.00  0.00    +0.264 C 
ATOM     35  C   UNL     1      31.851 -12.390 -21.394  0.00  0.00    +0.111 C 
ATOM     36  H   UNL     1      31.903 -13.450 -23.205  0.00  0.00    +0.150 HD
ENDBRANCH  30  34
ENDBRANCH  25  27
ENDBRANCH   7  25
TORSDOF 6
ENDMDL
MODEL 7
REMARK VINA RESULT:     -13.5      6.612     11.279
REMARK  Name = 11167118
REMARK  6 active torsions:
REMARK  status: ('A' for Active; 'I' for Inactive)
REMARK    1  A    between atoms: N_2  and  C_6
REMARK    2  A    between atoms: N_2  and  C_15
REMARK    3  A    between atoms: C_8  and  O_25
REMARK    4  A    between atoms: C_17  and  C_24
REMARK    5  A    between atoms: O_25  and  C_27
REMARK    6  A    between atoms: C_30  and  C_34
REMARK                            x       y       z     vdW  Elec       q    Type
REMARK                         _______ _______ _______ _____ _____    ______ ____
ROOT
ATOM      1  N   UNL     1      34.384 -19.035 -21.472  0.00  0.00    -0.302 N 
ATOM      2  N   UNL     1      36.537 -19.311 -20.995  0.00  0.00    -0.302 N 
ATOM      3  C   UNL     1      34.442 -20.150 -20.677  0.00  0.00    +0.063 C 
ATOM      4  C   UNL     1      35.797 -20.302 -20.393  0.00  0.00    +0.060 C 
ATOM      5  C   UNL     1      35.659 -18.569 -21.634  0.00  0.00    +0.225 C 
ATOM      6  C   UNL     1      33.457 -21.014 -20.195  0.00  0.00    +0.053 C 
ATOM      7  C   UNL     1      33.887 -22.074 -19.391  0.00  0.00    +0.147 C 
ATOM      8  C   UNL     1      36.212 -21.373 -19.583  0.00  0.00    +0.019 C 
ATOM      9  C   UNL     1      35.239 -22.252 -19.089  0.00  0.00    +0.039 C 
ATOM     10  H   UNL     1      33.568 -18.640 -21.857  0.00  0.00    +0.150 HD
ATOM     11  H   UNL     1      37.513 -19.184 -20.958  0.00  0.00    +0.150 HD
ENDROOT
BRANCH   5  12
ATOM     12  N   UNL     1      35.846 -17.465 -22.388  0.00  0.00    -0.303 N 
ATOM     13  H   UNL     1      36.640 -17.491 -22.970  0.00  0.00    +0.150 HD
BRANCH  12  15
ATOM     14 CL   UNL     1      32.651 -12.484 -22.709  0.00  0.00    -0.082 Cl
ATOM     15  C   UNL     1      35.079 -16.268 -22.476  0.00  0.00    +0.047 C 
ATOM     16  C   UNL     1      34.719 -15.776 -23.722  0.00  0.00    +0.019 C 
ATOM     17  C   UNL     1      33.967 -14.604 -23.807  0.00  0.00    +0.083 C 
ATOM     18  C   UNL     1      34.702 -15.612 -21.312  0.00  0.00    +0.015 C 
ATOM     19  C   UNL     1      33.583 -13.936 -22.644  0.00  0.00    +0.062 C 
ATOM     20  C   UNL     1      33.951 -14.440 -21.396  0.00  0.00    +0.013 C 
BRANCH  17  24
ATOM     21  F   UNL     1      34.045 -14.906 -26.151  0.00  0.00    -0.166 F 
ATOM     22  F   UNL     1      32.251 -13.998 -25.324  0.00  0.00    -0.166 F 
ATOM     23  F   UNL     1      34.113 -12.866 -25.383  0.00  0.00    -0.166 F 
ATOM     24  C   UNL     1      33.593 -14.098 -25.162  0.00  0.00    +0.419 C 
ENDBRANCH  17  24
ENDBRANCH  12  15
ENDBRANCH   5  12
BRANCH   7  25
ATOM     25  O   UNL     1      32.969 -22.950 -18.893  0.00  0.00    -0.453 OA
BRANCH  25  27
ATOM     26  N   UNL     1      32.786 -23.414 -14.768  0.00  0.00    -0.239 NA
ATOM     27  C   UNL     1      32.908 -23.104 -17.520  0.00  0.00    +0.149 C 
ATOM     28  C   UNL     1      34.037 -23.500 -16.835  0.00  0.00    +0.061 C 
ATOM     29  C   UNL     1      31.720 -22.859 -16.865  0.00  0.00    +0.058 C 
ATOM     30  C   UNL     1      33.925 -23.640 -15.461  0.00  0.00    +0.137 C 
ATOM     31  C   UNL     1      31.710 -23.028 -15.489  0.00  0.00    +0.102 C 
BRANCH  30  34
ATOM     32  O   UNL     1      35.713 -25.077 -14.974  0.00  0.00    -0.268 OA
ATOM     33  N   UNL     1      35.424 -23.242 -13.586  0.00  0.00    -0.298 N 
ATOM     34  C   UNL     1      35.072 -24.054 -14.671  0.00  0.00    +0.264 C 
ATOM     35  C   UNL     1      36.551 -23.508 -12.720  0.00  0.00    +0.111 C 
ATOM     36  H   UNL     1      34.873 -22.447 -13.402  0.00  0.00    +0.150 HD
ENDBRANCH  30  34
ENDBRANCH  25  27
ENDBRANCH   7  25
TORSDOF 6
ENDMDL
MODEL 8
REMARK VINA RESULT:     -13.4      7.744     12.260
REMARK  Name = 11167118
REMARK  6 active torsions:
REMARK  status: ('A' for Active; 'I' for Inactive)
REMARK    1  A    between atoms: N_2  and  C_6
REMARK    2  A    between atoms: N_2  and  C_15
REMARK    3  A    between atoms: C_8  and  O_25
REMARK    4  A    between atoms: C_17  and  C_24
REMARK    5  A    between atoms: O_25  and  C_27
REMARK    6  A    between atoms: C_30  and  C_34
REMARK                            x       y       z     vdW  Elec       q    Type
REMARK                         _______ _______ _______ _____ _____    ______ ____
ROOT
ATOM      1  N   UNL     1      34.457 -14.717 -23.062  0.00  0.00    -0.302 N 
ATOM      2  N   UNL     1      33.734 -15.139 -25.121  0.00  0.00    -0.302 N 
ATOM      3  C   UNL     1      34.743 -16.039 -23.287  0.00  0.00    +0.063 C 
ATOM      4  C   UNL     1      34.281 -16.278 -24.578  0.00  0.00    +0.060 C 
ATOM      5  C   UNL     1      33.856 -14.223 -24.186  0.00  0.00    +0.225 C 
ATOM      6  C   UNL     1      35.347 -17.018 -22.495  0.00  0.00    +0.053 C 
ATOM      7  C   UNL     1      35.480 -18.290 -23.060  0.00  0.00    +0.147 C 
ATOM      8  C   UNL     1      34.422 -17.563 -25.130  0.00  0.00    +0.019 C 
ATOM      9  C   UNL     1      35.026 -18.560 -24.353  0.00  0.00    +0.039 C 
ATOM     10  H   UNL     1      34.652 -14.214 -22.239  0.00  0.00    +0.150 HD
ATOM     11  H   UNL     1      33.336 -15.031 -26.015  0.00  0.00    +0.150 HD
ENDROOT
BRANCH   5  12
ATOM     12  N   UNL     1      33.482 -12.924 -24.194  0.00  0.00    -0.303 N 
ATOM     13  H   UNL     1      33.599 -12.465 -25.057  0.00  0.00    +0.150 HD
BRANCH  12  15
ATOM     14 CL   UNL     1      31.242  -9.587 -19.840  0.00  0.00    -0.082 Cl
ATOM     15  C   UNL     1      32.947 -12.114 -23.152  0.00  0.00    +0.047 C 
ATOM     16  C   UNL     1      33.025 -10.732 -23.252  0.00  0.00    +0.019 C 
ATOM     17  C   UNL     1      32.500  -9.938 -22.232  0.00  0.00    +0.083 C 
ATOM     18  C   UNL     1      32.356 -12.719 -22.052  0.00  0.00    +0.015 C 
ATOM     19  C   UNL     1      31.903 -10.536 -21.121  0.00  0.00    +0.062 C 
ATOM     20  C   UNL     1      31.831 -11.926 -21.031  0.00  0.00    +0.013 C 
BRANCH  17  24
ATOM     21  F   UNL     1      31.378  -7.862 -22.378  0.00  0.00    -0.166 F 
ATOM     22  F   UNL     1      33.295  -7.888 -21.353  0.00  0.00    -0.166 F 
ATOM     23  F   UNL     1      33.219  -8.108 -23.520  0.00  0.00    -0.166 F 
ATOM     24  C   UNL     1      32.597  -8.453 -22.367  0.00  0.00    +0.419 C 
ENDBRANCH  17  24
ENDBRANCH  12  15
ENDBRANCH   5  12
BRANCH   7  25
ATOM     25  O   UNL     1      36.062 -19.286 -22.332  0.00  0.00    -0.453 OA
BRANCH  25  27
ATOM     26  N   UNL     1      33.688 -21.305 -19.583  0.00  0.00    -0.239 NA
ATOM     27  C   UNL     1      35.272 -19.958 -21.417  0.00  0.00    +0.149 C 
ATOM     28  C   UNL     1      35.873 -20.653 -20.389  0.00  0.00    +0.061 C 
ATOM     29  C   UNL     1      33.900 -19.918 -21.552  0.00  0.00    +0.058 C 
ATOM     30  C   UNL     1      35.038 -21.310 -19.499  0.00  0.00    +0.137 C 
ATOM     31  C   UNL     1      33.153 -20.608 -20.610  0.00  0.00    +0.102 C 
BRANCH  30  34
ATOM     32  O   UNL     1      34.999 -23.054 -17.933  0.00  0.00    -0.268 OA
ATOM     33  N   UNL     1      36.834 -21.638 -17.891  0.00  0.00    -0.298 N 
ATOM     34  C   UNL     1      35.597 -22.064 -18.390  0.00  0.00    +0.264 C 
ATOM     35  C   UNL     1      37.529 -22.296 -16.807  0.00  0.00    +0.111 C 
ATOM     36  H   UNL     1      37.253 -20.846 -18.299  0.00  0.00    +0.150 HD
ENDBRANCH  30  34
ENDBRANCH  25  27
ENDBRANCH   7  25
TORSDOF 6
ENDMDL
MODEL 9
REMARK VINA RESULT:     -13.4      6.607     10.944
REMARK  Name = 11167118
REMARK  6 active torsions:
REMARK  status: ('A' for Active; 'I' for Inactive)
REMARK    1  A    between atoms: N_2  and  C_6
REMARK    2  A    between atoms: N_2  and  C_15
REMARK    3  A    between atoms: C_8  and  O_25
REMARK    4  A    between atoms: C_17  and  C_24
REMARK    5  A    between atoms: O_25  and  C_27
REMARK    6  A    between atoms: C_30  and  C_34
REMARK                            x       y       z     vdW  Elec       q    Type
REMARK                         _______ _______ _______ _____ _____    ______ ____
ROOT
ATOM      1  N   UNL     1      36.180 -20.068 -20.668  0.00  0.00    -0.302 N 
ATOM      2  N   UNL     1      34.100 -19.657 -21.334  0.00  0.00    -0.302 N 
ATOM      3  C   UNL     1      35.386 -20.899 -19.920  0.00  0.00    +0.063 C 
ATOM      4  C   UNL     1      34.092 -20.623 -20.355  0.00  0.00    +0.060 C 
ATOM      5  C   UNL     1      35.368 -19.347 -21.497  0.00  0.00    +0.225 C 
ATOM      6  C   UNL     1      35.677 -21.839 -18.930  0.00  0.00    +0.053 C 
ATOM      7  C   UNL     1      34.592 -22.520 -18.370  0.00  0.00    +0.147 C 
ATOM      8  C   UNL     1      33.013 -21.316 -19.780  0.00  0.00    +0.019 C 
ATOM      9  C   UNL     1      33.283 -22.265 -18.785  0.00  0.00    +0.039 C 
ATOM     10  H   UNL     1      37.161 -20.004 -20.616  0.00  0.00    +0.150 HD
ATOM     11  H   UNL     1      33.326 -19.279 -21.811  0.00  0.00    +0.150 HD
ENDROOT
BRANCH   5  12
ATOM     12  N   UNL     1      35.939 -18.455 -22.335  0.00  0.00    -0.303 N 
ATOM     13  H   UNL     1      36.920 -18.404 -22.280  0.00  0.00    +0.150 HD
BRANCH  12  15
ATOM     14 CL   UNL     1      33.479 -14.829 -26.326  0.00  0.00    -0.082 Cl
ATOM     15  C   UNL     1      35.347 -17.576 -23.287  0.00  0.00    +0.047 C 
ATOM     16  C   UNL     1      35.030 -16.278 -22.915  0.00  0.00    +0.019 C 
ATOM     17  C   UNL     1      34.451 -15.417 -23.848  0.00  0.00    +0.083 C 
ATOM     18  C   UNL     1      35.096 -18.032 -24.574  0.00  0.00    +0.015 C 
ATOM     19  C   UNL     1      34.194 -15.865 -25.145  0.00  0.00    +0.062 C 
ATOM     20  C   UNL     1      34.516 -17.172 -25.507  0.00  0.00    +0.013 C 
BRANCH  17  24
ATOM     21  F   UNL     1      34.594 -13.098 -24.288  0.00  0.00    -0.166 F 
ATOM     22  F   UNL     1      32.785 -13.818 -23.320  0.00  0.00    -0.166 F 
ATOM     23  F   UNL     1      34.658 -13.747 -22.207  0.00  0.00    -0.166 F 
ATOM     24  C   UNL     1      34.121 -14.024 -23.419  0.00  0.00    +0.419 C 
ENDBRANCH  17  24
ENDBRANCH  12  15
ENDBRANCH   5  12
BRANCH   7  25
ATOM     25  O   UNL     1      34.818 -23.450 -17.398  0.00  0.00    -0.453 OA
BRANCH  25  27
ATOM     26  N   UNL     1      32.064 -23.700 -14.296  0.00  0.00    -0.239 NA
ATOM     27  C   UNL     1      33.901 -23.533 -16.365  0.00  0.00    +0.149 C 
ATOM     28  C   UNL     1      32.555 -23.592 -16.661  0.00  0.00    +0.061 C 
ATOM     29  C   UNL     1      34.352 -23.557 -15.063  0.00  0.00    +0.058 C 
ATOM     30  C   UNL     1      31.678 -23.675 -15.592  0.00  0.00    +0.137 C 
ATOM     31  C   UNL     1      33.395 -23.641 -14.064  0.00  0.00    +0.102 C 
BRANCH  30  34
ATOM     32  O   UNL     1      29.527 -24.491 -15.139  0.00  0.00    -0.268 OA
ATOM     33  N   UNL     1      29.723 -22.909 -16.822  0.00  0.00    -0.298 N 
ATOM     34  C   UNL     1      30.245 -23.740 -15.823  0.00  0.00    +0.264 C 
ATOM     35  C   UNL     1      28.318 -22.843 -17.155  0.00  0.00    +0.111 C 
ATOM     36  H   UNL     1      30.348 -22.339 -17.326  0.00  0.00    +0.150 HD
ENDBRANCH  30  34
ENDBRANCH  25  27
ENDBRANCH   7  25
TORSDOF 6
ENDMDL
