MODEL 1
REMARK VINA RESULT:     -13.2      0.000      0.000
REMARK  Name = 12136798
REMARK  7 active torsions:
REMARK  status: ('A' for Active; 'I' for Inactive)
REMARK    1  A    between atoms: C_1  and  C_21
REMARK    2  A    between atoms: C_2  and  C_9
REMARK    3  A    between atoms: N_8  and  C_12
REMARK    4  A    between atoms: C_13  and  N_18
REMARK    5  A    between atoms: C_21  and  N_23
REMARK    6  A    between atoms: C_24  and  C_26
REMARK    7  A    between atoms: C_27  and  C_29
REMARK                            x       y       z     vdW  Elec       q    Type
REMARK                         _______ _______ _______ _____ _____    ______ ____
ROOT
ATOM      1  C   UNL     1      35.348 -20.027 -20.939  0.00  0.00    -0.003 C 
ATOM      2  C   UNL     1      34.232 -21.971 -19.296  0.00  0.00    +0.054 C 
ATOM      3  C   UNL     1      36.178 -20.891 -20.235  0.00  0.00    -0.002 C 
ATOM      4  C   UNL     1      33.966 -20.124 -20.830  0.00  0.00    -0.002 C 
ATOM      5  C   UNL     1      35.618 -21.868 -19.411  0.00  0.00    +0.004 C 
ATOM      6  C   UNL     1      33.406 -21.100 -20.006  0.00  0.00    +0.004 C 
ENDROOT
BRANCH   2   9
ATOM      7  O   UNL     1      33.677 -24.175 -18.798  0.00  0.00    -0.270 OA
ATOM      8  N   UNL     1      33.109 -22.528 -17.226  0.00  0.00    -0.279 N 
ATOM      9  C   UNL     1      33.647 -22.988 -18.435  0.00  0.00    +0.250 C 
ATOM     10  H   UNL     1      33.159 -21.556 -17.077  0.00  0.00    +0.155 HD
BRANCH   8  12
ATOM     11  F   UNL     1      30.810 -25.472 -13.151  0.00  0.00    -0.204 F 
ATOM     12  C   UNL     1      32.502 -23.279 -16.189  0.00  0.00    +0.064 C 
ATOM     13  C   UNL     1      31.124 -23.398 -16.125  0.00  0.00    +0.057 C 
ATOM     14  C   UNL     1      33.322 -23.882 -15.249  0.00  0.00    +0.018 C 
ATOM     15  C   UNL     1      30.549 -24.143 -15.095  0.00  0.00    +0.045 C 
ATOM     16  C   UNL     1      32.748 -24.627 -14.219  0.00  0.00    +0.031 C 
ATOM     17  C   UNL     1      31.361 -24.756 -14.141  0.00  0.00    +0.141 C 
BRANCH  13  18
ATOM     18  N   UNL     1      30.282 -22.786 -17.080  0.00  0.00    -0.356 N 
ATOM     19  H   UNL     1      29.899 -23.320 -17.813  0.00  0.00    +0.142 HD
ATOM     20  H   UNL     1      30.076 -21.825 -17.012  0.00  0.00    +0.142 HD
ENDBRANCH  13  18
ENDBRANCH   8  12
ENDBRANCH   2   9
BRANCH   1  21
ATOM     21  C   UNL     1      35.951 -18.976 -21.826  0.00  0.00    +0.117 C 
BRANCH  21  23
ATOM     22  O   UNL     1      35.270 -16.982 -23.815  0.00  0.00    -0.270 OA
ATOM     23  N   UNL     1      35.366 -17.674 -21.598  0.00  0.00    -0.297 N 
ATOM     24  C   UNL     1      35.075 -16.786 -22.620  0.00  0.00    +0.246 C 
ATOM     25  H   UNL     1      35.165 -17.406 -20.672  0.00  0.00    +0.150 HD
BRANCH  24  26
ATOM     26  C   UNL     1      34.481 -15.521 -22.102  0.00  0.00    +0.058 C 
ATOM     27  C   UNL     1      33.742 -14.748 -22.912  0.00  0.00    +0.006 C 
BRANCH  27  29
ATOM     28  N   UNL     1      32.615 -11.188 -22.996  0.00  0.00    -0.242 NA
ATOM     29  C   UNL     1      33.100 -13.485 -22.505  0.00  0.00    +0.019 C 
ATOM     30  C   UNL     1      32.410 -13.410 -21.313  0.00  0.00    +0.003 C 
ATOM     31  C   UNL     1      33.182 -12.376 -23.310  0.00  0.00    +0.099 C 
ATOM     32  C   UNL     1      31.813 -12.206 -20.955  0.00  0.00    +0.021 C 
ATOM     33  C   UNL     1      31.944 -11.135 -21.824  0.00  0.00    +0.099 C 
ENDBRANCH  27  29
ENDBRANCH  24  26
ENDBRANCH  21  23
ENDBRANCH   1  21
TORSDOF 7
ENDMDL
MODEL 2
REMARK VINA RESULT:     -13.0      5.048     12.329
REMARK  Name = 12136798
REMARK  7 active torsions:
REMARK  status: ('A' for Active; 'I' for Inactive)
REMARK    1  A    between atoms: C_1  and  C_21
REMARK    2  A    between atoms: C_2  and  C_9
REMARK    3  A    between atoms: N_8  and  C_12
REMARK    4  A    between atoms: C_13  and  N_18
REMARK    5  A    between atoms: C_21  and  N_23
REMARK    6  A    between atoms: C_24  and  C_26
REMARK    7  A    between atoms: C_27  and  C_29
REMARK                            x       y       z     vdW  Elec       q    Type
REMARK                         _______ _______ _______ _____ _____    ______ ____
ROOT
ATOM      1  C   UNL     1      34.092 -14.418 -23.161  0.00  0.00    -0.003 C 
ATOM      2  C   UNL     1      32.634 -12.150 -22.483  0.00  0.00    +0.054 C 
ATOM      3  C   UNL     1      33.298 -14.426 -22.021  0.00  0.00    -0.002 C 
ATOM      4  C   UNL     1      34.166 -13.288 -23.966  0.00  0.00    -0.002 C 
ATOM      5  C   UNL     1      32.565 -13.289 -21.681  0.00  0.00    +0.004 C 
ATOM      6  C   UNL     1      33.435 -12.149 -23.626  0.00  0.00    +0.004 C 
ENDROOT
BRANCH   2   9
ATOM      7  O   UNL     1      30.750 -11.097 -21.617  0.00  0.00    -0.270 OA
ATOM      8  N   UNL     1      32.503  -9.736 -22.378  0.00  0.00    -0.279 N 
ATOM      9  C   UNL     1      31.873 -10.962 -22.128  0.00  0.00    +0.250 C 
ATOM     10  H   UNL     1      33.397  -9.789 -22.788  0.00  0.00    +0.155 HD
BRANCH   8  12
ATOM     11  F   UNL     1      30.597  -4.635 -21.432  0.00  0.00    -0.204 F 
ATOM     12  C   UNL     1      32.023  -8.428 -22.117  0.00  0.00    +0.064 C 
ATOM     13  C   UNL     1      32.269  -7.822 -20.897  0.00  0.00    +0.057 C 
ATOM     14  C   UNL     1      31.304  -7.783 -23.111  0.00  0.00    +0.018 C 
ATOM     15  C   UNL     1      31.785  -6.534 -20.664  0.00  0.00    +0.045 C 
ATOM     16  C   UNL     1      30.822  -6.496 -22.878  0.00  0.00    +0.031 C 
ATOM     17  C   UNL     1      31.061  -5.871 -21.655  0.00  0.00    +0.141 C 
BRANCH  13  18
ATOM     18  N   UNL     1      32.999  -8.474 -19.879  0.00  0.00    -0.356 N 
ATOM     19  H   UNL     1      33.762  -8.021 -19.454  0.00  0.00    +0.142 HD
ATOM     20  H   UNL     1      32.745  -9.382 -19.594  0.00  0.00    +0.142 HD
ENDBRANCH  13  18
ENDBRANCH   8  12
ENDBRANCH   2   9
BRANCH   1  21
ATOM     21  C   UNL     1      34.879 -15.643 -23.527  0.00  0.00    +0.117 C 
BRANCH  21  23
ATOM     22  O   UNL     1      35.979 -18.321 -23.617  0.00  0.00    -0.270 OA
ATOM     23  N   UNL     1      34.862 -16.633 -22.475  0.00  0.00    -0.297 N 
ATOM     24  C   UNL     1      35.418 -17.894 -22.614  0.00  0.00    +0.246 C 
ATOM     25  H   UNL     1      34.435 -16.400 -21.618  0.00  0.00    +0.150 HD
BRANCH  24  26
ATOM     26  C   UNL     1      35.258 -18.709 -21.376  0.00  0.00    +0.058 C 
ATOM     27  C   UNL     1      34.877 -19.992 -21.465  0.00  0.00    +0.006 C 
BRANCH  27  29
ATOM     28  N   UNL     1      35.696 -22.175 -18.547  0.00  0.00    -0.242 NA
ATOM     29  C   UNL     1      34.699 -20.893 -20.312  0.00  0.00    +0.019 C 
ATOM     30  C   UNL     1      33.434 -21.283 -19.924  0.00  0.00    +0.003 C 
ATOM     31  C   UNL     1      35.790 -21.348 -19.613  0.00  0.00    +0.099 C 
ATOM     32  C   UNL     1      33.296 -22.133 -18.832  0.00  0.00    +0.021 C 
ATOM     33  C   UNL     1      34.448 -22.546 -18.183  0.00  0.00    +0.099 C 
ENDBRANCH  27  29
ENDBRANCH  24  26
ENDBRANCH  21  23
ENDBRANCH   1  21
TORSDOF 7
ENDMDL
MODEL 3
REMARK VINA RESULT:     -12.8      2.076      2.660
REMARK  Name = 12136798
REMARK  7 active torsions:
REMARK  status: ('A' for Active; 'I' for Inactive)
REMARK    1  A    between atoms: C_1  and  C_21
REMARK    2  A    between atoms: C_2  and  C_9
REMARK    3  A    between atoms: N_8  and  C_12
REMARK    4  A    between atoms: C_13  and  N_18
REMARK    5  A    between atoms: C_21  and  N_23
REMARK    6  A    between atoms: C_24  and  C_26
REMARK    7  A    between atoms: C_27  and  C_29
REMARK                            x       y       z     vdW  Elec       q    Type
REMARK                         _______ _______ _______ _____ _____    ______ ____
ROOT
ATOM      1  C   UNL     1      36.139 -20.334 -20.267  0.00  0.00    -0.003 C 
ATOM      2  C   UNL     1      34.451 -22.157 -19.020  0.00  0.00    +0.054 C 
ATOM      3  C   UNL     1      36.638 -21.162 -19.269  0.00  0.00    -0.002 C 
ATOM      4  C   UNL     1      34.805 -20.407 -20.648  0.00  0.00    -0.002 C 
ATOM      5  C   UNL     1      35.792 -22.077 -18.643  0.00  0.00    +0.004 C 
ATOM      6  C   UNL     1      33.957 -21.322 -20.022  0.00  0.00    +0.004 C 
ENDROOT
BRANCH   2   9
ATOM      7  O   UNL     1      33.586 -24.296 -18.729  0.00  0.00    -0.270 OA
ATOM      8  N   UNL     1      32.768 -22.594 -17.337  0.00  0.00    -0.279 N 
ATOM      9  C   UNL     1      33.567 -23.109 -18.366  0.00  0.00    +0.250 C 
ATOM     10  H   UNL     1      32.864 -21.629 -17.162  0.00  0.00    +0.155 HD
BRANCH   8  12
ATOM     11  F   UNL     1      29.088 -25.240 -14.174  0.00  0.00    -0.204 F 
ATOM     12  C   UNL     1      31.839 -23.278 -16.514  0.00  0.00    +0.064 C 
ATOM     13  C   UNL     1      32.275 -23.993 -15.411  0.00  0.00    +0.057 C 
ATOM     14  C   UNL     1      30.495 -23.213 -16.846  0.00  0.00    +0.018 C 
ATOM     15  C   UNL     1      31.341 -24.658 -14.616  0.00  0.00    +0.045 C 
ATOM     16  C   UNL     1      29.562 -23.878 -16.052  0.00  0.00    +0.031 C 
ATOM     17  C   UNL     1      29.985 -24.602 -14.937  0.00  0.00    +0.141 C 
BRANCH  13  18
ATOM     18  N   UNL     1      33.642 -24.064 -15.067  0.00  0.00    -0.356 N 
ATOM     19  H   UNL     1      34.021 -23.426 -14.420  0.00  0.00    +0.142 HD
ATOM     20  H   UNL     1      34.218 -24.752 -15.473  0.00  0.00    +0.142 HD
ENDBRANCH  13  18
ENDBRANCH   8  12
ENDBRANCH   2   9
BRANCH   1  21
ATOM     21  C   UNL     1      37.050 -19.350 -20.942  0.00  0.00    +0.117 C 
BRANCH  21  23
ATOM     22  O   UNL     1      35.404 -16.978 -20.706  0.00  0.00    -0.270 OA
ATOM     23  N   UNL     1      36.383 -18.636 -22.008  0.00  0.00    -0.297 N 
ATOM     24  C   UNL     1      35.614 -17.505 -21.793  0.00  0.00    +0.246 C 
ATOM     25  H   UNL     1      36.480 -18.970 -22.929  0.00  0.00    +0.150 HD
BRANCH  24  26
ATOM     26  C   UNL     1      35.044 -16.974 -23.064  0.00  0.00    +0.058 C 
ATOM     27  C   UNL     1      34.861 -15.654 -23.215  0.00  0.00    +0.006 C 
BRANCH  27  29
ATOM     28  N   UNL     1      33.598 -15.246 -26.707  0.00  0.00    -0.242 NA
ATOM     29  C   UNL     1      34.317 -15.019 -24.430  0.00  0.00    +0.019 C 
ATOM     30  C   UNL     1      34.025 -13.671 -24.438  0.00  0.00    +0.003 C 
ATOM     31  C   UNL     1      34.095 -15.766 -25.561  0.00  0.00    +0.099 C 
ATOM     32  C   UNL     1      33.512 -13.100 -25.597  0.00  0.00    +0.021 C 
ATOM     33  C   UNL     1      33.319 -13.923 -26.694  0.00  0.00    +0.099 C 
ENDBRANCH  27  29
ENDBRANCH  24  26
ENDBRANCH  21  23
ENDBRANCH   1  21
TORSDOF 7
ENDMDL
MODEL 4
REMARK VINA RESULT:     -12.7      4.114     11.063
REMARK  Name = 12136798
REMARK  7 active torsions:
REMARK  status: ('A' for Active; 'I' for Inactive)
REMARK    1  A    between atoms: C_1  and  C_21
REMARK    2  A    between atoms: C_2  and  C_9
REMARK    3  A    between atoms: N_8  and  C_12
REMARK    4  A    between atoms: C_13  and  N_18
REMARK    5  A    between atoms: C_21  and  N_23
REMARK    6  A    between atoms: C_24  and  C_26
REMARK    7  A    between atoms: C_27  and  C_29
REMARK                            x       y       z     vdW  Elec       q    Type
REMARK                         _______ _______ _______ _____ _____    ______ ____
ROOT
ATOM      1  C   UNL     1      36.070 -20.418 -20.367  0.00  0.00    -0.003 C 
ATOM      2  C   UNL     1      35.355 -18.811 -22.520  0.00  0.00    +0.054 C 
ATOM      3  C   UNL     1      36.994 -19.525 -20.896  0.00  0.00    -0.002 C 
ATOM      4  C   UNL     1      34.792 -20.516 -20.904  0.00  0.00    -0.002 C 
ATOM      5  C   UNL     1      36.636 -18.718 -21.976  0.00  0.00    +0.004 C 
ATOM      6  C   UNL     1      34.432 -19.710 -21.984  0.00  0.00    +0.004 C 
ENDROOT
BRANCH   2   9
ATOM      7  O   UNL     1      34.945 -18.468 -24.784  0.00  0.00    -0.270 OA
ATOM      8  N   UNL     1      34.659 -16.642 -23.339  0.00  0.00    -0.279 N 
ATOM      9  C   UNL     1      34.980 -17.971 -23.647  0.00  0.00    +0.250 C 
ATOM     10  H   UNL     1      34.734 -16.393 -22.389  0.00  0.00    +0.155 HD
BRANCH   8  12
ATOM     11  F   UNL     1      33.016 -12.667 -26.810  0.00  0.00    -0.204 F 
ATOM     12  C   UNL     1      34.241 -15.610 -24.214  0.00  0.00    +0.064 C 
ATOM     13  C   UNL     1      34.214 -14.294 -23.783  0.00  0.00    +0.057 C 
ATOM     14  C   UNL     1      33.863 -15.955 -25.502  0.00  0.00    +0.018 C 
ATOM     15  C   UNL     1      33.798 -13.295 -24.664  0.00  0.00    +0.045 C 
ATOM     16  C   UNL     1      33.448 -14.956 -26.383  0.00  0.00    +0.031 C 
ATOM     17  C   UNL     1      33.415 -13.626 -25.964  0.00  0.00    +0.141 C 
BRANCH  13  18
ATOM     18  N   UNL     1      34.597 -13.936 -22.472  0.00  0.00    -0.356 N 
ATOM     19  H   UNL     1      34.453 -13.016 -22.152  0.00  0.00    +0.142 HD
ATOM     20  H   UNL     1      35.008 -14.605 -21.878  0.00  0.00    +0.142 HD
ENDBRANCH  13  18
ENDBRANCH   8  12
ENDBRANCH   2   9
BRANCH   1  21
ATOM     21  C   UNL     1      36.455 -21.286 -19.205  0.00  0.00    +0.117 C 
BRANCH  21  23
ATOM     22  O   UNL     1      36.378 -22.794 -16.732  0.00  0.00    -0.270 OA
ATOM     23  N   UNL     1      35.308 -21.931 -18.606  0.00  0.00    -0.297 N 
ATOM     24  C   UNL     1      35.372 -22.633 -17.414  0.00  0.00    +0.246 C 
ATOM     25  H   UNL     1      34.440 -21.868 -19.068  0.00  0.00    +0.150 HD
BRANCH  24  26
ATOM     26  C   UNL     1      34.045 -23.194 -17.031  0.00  0.00    +0.058 C 
ATOM     27  C   UNL     1      33.744 -23.374 -15.736  0.00  0.00    +0.006 C 
BRANCH  27  29
ATOM     28  N   UNL     1      31.252 -25.035 -13.505  0.00  0.00    -0.242 NA
ATOM     29  C   UNL     1      32.463 -23.910 -15.243  0.00  0.00    +0.019 C 
ATOM     30  C   UNL     1      31.322 -23.797 -16.010  0.00  0.00    +0.003 C 
ATOM     31  C   UNL     1      32.395 -24.523 -14.016  0.00  0.00    +0.099 C 
ATOM     32  C   UNL     1      30.127 -24.312 -15.519  0.00  0.00    +0.021 C 
ATOM     33  C   UNL     1      30.145 -24.916 -14.272  0.00  0.00    +0.099 C 
ENDBRANCH  27  29
ENDBRANCH  24  26
ENDBRANCH  21  23
ENDBRANCH   1  21
TORSDOF 7
ENDMDL
MODEL 5
REMARK VINA RESULT:     -12.5      5.156     12.130
REMARK  Name = 12136798
REMARK  7 active torsions:
REMARK  status: ('A' for Active; 'I' for Inactive)
REMARK    1  A    between atoms: C_1  and  C_21
REMARK    2  A    between atoms: C_2  and  C_9
REMARK    3  A    between atoms: N_8  and  C_12
REMARK    4  A    between atoms: C_13  and  N_18
REMARK    5  A    between atoms: C_21  and  N_23
REMARK    6  A    between atoms: C_24  and  C_26
REMARK    7  A    between atoms: C_27  and  C_29
REMARK                            x       y       z     vdW  Elec       q    Type
REMARK                         _______ _______ _______ _____ _____    ______ ____
ROOT
ATOM      1  C   UNL     1      34.201 -14.354 -23.744  0.00  0.00    -0.003 C 
ATOM      2  C   UNL     1      32.776 -12.193 -22.731  0.00  0.00    +0.054 C 
ATOM      3  C   UNL     1      33.460 -14.504 -22.578  0.00  0.00    -0.002 C 
ATOM      4  C   UNL     1      34.238 -13.134 -24.409  0.00  0.00    -0.002 C 
ATOM      5  C   UNL     1      32.745 -13.420 -22.069  0.00  0.00    +0.004 C 
ATOM      6  C   UNL     1      33.522 -12.050 -23.901  0.00  0.00    +0.004 C 
ENDROOT
BRANCH   2   9
ATOM      7  O   UNL     1      30.953 -11.267 -21.623  0.00  0.00    -0.270 OA
ATOM      8  N   UNL     1      32.628  -9.804 -22.371  0.00  0.00    -0.279 N 
ATOM      9  C   UNL     1      32.032 -11.061 -22.201  0.00  0.00    +0.250 C 
ATOM     10  H   UNL     1      33.488  -9.799 -22.851  0.00  0.00    +0.155 HD
BRANCH   8  12
ATOM     11  F   UNL     1      30.813  -4.881 -20.633  0.00  0.00    -0.204 F 
ATOM     12  C   UNL     1      32.155  -8.538 -21.944  0.00  0.00    +0.064 C 
ATOM     13  C   UNL     1      31.499  -7.700 -22.830  0.00  0.00    +0.057 C 
ATOM     14  C   UNL     1      32.370  -8.169 -20.625  0.00  0.00    +0.018 C 
ATOM     15  C   UNL     1      31.043  -6.459 -22.385  0.00  0.00    +0.045 C 
ATOM     16  C   UNL     1      31.914  -6.928 -20.181  0.00  0.00    +0.031 C 
ATOM     17  C   UNL     1      31.251  -6.073 -21.061  0.00  0.00    +0.141 C 
BRANCH  13  18
ATOM     18  N   UNL     1      31.277  -8.070 -24.174  0.00  0.00    -0.356 N 
ATOM     19  H   UNL     1      31.992  -7.952 -24.841  0.00  0.00    +0.142 HD
ATOM     20  H   UNL     1      30.409  -8.447 -24.445  0.00  0.00    +0.142 HD
ENDBRANCH  13  18
ENDBRANCH   8  12
ENDBRANCH   2   9
BRANCH   1  21
ATOM     21  C   UNL     1      34.971 -15.521 -24.292  0.00  0.00    +0.117 C 
BRANCH  21  23
ATOM     22  O   UNL     1      34.880 -18.204 -25.381  0.00  0.00    -0.270 OA
ATOM     23  N   UNL     1      34.676 -16.746 -23.582  0.00  0.00    -0.297 N 
ATOM     24  C   UNL     1      34.657 -17.988 -24.194  0.00  0.00    +0.246 C 
ATOM     25  H   UNL     1      34.479 -16.694 -22.619  0.00  0.00    +0.150 HD
BRANCH  24  26
ATOM     26  C   UNL     1      34.324 -19.075 -23.230  0.00  0.00    +0.058 C 
ATOM     27  C   UNL     1      34.942 -19.127 -22.041  0.00  0.00    +0.006 C 
BRANCH  27  29
ATOM     28  N   UNL     1      33.090 -21.385 -19.712  0.00  0.00    -0.242 NA
ATOM     29  C   UNL     1      34.684 -20.148 -21.010  0.00  0.00    +0.019 C 
ATOM     30  C   UNL     1      35.735 -20.800 -20.400  0.00  0.00    +0.003 C 
ATOM     31  C   UNL     1      33.396 -20.459 -20.650  0.00  0.00    +0.099 C 
ATOM     32  C   UNL     1      35.462 -21.759 -19.430  0.00  0.00    +0.021 C 
ATOM     33  C   UNL     1      34.135 -22.012 -19.126  0.00  0.00    +0.099 C 
ENDBRANCH  27  29
ENDBRANCH  24  26
ENDBRANCH  21  23
ENDBRANCH   1  21
TORSDOF 7
ENDMDL
MODEL 6
REMARK VINA RESULT:     -12.3      2.289      3.096
REMARK  Name = 12136798
REMARK  7 active torsions:
REMARK  status: ('A' for Active; 'I' for Inactive)
REMARK    1  A    between atoms: C_1  and  C_21
REMARK    2  A    between atoms: C_2  and  C_9
REMARK    3  A    between atoms: N_8  and  C_12
REMARK    4  A    between atoms: C_13  and  N_18
REMARK    5  A    between atoms: C_21  and  N_23
REMARK    6  A    between atoms: C_24  and  C_26
REMARK    7  A    between atoms: C_27  and  C_29
REMARK                            x       y       z     vdW  Elec       q    Type
REMARK                         _______ _______ _______ _____ _____    ______ ____
ROOT
ATOM      1  C   UNL     1      34.923 -20.569 -20.888  0.00  0.00    -0.003 C 
ATOM      2  C   UNL     1      34.722 -22.178 -18.631  0.00  0.00    +0.054 C 
ATOM      3  C   UNL     1      33.669 -20.920 -20.403  0.00  0.00    -0.002 C 
ATOM      4  C   UNL     1      36.078 -21.015 -20.257  0.00  0.00    -0.002 C 
ATOM      5  C   UNL     1      33.568 -21.727 -19.270  0.00  0.00    +0.004 C 
ATOM      6  C   UNL     1      35.977 -21.822 -19.124  0.00  0.00    +0.004 C 
ENDROOT
BRANCH   2   9
ATOM      7  O   UNL     1      33.735 -23.894 -17.408  0.00  0.00    -0.270 OA
ATOM      8  N   UNL     1      35.565 -22.785 -16.444  0.00  0.00    -0.279 N 
ATOM      9  C   UNL     1      34.617 -23.021 -17.450  0.00  0.00    +0.250 C 
ATOM     10  H   UNL     1      36.204 -22.057 -16.621  0.00  0.00    +0.155 HD
BRANCH   8  12
ATOM     11  F   UNL     1      36.109 -25.391 -11.601  0.00  0.00    -0.204 F 
ATOM     12  C   UNL     1      35.723 -23.456 -15.207  0.00  0.00    +0.064 C 
ATOM     13  C   UNL     1      36.951 -23.990 -14.852  0.00  0.00    +0.057 C 
ATOM     14  C   UNL     1      34.622 -23.563 -14.372  0.00  0.00    +0.018 C 
ATOM     15  C   UNL     1      37.082 -24.646 -13.628  0.00  0.00    +0.045 C 
ATOM     16  C   UNL     1      34.754 -24.219 -13.149  0.00  0.00    +0.031 C 
ATOM     17  C   UNL     1      35.983 -24.761 -12.776  0.00  0.00    +0.141 C 
BRANCH  13  18
ATOM     18  N   UNL     1      38.077 -23.885 -15.698  0.00  0.00    -0.356 N 
ATOM     19  H   UNL     1      38.228 -24.558 -16.400  0.00  0.00    +0.142 HD
ATOM     20  H   UNL     1      38.710 -23.139 -15.586  0.00  0.00    +0.142 HD
ENDBRANCH  13  18
ENDBRANCH   8  12
ENDBRANCH   2   9
BRANCH   1  21
ATOM     21  C   UNL     1      35.033 -19.700 -22.108  0.00  0.00    +0.117 C 
BRANCH  21  23
ATOM     22  O   UNL     1      36.393 -17.613 -20.629  0.00  0.00    -0.270 OA
ATOM     23  N   UNL     1      34.565 -18.354 -21.858  0.00  0.00    -0.297 N 
ATOM     24  C   UNL     1      35.293 -17.424 -21.136  0.00  0.00    +0.246 C 
ATOM     25  H   UNL     1      33.689 -18.088 -22.219  0.00  0.00    +0.150 HD
BRANCH  24  26
ATOM     26  C   UNL     1      34.576 -16.121 -21.032  0.00  0.00    +0.058 C 
ATOM     27  C   UNL     1      34.214 -15.465 -22.145  0.00  0.00    +0.006 C 
BRANCH  27  29
ATOM     28  N   UNL     1      33.044 -12.103 -23.273  0.00  0.00    -0.242 NA
ATOM     29  C   UNL     1      33.494 -14.179 -22.160  0.00  0.00    +0.019 C 
ATOM     30  C   UNL     1      32.634 -13.852 -21.133  0.00  0.00    +0.003 C 
ATOM     31  C   UNL     1      33.674 -13.298 -23.198  0.00  0.00    +0.099 C 
ATOM     32  C   UNL     1      31.969 -12.632 -21.174  0.00  0.00    +0.021 C 
ATOM     33  C   UNL     1      32.205 -11.801 -22.257  0.00  0.00    +0.099 C 
ENDBRANCH  27  29
ENDBRANCH  24  26
ENDBRANCH  21  23
ENDBRANCH   1  21
TORSDOF 7
ENDMDL
MODEL 7
REMARK VINA RESULT:     -12.1      2.654      3.791
REMARK  Name = 12136798
REMARK  7 active torsions:
REMARK  status: ('A' for Active; 'I' for Inactive)
REMARK    1  A    between atoms: C_1  and  C_21
REMARK    2  A    between atoms: C_2  and  C_9
REMARK    3  A    between atoms: N_8  and  C_12
REMARK    4  A    between atoms: C_13  and  N_18
REMARK    5  A    between atoms: C_21  and  N_23
REMARK    6  A    between atoms: C_24  and  C_26
REMARK    7  A    between atoms: C_27  and  C_29
REMARK                            x       y       z     vdW  Elec       q    Type
REMARK                         _______ _______ _______ _____ _____    ______ ____
ROOT
ATOM      1  C   UNL     1      34.917 -17.830 -23.956  0.00  0.00    -0.003 C 
ATOM      2  C   UNL     1      35.672 -19.299 -21.720  0.00  0.00    +0.054 C 
ATOM      3  C   UNL     1      34.904 -19.219 -24.009  0.00  0.00    -0.002 C 
ATOM      4  C   UNL     1      35.304 -17.168 -22.797  0.00  0.00    -0.002 C 
ATOM      5  C   UNL     1      35.282 -19.957 -22.887  0.00  0.00    +0.004 C 
ATOM      6  C   UNL     1      35.682 -17.905 -21.675  0.00  0.00    +0.004 C 
ENDROOT
BRANCH   2   9
ATOM      7  O   UNL     1      37.229 -19.961 -20.124  0.00  0.00    -0.270 OA
ATOM      8  N   UNL     1      35.069 -20.864 -19.975  0.00  0.00    -0.279 N 
ATOM      9  C   UNL     1      36.068 -20.068 -20.550  0.00  0.00    +0.250 C 
ATOM     10  H   UNL     1      34.194 -20.845 -20.426  0.00  0.00    +0.155 HD
BRANCH   8  12
ATOM     11  F   UNL     1      35.467 -24.076 -15.494  0.00  0.00    -0.204 F 
ATOM     12  C   UNL     1      35.152 -21.693 -18.829  0.00  0.00    +0.064 C 
ATOM     13  C   UNL     1      34.058 -22.438 -18.423  0.00  0.00    +0.057 C 
ATOM     14  C   UNL     1      36.350 -21.733 -18.133  0.00  0.00    +0.018 C 
ATOM     15  C   UNL     1      34.164 -23.248 -17.291  0.00  0.00    +0.045 C 
ATOM     16  C   UNL     1      36.456 -22.542 -17.003  0.00  0.00    +0.031 C 
ATOM     17  C   UNL     1      35.364 -23.299 -16.581  0.00  0.00    +0.141 C 
BRANCH  13  18
ATOM     18  N   UNL     1      32.834 -22.402 -19.127  0.00  0.00    -0.356 N 
ATOM     19  H   UNL     1      32.830 -22.458 -20.110  0.00  0.00    +0.142 HD
ATOM     20  H   UNL     1      31.985 -22.322 -18.635  0.00  0.00    +0.142 HD
ENDBRANCH  13  18
ENDBRANCH   8  12
ENDBRANCH   2   9
BRANCH   1  21
ATOM     21  C   UNL     1      34.509 -17.036 -25.163  0.00  0.00    +0.117 C 
BRANCH  21  23
ATOM     22  O   UNL     1      33.846 -14.872 -26.972  0.00  0.00    -0.270 OA
ATOM     23  N   UNL     1      34.073 -15.703 -24.813  0.00  0.00    -0.297 N 
ATOM     24  C   UNL     1      33.777 -14.733 -25.755  0.00  0.00    +0.246 C 
ATOM     25  H   UNL     1      33.981 -15.475 -23.859  0.00  0.00    +0.150 HD
BRANCH  24  26
ATOM     26  C   UNL     1      33.354 -13.453 -25.118  0.00  0.00    +0.058 C 
ATOM     27  C   UNL     1      33.115 -13.410 -23.799  0.00  0.00    +0.006 C 
BRANCH  27  29
ATOM     28  N   UNL     1      32.722  -9.808 -22.892  0.00  0.00    -0.242 NA
ATOM     29  C   UNL     1      32.703 -12.200 -23.064  0.00  0.00    +0.019 C 
ATOM     30  C   UNL     1      31.947 -12.309 -21.916  0.00  0.00    +0.003 C 
ATOM     31  C   UNL     1      33.068 -10.956 -23.518  0.00  0.00    +0.099 C 
ATOM     32  C   UNL     1      31.572 -11.151 -21.244  0.00  0.00    +0.021 C 
ATOM     33  C   UNL     1      31.982  -9.936 -21.769  0.00  0.00    +0.099 C 
ENDBRANCH  27  29
ENDBRANCH  24  26
ENDBRANCH  21  23
ENDBRANCH   1  21
TORSDOF 7
ENDMDL
MODEL 8
REMARK VINA RESULT:     -12.0      5.362     12.234
REMARK  Name = 12136798
REMARK  7 active torsions:
REMARK  status: ('A' for Active; 'I' for Inactive)
REMARK    1  A    between atoms: C_1  and  C_21
REMARK    2  A    between atoms: C_2  and  C_9
REMARK    3  A    between atoms: N_8  and  C_12
REMARK    4  A    between atoms: C_13  and  N_18
REMARK    5  A    between atoms: C_21  and  N_23
REMARK    6  A    between atoms: C_24  and  C_26
REMARK    7  A    between atoms: C_27  and  C_29
REMARK                            x       y       z     vdW  Elec       q    Type
REMARK                         _______ _______ _______ _____ _____    ______ ____
ROOT
ATOM      1  C   UNL     1      34.419 -15.202 -24.690  0.00  0.00    -0.003 C 
ATOM      2  C   UNL     1      33.475 -12.847 -23.554  0.00  0.00    +0.054 C 
ATOM      3  C   UNL     1      33.776 -14.263 -25.488  0.00  0.00    -0.002 C 
ATOM      4  C   UNL     1      34.594 -14.977 -23.330  0.00  0.00    -0.002 C 
ATOM      5  C   UNL     1      33.303 -13.081 -24.919  0.00  0.00    +0.004 C 
ATOM      6  C   UNL     1      34.121 -13.795 -22.760  0.00  0.00    +0.004 C 
ENDROOT
BRANCH   2   9
ATOM      7  O   UNL     1      32.368 -11.671 -21.881  0.00  0.00    -0.270 OA
ATOM      8  N   UNL     1      33.268 -10.439 -23.663  0.00  0.00    -0.279 N 
ATOM      9  C   UNL     1      32.980 -11.615 -22.959  0.00  0.00    +0.250 C 
ATOM     10  H   UNL     1      33.763 -10.554 -24.506  0.00  0.00    +0.155 HD
BRANCH   8  12
ATOM     11  F   UNL     1      31.914  -5.253 -22.312  0.00  0.00    -0.204 F 
ATOM     12  C   UNL     1      32.939  -9.103 -23.321  0.00  0.00    +0.064 C 
ATOM     13  C   UNL     1      33.900  -8.108 -23.381  0.00  0.00    +0.057 C 
ATOM     14  C   UNL     1      31.639  -8.828 -22.926  0.00  0.00    +0.018 C 
ATOM     15  C   UNL     1      33.552  -6.801 -23.040  0.00  0.00    +0.045 C 
ATOM     16  C   UNL     1      31.292  -7.521 -22.584  0.00  0.00    +0.031 C 
ATOM     17  C   UNL     1      32.248  -6.508 -22.640  0.00  0.00    +0.141 C 
BRANCH  13  18
ATOM     18  N   UNL     1      35.226  -8.382 -23.783  0.00  0.00    -0.356 N 
ATOM     19  H   UNL     1      35.733  -9.104 -23.346  0.00  0.00    +0.142 HD
ATOM     20  H   UNL     1      35.644  -7.851 -24.499  0.00  0.00    +0.142 HD
ENDBRANCH  13  18
ENDBRANCH   8  12
ENDBRANCH   2   9
BRANCH   1  21
ATOM     21  C   UNL     1      34.929 -16.474 -25.303  0.00  0.00    +0.117 C 
BRANCH  21  23
ATOM     22  O   UNL     1      33.624 -19.015 -24.816  0.00  0.00    -0.270 OA
ATOM     23  N   UNL     1      35.272 -17.459 -24.301  0.00  0.00    -0.297 N 
ATOM     24  C   UNL     1      34.585 -18.650 -24.146  0.00  0.00    +0.246 C 
ATOM     25  H   UNL     1      36.031 -17.272 -23.702  0.00  0.00    +0.150 HD
BRANCH  24  26
ATOM     26  C   UNL     1      35.149 -19.475 -23.040  0.00  0.00    +0.058 C 
ATOM     27  C   UNL     1      34.456 -19.635 -21.903  0.00  0.00    +0.006 C 
BRANCH  27  29
ATOM     28  N   UNL     1      36.702 -21.080 -19.292  0.00  0.00    -0.242 NA
ATOM     29  C   UNL     1      34.911 -20.435 -20.752  0.00  0.00    +0.019 C 
ATOM     30  C   UNL     1      34.026 -21.251 -20.080  0.00  0.00    +0.003 C 
ATOM     31  C   UNL     1      36.220 -20.373 -20.340  0.00  0.00    +0.099 C 
ATOM     32  C   UNL     1      34.484 -21.995 -18.998  0.00  0.00    +0.021 C 
ATOM     33  C   UNL     1      35.818 -21.874 -18.647  0.00  0.00    +0.099 C 
ENDBRANCH  27  29
ENDBRANCH  24  26
ENDBRANCH  21  23
ENDBRANCH   1  21
TORSDOF 7
ENDMDL
MODEL 9
REMARK VINA RESULT:     -12.0      1.679      2.300
REMARK  Name = 12136798
REMARK  7 active torsions:
REMARK  status: ('A' for Active; 'I' for Inactive)
REMARK    1  A    between atoms: C_1  and  C_21
REMARK    2  A    between atoms: C_2  and  C_9
REMARK    3  A    between atoms: N_8  and  C_12
REMARK    4  A    between atoms: C_13  and  N_18
REMARK    5  A    between atoms: C_21  and  N_23
REMARK    6  A    between atoms: C_24  and  C_26
REMARK    7  A    between atoms: C_27  and  C_29
REMARK                            x       y       z     vdW  Elec       q    Type
REMARK                         _______ _______ _______ _____ _____    ______ ____
ROOT
ATOM      1  C   UNL     1      35.919 -20.255 -20.571  0.00  0.00    -0.003 C 
ATOM      2  C   UNL     1      34.429 -22.076 -19.092  0.00  0.00    +0.054 C 
ATOM      3  C   UNL     1      34.537 -20.285 -20.709  0.00  0.00    -0.002 C 
ATOM      4  C   UNL     1      36.565 -21.126 -19.702  0.00  0.00    -0.002 C 
ATOM      5  C   UNL     1      33.788 -21.198 -19.966  0.00  0.00    +0.004 C 
ATOM      6  C   UNL     1      35.817 -22.040 -18.959  0.00  0.00    +0.004 C 
ENDROOT
BRANCH   2   9
ATOM      7  O   UNL     1      33.452 -24.165 -18.783  0.00  0.00    -0.270 OA
ATOM      8  N   UNL     1      33.198 -22.581 -17.070  0.00  0.00    -0.279 N 
ATOM      9  C   UNL     1      33.649 -23.030 -18.318  0.00  0.00    +0.250 C 
ATOM     10  H   UNL     1      33.434 -21.654 -16.838  0.00  0.00    +0.155 HD
BRANCH   8  12
ATOM     11  F   UNL     1      30.331 -25.351 -13.242  0.00  0.00    -0.204 F 
ATOM     12  C   UNL     1      32.446 -23.286 -16.098  0.00  0.00    +0.064 C 
ATOM     13  C   UNL     1      31.064 -23.319 -16.171  0.00  0.00    +0.057 C 
ATOM     14  C   UNL     1      33.131 -23.934 -15.081  0.00  0.00    +0.018 C 
ATOM     15  C   UNL     1      30.345 -24.020 -15.202  0.00  0.00    +0.045 C 
ATOM     16  C   UNL     1      32.413 -24.634 -14.113  0.00  0.00    +0.031 C 
ATOM     17  C   UNL     1      31.020 -24.677 -14.172  0.00  0.00    +0.141 C 
BRANCH  13  18
ATOM     18  N   UNL     1      30.360 -22.662 -17.203  0.00  0.00    -0.356 N 
ATOM     19  H   UNL     1      29.669 -21.997 -16.981  0.00  0.00    +0.142 HD
ATOM     20  H   UNL     1      30.560 -22.867 -18.145  0.00  0.00    +0.142 HD
ENDBRANCH  13  18
ENDBRANCH   8  12
ENDBRANCH   2   9
BRANCH   1  21
ATOM     21  C   UNL     1      36.725 -19.272 -21.370  0.00  0.00    +0.117 C 
BRANCH  21  23
ATOM     22  O   UNL     1      35.626 -19.748 -24.008  0.00  0.00    -0.270 OA
ATOM     23  N   UNL     1      35.885 -18.384 -22.143  0.00  0.00    -0.297 N 
ATOM     24  C   UNL     1      35.407 -18.704 -23.403  0.00  0.00    +0.246 C 
ATOM     25  H   UNL     1      35.643 -17.512 -21.756  0.00  0.00    +0.150 HD
BRANCH  24  26
ATOM     26  C   UNL     1      34.568 -17.610 -23.970  0.00  0.00    +0.058 C 
ATOM     27  C   UNL     1      35.072 -16.372 -24.085  0.00  0.00    +0.006 C 
BRANCH  27  29
ATOM     28  N   UNL     1      33.557 -12.970 -24.363  0.00  0.00    -0.242 NA
ATOM     29  C   UNL     1      34.338 -15.220 -24.640  0.00  0.00    +0.019 C 
ATOM     30  C   UNL     1      33.772 -15.297 -25.895  0.00  0.00    +0.003 C 
ATOM     31  C   UNL     1      34.215 -14.062 -23.912  0.00  0.00    +0.099 C 
ATOM     32  C   UNL     1      33.086 -14.194 -26.393  0.00  0.00    +0.021 C 
ATOM     33  C   UNL     1      33.008 -13.065 -25.595  0.00  0.00    +0.099 C 
ENDBRANCH  27  29
ENDBRANCH  24  26
ENDBRANCH  21  23
ENDBRANCH   1  21
TORSDOF 7
ENDMDL
