MODEL 1
REMARK VINA RESULT:     -13.0      0.000      0.000
REMARK  Name = 24779724
REMARK  3 active torsions:
REMARK  status: ('A' for Active; 'I' for Inactive)
REMARK    1  A    between atoms: C_5  and  C_12
REMARK    2  A    between atoms: C_7  and  S_16
REMARK    3  A    between atoms: S_16  and  C_19
REMARK                            x       y       z     vdW  Elec       q    Type
REMARK                         _______ _______ _______ _____ _____    ______ ____
ROOT
ATOM      1  N   UNL     1      34.687 -21.209 -19.517  0.00  0.00    -0.186 N 
ATOM      2  N   UNL     1      35.727 -21.524 -18.704  0.00  0.00    -0.162 NA
ATOM      3  N   UNL     1      32.678 -21.123 -20.400  0.00  0.00    -0.126 NA
ATOM      4  N   UNL     1      33.516 -20.309 -21.136  0.00  0.00    -0.120 NA
ATOM      5  C   UNL     1      35.412 -22.345 -17.742  0.00  0.00    +0.104 C 
ATOM      6  C   UNL     1      33.390 -21.658 -19.431  0.00  0.00    +0.187 A 
ATOM      7  C   UNL     1      34.712 -20.374 -20.596  0.00  0.00    +0.217 A 
ATOM      8  C   UNL     1      34.046 -22.928 -17.537  0.00  0.00    +0.024 C 
ATOM      9  C   UNL     1      33.084 -22.559 -18.392  0.00  0.00    +0.042 C 
ENDROOT
BRANCH   5  12
ATOM     10  N   UNL     1      37.518 -23.721 -15.123  0.00  0.00    -0.208 N 
ATOM     11  N   UNL     1      38.468 -22.965 -15.701  0.00  0.00    -0.176 NA
ATOM     12  C   UNL     1      36.464 -22.762 -16.780  0.00  0.00    +0.056 C 
ATOM     13  C   UNL     1      36.300 -23.634 -15.732  0.00  0.00    +0.087 C 
ATOM     14  C   UNL     1      37.819 -22.383 -16.712  0.00  0.00    +0.121 C 
ATOM     15  C   UNL     1      37.843 -24.521 -13.967  0.00  0.00    +0.140 C 
ENDBRANCH   5  12
BRANCH   7  16
ATOM     16  S   UNL     1      36.180 -19.518 -21.147  0.00  0.00    -0.051 S 
BRANCH  16  19
ATOM     17  N   UNL     1      34.100 -16.598 -25.894  0.00  0.00    -0.248 NA
ATOM     18  C   UNL     1      34.770 -16.576 -23.579  0.00  0.00    -0.003 C 
ATOM     19  C   UNL     1      35.558 -18.634 -22.562  0.00  0.00    +0.011 C 
ATOM     20  C   UNL     1      34.571 -17.239 -24.808  0.00  0.00    +0.060 C 
ATOM     21  C   UNL     1      35.262 -17.277 -22.466  0.00  0.00    +0.060 C 
ATOM     22  C   UNL     1      35.363 -19.294 -23.769  0.00  0.00    -0.017 C 
ATOM     23  C   UNL     1      34.874 -18.597 -24.876  0.00  0.00    +0.072 C 
ATOM     24  C   UNL     1      34.464 -15.210 -23.511  0.00  0.00    -0.001 C 
ATOM     25  C   UNL     1      33.980 -14.546 -24.628  0.00  0.00    +0.020 C 
ATOM     26  C   UNL     1      33.818 -15.280 -25.786  0.00  0.00    +0.098 C 
ENDBRANCH  16  19
ENDBRANCH   7  16
TORSDOF 3
ENDMDL
MODEL 2
REMARK VINA RESULT:     -12.6      1.168      1.839
REMARK  Name = 24779724
REMARK  3 active torsions:
REMARK  status: ('A' for Active; 'I' for Inactive)
REMARK    1  A    between atoms: C_5  and  C_12
REMARK    2  A    between atoms: C_7  and  S_16
REMARK    3  A    between atoms: S_16  and  C_19
REMARK                            x       y       z     vdW  Elec       q    Type
REMARK                         _______ _______ _______ _____ _____    ______ ____
ROOT
ATOM      1  N   UNL     1      34.694 -22.013 -18.721  0.00  0.00    -0.186 N 
ATOM      2  N   UNL     1      35.700 -22.393 -17.895  0.00  0.00    -0.162 NA
ATOM      3  N   UNL     1      32.696 -21.743 -19.593  0.00  0.00    -0.126 NA
ATOM      4  N   UNL     1      33.615 -21.101 -20.397  0.00  0.00    -0.120 NA
ATOM      5  C   UNL     1      35.303 -23.091 -16.869  0.00  0.00    +0.104 C 
ATOM      6  C   UNL     1      33.353 -22.287 -18.590  0.00  0.00    +0.187 A 
ATOM      7  C   UNL     1      34.803 -21.274 -19.863  0.00  0.00    +0.217 A 
ATOM      8  C   UNL     1      33.878 -23.479 -16.607  0.00  0.00    +0.024 C 
ATOM      9  C   UNL     1      32.955 -23.059 -17.481  0.00  0.00    +0.042 C 
ENDROOT
BRANCH   5  12
ATOM     10  N   UNL     1      37.329 -24.688 -14.313  0.00  0.00    -0.208 N 
ATOM     11  N   UNL     1      38.224 -23.743 -14.649  0.00  0.00    -0.176 NA
ATOM     12  C   UNL     1      36.311 -23.562 -15.885  0.00  0.00    +0.056 C 
ATOM     13  C   UNL     1      36.166 -24.622 -15.024  0.00  0.00    +0.087 C 
ATOM     14  C   UNL     1      37.598 -23.059 -15.609  0.00  0.00    +0.121 C 
ATOM     15  C   UNL     1      37.649 -25.645 -13.282  0.00  0.00    +0.140 C 
ENDBRANCH   5  12
BRANCH   7  16
ATOM     16  S   UNL     1      36.356 -20.655 -20.492  0.00  0.00    -0.051 S 
BRANCH  16  19
ATOM     17  N   UNL     1      34.555 -15.913 -23.599  0.00  0.00    -0.248 NA
ATOM     18  C   UNL     1      34.991 -18.280 -23.502  0.00  0.00    -0.003 C 
ATOM     19  C   UNL     1      35.815 -19.242 -21.431  0.00  0.00    +0.011 C 
ATOM     20  C   UNL     1      34.959 -16.999 -22.914  0.00  0.00    +0.060 C 
ATOM     21  C   UNL     1      35.419 -19.392 -22.757  0.00  0.00    +0.060 C 
ATOM     22  C   UNL     1      35.786 -17.982 -20.846  0.00  0.00    -0.017 C 
ATOM     23  C   UNL     1      35.361 -16.877 -21.586  0.00  0.00    +0.072 C 
ATOM     24  C   UNL     1      34.587 -18.403 -24.838  0.00  0.00    -0.001 C 
ATOM     25  C   UNL     1      34.170 -17.286 -25.547  0.00  0.00    +0.020 C 
ATOM     26  C   UNL     1      34.173 -16.074 -24.886  0.00  0.00    +0.098 C 
ENDBRANCH  16  19
ENDBRANCH   7  16
TORSDOF 3
ENDMDL
MODEL 3
REMARK VINA RESULT:     -12.2      5.731     11.621
REMARK  Name = 24779724
REMARK  3 active torsions:
REMARK  status: ('A' for Active; 'I' for Inactive)
REMARK    1  A    between atoms: C_5  and  C_12
REMARK    2  A    between atoms: C_7  and  S_16
REMARK    3  A    between atoms: S_16  and  C_19
REMARK                            x       y       z     vdW  Elec       q    Type
REMARK                         _______ _______ _______ _____ _____    ______ ____
ROOT
ATOM      1  N   UNL     1      32.584 -11.626 -22.606  0.00  0.00    -0.186 N 
ATOM      2  N   UNL     1      32.747 -10.432 -23.226  0.00  0.00    -0.162 NA
ATOM      3  N   UNL     1      32.032 -13.154 -21.128  0.00  0.00    -0.126 NA
ATOM      4  N   UNL     1      32.639 -13.779 -22.198  0.00  0.00    -0.120 NA
ATOM      5  C   UNL     1      32.280  -9.420 -22.551  0.00  0.00    +0.104 C 
ATOM      6  C   UNL     1      32.004 -11.863 -21.382  0.00  0.00    +0.187 A 
ATOM      7  C   UNL     1      32.964 -12.852 -23.071  0.00  0.00    +0.217 A 
ATOM      8  C   UNL     1      31.639  -9.526 -21.199  0.00  0.00    +0.024 C 
ATOM      9  C   UNL     1      31.524 -10.749 -20.666  0.00  0.00    +0.042 C 
ENDROOT
BRANCH   5  12
ATOM     10  N   UNL     1      31.913  -6.072 -23.909  0.00  0.00    -0.208 N 
ATOM     11  N   UNL     1      33.253  -6.131 -24.008  0.00  0.00    -0.176 NA
ATOM     12  C   UNL     1      32.392  -8.056 -23.128  0.00  0.00    +0.056 C 
ATOM     13  C   UNL     1      31.350  -7.201 -23.389  0.00  0.00    +0.087 C 
ATOM     14  C   UNL     1      33.539  -7.344 -23.529  0.00  0.00    +0.121 C 
ATOM     15  C   UNL     1      31.214  -4.885 -24.339  0.00  0.00    +0.140 C 
ENDBRANCH   5  12
BRANCH   7  16
ATOM     16  S   UNL     1      33.777 -13.102 -24.642  0.00  0.00    -0.051 S 
BRANCH  16  19
ATOM     17  N   UNL     1      34.649 -18.987 -24.603  0.00  0.00    -0.248 NA
ATOM     18  C   UNL     1      35.001 -16.835 -23.578  0.00  0.00    -0.003 C 
ATOM     19  C   UNL     1      34.043 -14.863 -24.620  0.00  0.00    +0.011 C 
ATOM     20  C   UNL     1      34.463 -17.653 -24.593  0.00  0.00    +0.060 C 
ATOM     21  C   UNL     1      34.787 -15.446 -23.599  0.00  0.00    +0.060 C 
ATOM     22  C   UNL     1      33.511 -15.663 -25.623  0.00  0.00    -0.017 C 
ATOM     23  C   UNL     1      33.724 -17.044 -25.603  0.00  0.00    +0.072 C 
ATOM     24  C   UNL     1      35.745 -17.448 -22.561  0.00  0.00    -0.001 C 
ATOM     25  C   UNL     1      35.938 -18.822 -22.569  0.00  0.00    +0.020 C 
ATOM     26  C   UNL     1      35.373 -19.539 -23.604  0.00  0.00    +0.098 C 
ENDBRANCH  16  19
ENDBRANCH   7  16
TORSDOF 3
ENDMDL
MODEL 4
REMARK VINA RESULT:     -12.0      2.687      9.298
REMARK  Name = 24779724
REMARK  3 active torsions:
REMARK  status: ('A' for Active; 'I' for Inactive)
REMARK    1  A    between atoms: C_5  and  C_12
REMARK    2  A    between atoms: C_7  and  S_16
REMARK    3  A    between atoms: S_16  and  C_19
REMARK                            x       y       z     vdW  Elec       q    Type
REMARK                         _______ _______ _______ _____ _____    ______ ____
ROOT
ATOM      1  N   UNL     1      34.702 -16.724 -24.107  0.00  0.00    -0.186 N 
ATOM      2  N   UNL     1      34.533 -15.474 -23.610  0.00  0.00    -0.162 NA
ATOM      3  N   UNL     1      34.541 -18.504 -25.385  0.00  0.00    -0.126 NA
ATOM      4  N   UNL     1      35.404 -18.787 -24.345  0.00  0.00    -0.120 NA
ATOM      5  C   UNL     1      33.727 -14.732 -24.316  0.00  0.00    +0.104 C 
ATOM      6  C   UNL     1      34.126 -17.264 -25.233  0.00  0.00    +0.187 A 
ATOM      7  C   UNL     1      35.487 -17.715 -23.591  0.00  0.00    +0.217 A 
ATOM      8  C   UNL     1      33.015 -15.192 -25.553  0.00  0.00    +0.024 C 
ATOM      9  C   UNL     1      33.245 -16.444 -25.966  0.00  0.00    +0.042 C 
ENDROOT
BRANCH   5  12
ATOM     10  N   UNL     1      32.643 -11.589 -22.856  0.00  0.00    -0.208 N 
ATOM     11  N   UNL     1      33.568 -11.064 -23.677  0.00  0.00    -0.176 NA
ATOM     12  C   UNL     1      33.464 -13.337 -23.877  0.00  0.00    +0.056 C 
ATOM     13  C   UNL     1      32.540 -12.947 -22.938  0.00  0.00    +0.087 C 
ATOM     14  C   UNL     1      34.067 -12.136 -24.297  0.00  0.00    +0.121 C 
ATOM     15  C   UNL     1      31.871 -10.722 -21.998  0.00  0.00    +0.140 C 
ENDBRANCH   5  12
BRANCH   7  16
ATOM     16  S   UNL     1      36.464 -17.526 -22.108  0.00  0.00    -0.051 S 
BRANCH  16  19
ATOM     17  N   UNL     1      35.070 -22.479 -19.124  0.00  0.00    -0.248 NA
ATOM     18  C   UNL     1      34.357 -20.496 -20.292  0.00  0.00    -0.003 C 
ATOM     19  C   UNL     1      36.036 -19.007 -21.217  0.00  0.00    +0.011 C 
ATOM     20  C   UNL     1      35.364 -21.354 -19.802  0.00  0.00    +0.060 C 
ATOM     21  C   UNL     1      34.700 -19.329 -20.995  0.00  0.00    +0.060 C 
ATOM     22  C   UNL     1      37.032 -19.847 -20.736  0.00  0.00    -0.017 C 
ATOM     23  C   UNL     1      36.692 -21.007 -20.037  0.00  0.00    +0.072 C 
ATOM     24  C   UNL     1      33.021 -20.845 -20.055  0.00  0.00    -0.001 C 
ATOM     25  C   UNL     1      32.715 -22.004 -19.357  0.00  0.00    +0.020 C 
ATOM     26  C   UNL     1      33.768 -22.780 -18.917  0.00  0.00    +0.098 C 
ENDBRANCH  16  19
ENDBRANCH   7  16
TORSDOF 3
ENDMDL
MODEL 5
REMARK VINA RESULT:     -12.0      5.867     11.947
REMARK  Name = 24779724
REMARK  3 active torsions:
REMARK  status: ('A' for Active; 'I' for Inactive)
REMARK    1  A    between atoms: C_5  and  C_12
REMARK    2  A    between atoms: C_7  and  S_16
REMARK    3  A    between atoms: S_16  and  C_19
REMARK                            x       y       z     vdW  Elec       q    Type
REMARK                         _______ _______ _______ _____ _____    ______ ____
ROOT
ATOM      1  N   UNL     1      32.639 -11.161 -22.689  0.00  0.00    -0.186 N 
ATOM      2  N   UNL     1      33.103 -10.111 -23.412  0.00  0.00    -0.162 NA
ATOM      3  N   UNL     1      31.641 -12.348 -21.134  0.00  0.00    -0.126 NA
ATOM      4  N   UNL     1      32.213 -13.212 -22.045  0.00  0.00    -0.120 NA
ATOM      5  C   UNL     1      32.785  -8.949 -22.915  0.00  0.00    +0.104 C 
ATOM      6  C   UNL     1      31.902 -11.120 -21.529  0.00  0.00    +0.187 A 
ATOM      7  C   UNL     1      32.807 -12.487 -22.966  0.00  0.00    +0.217 A 
ATOM      8  C   UNL     1      32.003  -8.752 -21.651  0.00  0.00    +0.024 C 
ATOM      9  C   UNL     1      31.588  -9.850 -21.006  0.00  0.00    +0.042 C 
ENDROOT
BRANCH   5  12
ATOM     10  N   UNL     1      33.246  -5.808 -24.678  0.00  0.00    -0.208 N 
ATOM     11  N   UNL     1      34.550  -6.119 -24.577  0.00  0.00    -0.176 NA
ATOM     12  C   UNL     1      33.231  -7.719 -23.619  0.00  0.00    +0.056 C 
ATOM     13  C   UNL     1      32.415  -6.735 -24.120  0.00  0.00    +0.087 C 
ATOM     14  C   UNL     1      34.535  -7.286 -23.930  0.00  0.00    +0.121 C 
ATOM     15  C   UNL     1      32.849  -4.585 -25.333  0.00  0.00    +0.140 C 
ENDBRANCH   5  12
BRANCH   7  16
ATOM     16  S   UNL     1      33.706 -13.092 -24.386  0.00  0.00    -0.051 S 
BRANCH  16  19
ATOM     17  N   UNL     1      35.416 -18.451 -22.450  0.00  0.00    -0.248 NA
ATOM     18  C   UNL     1      34.536 -17.072 -24.220  0.00  0.00    -0.003 C 
ATOM     19  C   UNL     1      34.216 -14.700 -23.817  0.00  0.00    +0.011 C 
ATOM     20  C   UNL     1      35.024 -17.247 -22.908  0.00  0.00    +0.060 C 
ATOM     21  C   UNL     1      34.136 -15.801 -24.665  0.00  0.00    +0.060 C 
ATOM     22  C   UNL     1      34.695 -14.865 -22.524  0.00  0.00    -0.017 C 
ATOM     23  C   UNL     1      35.093 -16.129 -22.081  0.00  0.00    +0.072 C 
ATOM     24  C   UNL     1      34.466 -18.197 -25.052  0.00  0.00    -0.001 C 
ATOM     25  C   UNL     1      34.869 -19.439 -24.584  0.00  0.00    +0.020 C 
ATOM     26  C   UNL     1      35.332 -19.511 -23.286  0.00  0.00    +0.098 C 
ENDBRANCH  16  19
ENDBRANCH   7  16
TORSDOF 3
ENDMDL
MODEL 6
REMARK VINA RESULT:     -11.6      3.210      4.649
REMARK  Name = 24779724
REMARK  3 active torsions:
REMARK  status: ('A' for Active; 'I' for Inactive)
REMARK    1  A    between atoms: C_5  and  C_12
REMARK    2  A    between atoms: C_7  and  S_16
REMARK    3  A    between atoms: S_16  and  C_19
REMARK                            x       y       z     vdW  Elec       q    Type
REMARK                         _______ _______ _______ _____ _____    ______ ____
ROOT
ATOM      1  N   UNL     1      33.865 -23.848 -16.307  0.00  0.00    -0.186 N 
ATOM      2  N   UNL     1      35.039 -24.526 -16.250  0.00  0.00    -0.162 NA
ATOM      3  N   UNL     1      32.047 -22.766 -15.719  0.00  0.00    -0.126 NA
ATOM      4  N   UNL     1      32.084 -22.844 -17.096  0.00  0.00    -0.120 NA
ATOM      5  C   UNL     1      35.475 -24.719 -15.037  0.00  0.00    +0.104 C 
ATOM      6  C   UNL     1      33.120 -23.372 -15.255  0.00  0.00    +0.187 A 
ATOM      7  C   UNL     1      33.175 -23.495 -17.431  0.00  0.00    +0.217 A 
ATOM      8  C   UNL     1      34.761 -24.273 -13.797  0.00  0.00    +0.024 C 
ATOM      9  C   UNL     1      33.607 -23.611 -13.955  0.00  0.00    +0.042 C 
ENDROOT
BRANCH   5  12
ATOM     10  N   UNL     1      38.858 -25.909 -14.464  0.00  0.00    -0.208 N 
ATOM     11  N   UNL     1      38.304 -27.117 -14.667  0.00  0.00    -0.176 NA
ATOM     12  C   UNL     1      36.756 -25.446 -14.841  0.00  0.00    +0.056 C 
ATOM     13  C   UNL     1      37.973 -24.875 -14.558  0.00  0.00    +0.087 C 
ATOM     14  C   UNL     1      37.021 -26.828 -14.897  0.00  0.00    +0.121 C 
ATOM     15  C   UNL     1      40.269 -25.805 -14.178  0.00  0.00    +0.140 C 
ENDBRANCH   5  12
BRANCH   7  16
ATOM     16  S   UNL     1      33.722 -23.882 -19.087  0.00  0.00    -0.051 S 
BRANCH  16  19
ATOM     17  N   UNL     1      34.795 -18.445 -21.248  0.00  0.00    -0.248 NA
ATOM     18  C   UNL     1      35.634 -20.547 -20.421  0.00  0.00    -0.003 C 
ATOM     19  C   UNL     1      34.054 -22.257 -19.734  0.00  0.00    +0.011 C 
ATOM     20  C   UNL     1      34.574 -19.679 -20.758  0.00  0.00    +0.060 C 
ATOM     21  C   UNL     1      35.366 -21.829 -19.912  0.00  0.00    +0.060 C 
ATOM     22  C   UNL     1      33.006 -21.407 -20.063  0.00  0.00    -0.017 C 
ATOM     23  C   UNL     1      33.271 -20.132 -20.569  0.00  0.00    +0.072 C 
ATOM     24  C   UNL     1      36.945 -20.091 -20.612  0.00  0.00    -0.001 C 
ATOM     25  C   UNL     1      37.176 -18.820 -21.116  0.00  0.00    +0.020 C 
ATOM     26  C   UNL     1      36.075 -18.043 -21.416  0.00  0.00    +0.098 C 
ENDBRANCH  16  19
ENDBRANCH   7  16
TORSDOF 3
ENDMDL
MODEL 7
REMARK VINA RESULT:     -11.6      4.636      7.753
REMARK  Name = 24779724
REMARK  3 active torsions:
REMARK  status: ('A' for Active; 'I' for Inactive)
REMARK    1  A    between atoms: C_5  and  C_12
REMARK    2  A    between atoms: C_7  and  S_16
REMARK    3  A    between atoms: S_16  and  C_19
REMARK                            x       y       z     vdW  Elec       q    Type
REMARK                         _______ _______ _______ _____ _____    ______ ____
ROOT
ATOM      1  N   UNL     1      33.829 -15.259 -22.947  0.00  0.00    -0.186 N 
ATOM      2  N   UNL     1      34.247 -16.222 -22.089  0.00  0.00    -0.162 NA
ATOM      3  N   UNL     1      33.499 -14.094 -24.780  0.00  0.00    -0.126 NA
ATOM      4  N   UNL     1      32.855 -13.461 -23.736  0.00  0.00    -0.120 NA
ATOM      5  C   UNL     1      34.963 -17.154 -22.652  0.00  0.00    +0.104 C 
ATOM      6  C   UNL     1      34.080 -15.172 -24.296  0.00  0.00    +0.187 A 
ATOM      7  C   UNL     1      33.063 -14.169 -22.649  0.00  0.00    +0.217 A 
ATOM      8  C   UNL     1      35.330 -17.180 -24.106  0.00  0.00    +0.024 C 
ATOM      9  C   UNL     1      34.871 -16.184 -24.875  0.00  0.00    +0.042 C 
ENDROOT
BRANCH   5  12
ATOM     10  N   UNL     1      35.612 -20.097 -20.626  0.00  0.00    -0.208 N 
ATOM     11  N   UNL     1      36.869 -19.622 -20.611  0.00  0.00    -0.176 NA
ATOM     12  C   UNL     1      35.477 -18.270 -21.817  0.00  0.00    +0.056 C 
ATOM     13  C   UNL     1      34.739 -19.324 -21.334  0.00  0.00    +0.087 C 
ATOM     14  C   UNL     1      36.781 -18.507 -21.341  0.00  0.00    +0.121 C 
ATOM     15  C   UNL     1      35.300 -21.321 -19.928  0.00  0.00    +0.140 C 
ENDBRANCH   5  12
BRANCH   7  16
ATOM     16  S   UNL     1      32.459 -13.808 -21.008  0.00  0.00    -0.051 S 
BRANCH  16  19
ATOM     17  N   UNL     1      31.748  -7.907 -21.262  0.00  0.00    -0.248 NA
ATOM     18  C   UNL     1      32.120  -9.999 -22.399  0.00  0.00    -0.003 C 
ATOM     19  C   UNL     1      32.247 -12.042 -21.095  0.00  0.00    +0.011 C 
ATOM     20  C   UNL     1      31.911  -9.243 -21.227  0.00  0.00    +0.060 C 
ATOM     21  C   UNL     1      32.286 -11.392 -22.325  0.00  0.00    +0.060 C 
ATOM     22  C   UNL     1      32.042 -11.303 -19.937  0.00  0.00    -0.017 C 
ATOM     23  C   UNL     1      31.876  -9.919 -20.010  0.00  0.00    +0.072 C 
ATOM     24  C   UNL     1      32.155  -9.319 -23.624  0.00  0.00    -0.001 C 
ATOM     25  C   UNL     1      31.988  -7.942 -23.664  0.00  0.00    +0.020 C 
ATOM     26  C   UNL     1      31.789  -7.289 -22.464  0.00  0.00    +0.098 C 
ENDBRANCH  16  19
ENDBRANCH   7  16
TORSDOF 3
ENDMDL
MODEL 8
REMARK VINA RESULT:     -11.5      3.759      6.536
REMARK  Name = 24779724
REMARK  3 active torsions:
REMARK  status: ('A' for Active; 'I' for Inactive)
REMARK    1  A    between atoms: C_5  and  C_12
REMARK    2  A    between atoms: C_7  and  S_16
REMARK    3  A    between atoms: S_16  and  C_19
REMARK                            x       y       z     vdW  Elec       q    Type
REMARK                         _______ _______ _______ _____ _____    ______ ____
ROOT
ATOM      1  N   UNL     1      32.988 -23.361 -16.479  0.00  0.00    -0.186 N 
ATOM      2  N   UNL     1      31.703 -23.341 -16.910  0.00  0.00    -0.162 NA
ATOM      3  N   UNL     1      34.760 -23.247 -15.185  0.00  0.00    -0.126 NA
ATOM      4  N   UNL     1      35.172 -23.549 -16.467  0.00  0.00    -0.120 NA
ATOM      5  C   UNL     1      30.837 -23.081 -15.972  0.00  0.00    +0.104 C 
ATOM      6  C   UNL     1      33.448 -23.136 -15.203  0.00  0.00    +0.187 A 
ATOM      7  C   UNL     1      34.102 -23.611 -17.227  0.00  0.00    +0.217 A 
ATOM      8  C   UNL     1      31.194 -22.799 -14.543  0.00  0.00    +0.024 C 
ATOM      9  C   UNL     1      32.491 -22.840 -14.212  0.00  0.00    +0.042 C 
ENDROOT
BRANCH   5  12
ATOM     10  N   UNL     1      27.268 -22.529 -16.351  0.00  0.00    -0.208 N 
ATOM     11  N   UNL     1      27.381 -23.459 -17.314  0.00  0.00    -0.176 NA
ATOM     12  C   UNL     1      29.393 -23.036 -16.317  0.00  0.00    +0.056 C 
ATOM     13  C   UNL     1      28.444 -22.240 -15.723  0.00  0.00    +0.087 C 
ATOM     14  C   UNL     1      28.681 -23.765 -17.289  0.00  0.00    +0.121 C 
ATOM     15  C   UNL     1      25.980 -21.940 -16.071  0.00  0.00    +0.140 C 
ENDBRANCH   5  12
BRANCH   7  16
ATOM     16  S   UNL     1      34.055 -23.967 -18.977  0.00  0.00    -0.051 S 
BRANCH  16  19
ATOM     17  N   UNL     1      34.802 -18.540 -21.293  0.00  0.00    -0.248 NA
ATOM     18  C   UNL     1      35.765 -20.567 -20.416  0.00  0.00    -0.003 C 
ATOM     19  C   UNL     1      34.290 -22.344 -19.671  0.00  0.00    +0.011 C 
ATOM     20  C   UNL     1      34.655 -19.770 -20.769  0.00  0.00    +0.060 C 
ATOM     21  C   UNL     1      35.574 -21.847 -19.870  0.00  0.00    +0.060 C 
ATOM     22  C   UNL     1      33.193 -21.565 -20.015  0.00  0.00    -0.017 C 
ATOM     23  C   UNL     1      33.382 -20.292 -20.558  0.00  0.00    +0.072 C 
ATOM     24  C   UNL     1      37.047 -20.042 -20.628  0.00  0.00    -0.001 C 
ATOM     25  C   UNL     1      37.202 -18.774 -21.169  0.00  0.00    +0.020 C 
ATOM     26  C   UNL     1      36.056 -18.070 -21.482  0.00  0.00    +0.098 C 
ENDBRANCH  16  19
ENDBRANCH   7  16
TORSDOF 3
ENDMDL
MODEL 9
REMARK VINA RESULT:     -11.4      2.304      9.328
REMARK  Name = 24779724
REMARK  3 active torsions:
REMARK  status: ('A' for Active; 'I' for Inactive)
REMARK    1  A    between atoms: C_5  and  C_12
REMARK    2  A    between atoms: C_7  and  S_16
REMARK    3  A    between atoms: S_16  and  C_19
REMARK                            x       y       z     vdW  Elec       q    Type
REMARK                         _______ _______ _______ _____ _____    ______ ____
ROOT
ATOM      1  N   UNL     1      35.491 -20.246 -20.681  0.00  0.00    -0.186 N 
ATOM      2  N   UNL     1      34.819 -19.703 -21.727  0.00  0.00    -0.162 NA
ATOM      3  N   UNL     1      37.070 -20.711 -19.228  0.00  0.00    -0.126 NA
ATOM      4  N   UNL     1      35.951 -21.454 -18.911  0.00  0.00    -0.120 NA
ATOM      5  C   UNL     1      35.518 -18.841 -22.410  0.00  0.00    +0.104 C 
ATOM      6  C   UNL     1      36.784 -19.990 -20.291  0.00  0.00    +0.187 A 
ATOM      7  C   UNL     1      35.018 -21.165 -19.790  0.00  0.00    +0.217 A 
ATOM      8  C   UNL     1      36.942 -18.477 -22.112  0.00  0.00    +0.024 C 
ATOM      9  C   UNL     1      37.521 -19.066 -21.059  0.00  0.00    +0.042 C 
ENDROOT
BRANCH   5  12
ATOM     10  N   UNL     1      34.166 -16.658 -24.978  0.00  0.00    -0.208 N 
ATOM     11  N   UNL     1      33.804 -17.816 -25.556  0.00  0.00    -0.176 NA
ATOM     12  C   UNL     1      34.892 -18.172 -23.579  0.00  0.00    +0.056 C 
ATOM     13  C   UNL     1      34.820 -16.817 -23.791  0.00  0.00    +0.087 C 
ATOM     14  C   UNL     1      34.250 -18.737 -24.698  0.00  0.00    +0.121 C 
ATOM     15  C   UNL     1      33.851 -15.406 -25.622  0.00  0.00    +0.140 C 
ENDBRANCH   5  12
BRANCH   7  16
ATOM     16  S   UNL     1      33.365 -21.841 -19.853  0.00  0.00    -0.051 S 
BRANCH  16  19
ATOM     17  N   UNL     1      32.902 -24.213 -14.418  0.00  0.00    -0.248 NA
ATOM     18  C   UNL     1      31.860 -23.122 -16.296  0.00  0.00    -0.003 C 
ATOM     19  C   UNL     1      33.215 -22.549 -18.226  0.00  0.00    +0.011 C 
ATOM     20  C   UNL     1      32.985 -23.672 -15.648  0.00  0.00    +0.060 C 
ATOM     21  C   UNL     1      31.983 -22.565 -17.580  0.00  0.00    +0.060 C 
ATOM     22  C   UNL     1      34.328 -23.089 -17.593  0.00  0.00    -0.017 C 
ATOM     23  C   UNL     1      34.206 -23.643 -16.317  0.00  0.00    +0.072 C 
ATOM     24  C   UNL     1      30.631 -23.152 -15.623  0.00  0.00    -0.001 C 
ATOM     25  C   UNL     1      30.542 -23.709 -14.356  0.00  0.00    +0.020 C 
ATOM     26  C   UNL     1      31.698 -24.222 -13.802  0.00  0.00    +0.098 C 
ENDBRANCH  16  19
ENDBRANCH   7  16
TORSDOF 3
ENDMDL
