MODEL 1
REMARK VINA RESULT:     -14.3      0.000      0.000
REMARK  Name = 11560856
REMARK  5 active torsions:
REMARK  status: ('A' for Active; 'I' for Inactive)
REMARK    1  A    between atoms: C_2  and  O_24
REMARK    2  A    between atoms: C_3  and  N_10
REMARK    3  A    between atoms: C_12  and  C_16
REMARK    4  A    between atoms: C_16  and  C_18
REMARK    5  A    between atoms: O_24  and  C_28
REMARK                            x       y       z     vdW  Elec       q    Type
REMARK                         _______ _______ _______ _____ _____    ______ ____
ROOT
ATOM      1  F   UNL     1      33.326 -11.134 -24.121  0.00  0.00    -0.201 F 
ATOM      2  C   UNL     1      31.999 -11.608 -22.214  0.00  0.00    +0.173 C 
ATOM      3  C   UNL     1      33.470 -13.913 -21.781  0.00  0.00    +0.054 C 
ATOM      4  C   UNL     1      33.032 -11.924 -23.080  0.00  0.00    +0.176 C 
ATOM      5  C   UNL     1      31.685 -12.418 -21.136  0.00  0.00    +0.041 C 
ATOM      6  C   UNL     1      33.773 -13.085 -22.861  0.00  0.00    +0.047 C 
ATOM      7  C   UNL     1      32.426 -13.579 -20.918  0.00  0.00    +0.018 C 
ENDROOT
BRANCH   3  10
ATOM      8  O   UNL     1      35.771 -18.454 -23.701  0.00  0.00    -0.274 OA
ATOM      9  O   UNL     1      34.337 -16.057 -23.696  0.00  0.00    -0.252 OA
ATOM     10  N   UNL     1      34.213 -15.073 -21.561  0.00  0.00    -0.268 N 
ATOM     11  N   UNL     1      35.345 -17.074 -21.868  0.00  0.00    -0.239 N 
ATOM     12  C   UNL     1      35.879 -18.198 -22.504  0.00  0.00    +0.234 C 
ATOM     13  C   UNL     1      34.599 -16.057 -22.496  0.00  0.00    +0.310 C 
ATOM     14  H   UNL     1      34.506 -15.226 -20.635  0.00  0.00    +0.156 HD
ATOM     15  H   UNL     1      35.503 -16.985 -20.901  0.00  0.00    +0.159 HD
BRANCH  12  16
ATOM     16  C   UNL     1      36.623 -19.084 -21.523  0.00  0.00    +0.112 C 
BRANCH  16  18
ATOM     17  F   UNL     1      33.288 -22.726 -18.837  0.00  0.00    -0.204 F 
ATOM     18  C   UNL     1      35.729 -20.061 -20.804  0.00  0.00    -0.013 C 
ATOM     19  C   UNL     1      36.294 -21.025 -19.981  0.00  0.00    -0.001 C 
ATOM     20  C   UNL     1      34.355 -19.981 -20.974  0.00  0.00    -0.001 C 
ATOM     21  C   UNL     1      35.466 -21.929 -19.315  0.00  0.00    +0.029 C 
ATOM     22  C   UNL     1      33.527 -20.885 -20.308  0.00  0.00    +0.029 C 
ATOM     23  C   UNL     1      34.083 -21.858 -19.478  0.00  0.00    +0.140 C 
ENDBRANCH  16  18
ENDBRANCH  12  16
ENDBRANCH   3  10
BRANCH   2  24
ATOM     24  O   UNL     1      31.265 -10.457 -22.429  0.00  0.00    -0.451 OA
BRANCH  24  28
ATOM     25  N   UNL     1      32.299  -5.959 -23.038  0.00  0.00    -0.297 N 
ATOM     26  N   UNL     1      32.834  -6.861 -20.869  0.00  0.00    -0.229 NA
ATOM     27  C   UNL     1      31.816  -8.115 -22.714  0.00  0.00    +0.067 C 
ATOM     28  C   UNL     1      31.769  -9.286 -21.940  0.00  0.00    +0.150 C 
ATOM     29  C   UNL     1      32.349  -6.974 -22.119  0.00  0.00    +0.135 C 
ATOM     30  C   UNL     1      31.439  -7.753 -24.034  0.00  0.00    +0.022 C 
ATOM     31  C   UNL     1      31.748  -6.420 -24.205  0.00  0.00    +0.063 C 
ATOM     32  C   UNL     1      32.259  -9.223 -20.636  0.00  0.00    +0.058 C 
ATOM     33  C   UNL     1      32.765  -8.017 -20.170  0.00  0.00    +0.103 C 
ATOM     34  H   UNL     1      32.612  -5.038 -22.883  0.00  0.00    +0.154 HD
ENDBRANCH  24  28
ENDBRANCH   2  24
TORSDOF 5
ENDMDL
MODEL 2
REMARK VINA RESULT:     -14.1      4.376     11.335
REMARK  Name = 11560856
REMARK  5 active torsions:
REMARK  status: ('A' for Active; 'I' for Inactive)
REMARK    1  A    between atoms: C_2  and  O_24
REMARK    2  A    between atoms: C_3  and  N_10
REMARK    3  A    between atoms: C_12  and  C_16
REMARK    4  A    between atoms: C_16  and  C_18
REMARK    5  A    between atoms: O_24  and  C_28
REMARK                            x       y       z     vdW  Elec       q    Type
REMARK                         _______ _______ _______ _____ _____    ______ ____
ROOT
ATOM      1  F   UNL     1      37.004 -22.024 -19.491  0.00  0.00    -0.201 F 
ATOM      2  C   UNL     1      34.632 -22.048 -19.505  0.00  0.00    +0.173 C 
ATOM      3  C   UNL     1      34.632 -19.717 -20.999  0.00  0.00    +0.054 C 
ATOM      4  C   UNL     1      35.841 -21.472 -19.860  0.00  0.00    +0.176 C 
ATOM      5  C   UNL     1      33.424 -21.485 -19.879  0.00  0.00    +0.041 C 
ATOM      6  C   UNL     1      35.840 -20.298 -20.613  0.00  0.00    +0.047 C 
ATOM      7  C   UNL     1      33.425 -20.311 -20.632  0.00  0.00    +0.018 C 
ENDROOT
BRANCH   3  10
ATOM      8  O   UNL     1      35.024 -17.231 -25.822  0.00  0.00    -0.274 OA
ATOM      9  O   UNL     1      34.959 -19.308 -23.955  0.00  0.00    -0.252 OA
ATOM     10  N   UNL     1      34.632 -18.544 -21.753  0.00  0.00    -0.268 N 
ATOM     11  N   UNL     1      34.729 -17.039 -23.516  0.00  0.00    -0.239 N 
ATOM     12  C   UNL     1      34.849 -16.546 -24.818  0.00  0.00    +0.234 C 
ATOM     13  C   UNL     1      34.790 -18.398 -23.148  0.00  0.00    +0.310 C 
ATOM     14  H   UNL     1      34.506 -17.709 -21.248  0.00  0.00    +0.156 HD
ATOM     15  H   UNL     1      34.590 -16.383 -22.796  0.00  0.00    +0.159 HD
BRANCH  12  16
ATOM     16  C   UNL     1      34.735 -15.034 -24.846  0.00  0.00    +0.112 C 
BRANCH  16  18
ATOM     17  F   UNL     1      32.147 -12.907 -20.332  0.00  0.00    -0.204 F 
ATOM     18  C   UNL     1      34.041 -14.465 -23.636  0.00  0.00    -0.013 C 
ATOM     19  C   UNL     1      34.542 -14.735 -22.371  0.00  0.00    -0.001 C 
ATOM     20  C   UNL     1      32.911 -13.677 -23.805  0.00  0.00    -0.001 C 
ATOM     21  C   UNL     1      33.900 -14.208 -21.250  0.00  0.00    +0.029 C 
ATOM     22  C   UNL     1      32.268 -13.150 -22.685  0.00  0.00    +0.029 C 
ATOM     23  C   UNL     1      32.763 -13.414 -21.408  0.00  0.00    +0.140 C 
ENDBRANCH  16  18
ENDBRANCH  12  16
ENDBRANCH   3  10
BRANCH   2  24
ATOM     24  O   UNL     1      34.633 -23.211 -18.760  0.00  0.00    -0.451 OA
BRANCH  24  28
ATOM     25  N   UNL     1      34.932 -23.118 -14.114  0.00  0.00    -0.297 N 
ATOM     26  N   UNL     1      32.695 -23.109 -15.009  0.00  0.00    -0.229 NA
ATOM     27  C   UNL     1      34.754 -23.163 -16.340  0.00  0.00    +0.067 C 
ATOM     28  C   UNL     1      34.021 -23.179 -17.538  0.00  0.00    +0.150 C 
ATOM     29  C   UNL     1      34.033 -23.128 -15.149  0.00  0.00    +0.135 C 
ATOM     30  C   UNL     1      36.129 -23.174 -15.989  0.00  0.00    +0.022 C 
ATOM     31  C   UNL     1      36.208 -23.145 -14.612  0.00  0.00    +0.063 C 
ATOM     32  C   UNL     1      32.630 -23.159 -17.450  0.00  0.00    +0.058 C 
ATOM     33  C   UNL     1      32.041 -23.126 -16.193  0.00  0.00    +0.103 C 
ATOM     34  H   UNL     1      34.696 -23.095 -13.158  0.00  0.00    +0.154 HD
ENDBRANCH  24  28
ENDBRANCH   2  24
TORSDOF 5
ENDMDL
MODEL 3
REMARK VINA RESULT:     -14.0      0.867      1.939
REMARK  Name = 11560856
REMARK  5 active torsions:
REMARK  status: ('A' for Active; 'I' for Inactive)
REMARK    1  A    between atoms: C_2  and  O_24
REMARK    2  A    between atoms: C_3  and  N_10
REMARK    3  A    between atoms: C_12  and  C_16
REMARK    4  A    between atoms: C_16  and  C_18
REMARK    5  A    between atoms: O_24  and  C_28
REMARK                            x       y       z     vdW  Elec       q    Type
REMARK                         _______ _______ _______ _____ _____    ______ ____
ROOT
ATOM      1  F   UNL     1      33.406 -11.754 -24.467  0.00  0.00    -0.201 F 
ATOM      2  C   UNL     1      32.236 -11.920 -22.410  0.00  0.00    +0.173 C 
ATOM      3  C   UNL     1      33.640 -14.231 -21.816  0.00  0.00    +0.054 C 
ATOM      4  C   UNL     1      33.173 -12.395 -23.314  0.00  0.00    +0.176 C 
ATOM      5  C   UNL     1      31.985 -12.575 -21.217  0.00  0.00    +0.041 C 
ATOM      6  C   UNL     1      33.880 -13.558 -23.013  0.00  0.00    +0.047 C 
ATOM      7  C   UNL     1      32.693 -13.739 -20.917  0.00  0.00    +0.018 C 
ENDROOT
BRANCH   3  10
ATOM      8  O   UNL     1      36.150 -18.766 -23.471  0.00  0.00    -0.274 OA
ATOM      9  O   UNL     1      34.730 -16.365 -23.625  0.00  0.00    -0.252 OA
ATOM     10  N   UNL     1      34.348 -15.395 -21.515  0.00  0.00    -0.268 N 
ATOM     11  N   UNL     1      35.506 -17.396 -21.695  0.00  0.00    -0.239 N 
ATOM     12  C   UNL     1      36.112 -18.518 -22.268  0.00  0.00    +0.234 C 
ATOM     13  C   UNL     1      34.844 -16.374 -22.402  0.00  0.00    +0.310 C 
ATOM     14  H   UNL     1      34.526 -15.554 -20.561  0.00  0.00    +0.156 HD
ATOM     15  H   UNL     1      35.545 -17.314 -20.715  0.00  0.00    +0.159 HD
BRANCH  12  16
ATOM     16  C   UNL     1      36.729 -19.411 -21.209  0.00  0.00    +0.112 C 
BRANCH  16  18
ATOM     17  F   UNL     1      33.003 -22.784 -18.692  0.00  0.00    -0.204 F 
ATOM     18  C   UNL     1      35.731 -20.314 -20.534  0.00  0.00    -0.013 C 
ATOM     19  C   UNL     1      34.378 -20.161 -20.806  0.00  0.00    -0.001 C 
ATOM     20  C   UNL     1      36.178 -21.286 -19.651  0.00  0.00    -0.001 C 
ATOM     21  C   UNL     1      33.454 -20.998 -20.181  0.00  0.00    +0.029 C 
ATOM     22  C   UNL     1      35.253 -22.123 -19.026  0.00  0.00    +0.029 C 
ATOM     23  C   UNL     1      33.892 -21.980 -19.292  0.00  0.00    +0.140 C 
ENDBRANCH  16  18
ENDBRANCH  12  16
ENDBRANCH   3  10
BRANCH   2  24
ATOM     24  O   UNL     1      31.536 -10.766 -22.707  0.00  0.00    -0.451 OA
BRANCH  24  28
ATOM     25  N   UNL     1      33.027  -7.340 -19.929  0.00  0.00    -0.297 N 
ATOM     26  N   UNL     1      33.554  -7.083 -22.266  0.00  0.00    -0.229 NA
ATOM     27  C   UNL     1      32.325  -8.966 -21.289  0.00  0.00    +0.067 C 
ATOM     28  C   UNL     1      32.186  -9.575 -22.547  0.00  0.00    +0.150 C 
ATOM     29  C   UNL     1      33.007  -7.753 -21.235  0.00  0.00    +0.135 C 
ATOM     30  C   UNL     1      31.932  -9.277 -19.960  0.00  0.00    +0.022 C 
ATOM     31  C   UNL     1      32.378  -8.258 -19.145  0.00  0.00    +0.063 C 
ATOM     32  C   UNL     1      32.737  -8.923 -23.649  0.00  0.00    +0.058 C 
ATOM     33  C   UNL     1      33.390  -7.713 -23.452  0.00  0.00    +0.103 C 
ATOM     34  H   UNL     1      33.446  -6.510 -19.603  0.00  0.00    +0.154 HD
ENDBRANCH  24  28
ENDBRANCH   2  24
TORSDOF 5
ENDMDL
MODEL 4
REMARK VINA RESULT:     -13.8      5.931      9.206
REMARK  Name = 11560856
REMARK  5 active torsions:
REMARK  status: ('A' for Active; 'I' for Inactive)
REMARK    1  A    between atoms: C_2  and  O_24
REMARK    2  A    between atoms: C_3  and  N_10
REMARK    3  A    between atoms: C_12  and  C_16
REMARK    4  A    between atoms: C_16  and  C_18
REMARK    5  A    between atoms: O_24  and  C_28
REMARK                            x       y       z     vdW  Elec       q    Type
REMARK                         _______ _______ _______ _____ _____    ______ ____
ROOT
ATOM      1  F   UNL     1      37.191 -20.938 -20.379  0.00  0.00    -0.201 F 
ATOM      2  C   UNL     1      35.052 -20.247 -21.134  0.00  0.00    +0.173 C 
ATOM      3  C   UNL     1      33.877 -21.719 -19.104  0.00  0.00    +0.054 C 
ATOM      4  C   UNL     1      35.857 -20.955 -20.257  0.00  0.00    +0.176 C 
ATOM      5  C   UNL     1      33.672 -20.259 -21.019  0.00  0.00    +0.041 C 
ATOM      6  C   UNL     1      35.265 -21.695 -19.235  0.00  0.00    +0.047 C 
ATOM      7  C   UNL     1      33.080 -21.000 -19.996  0.00  0.00    +0.018 C 
ENDROOT
BRANCH   3  10
ATOM      8  O   UNL     1      34.346 -24.613 -14.521  0.00  0.00    -0.274 OA
ATOM      9  O   UNL     1      35.109 -23.084 -16.732  0.00  0.00    -0.252 OA
ATOM     10  N   UNL     1      33.285 -22.458 -18.080  0.00  0.00    -0.268 N 
ATOM     11  N   UNL     1      32.951 -23.733 -16.172  0.00  0.00    -0.239 N 
ATOM     12  C   UNL     1      33.228 -24.450 -15.004  0.00  0.00    +0.234 C 
ATOM     13  C   UNL     1      33.907 -23.085 -16.979  0.00  0.00    +0.310 C 
ATOM     14  H   UNL     1      32.308 -22.556 -18.132  0.00  0.00    +0.156 HD
ATOM     15  H   UNL     1      32.009 -23.677 -16.454  0.00  0.00    +0.159 HD
BRANCH  12  16
ATOM     16  C   UNL     1      31.961 -25.015 -14.392  0.00  0.00    +0.112 C 
BRANCH  16  18
ATOM     17  F   UNL     1      27.273 -22.659 -16.409  0.00  0.00    -0.204 F 
ATOM     18  C   UNL     1      30.704 -24.384 -14.931  0.00  0.00    -0.013 C 
ATOM     19  C   UNL     1      30.460 -23.038 -14.695  0.00  0.00    -0.001 C 
ATOM     20  C   UNL     1      29.810 -25.157 -15.658  0.00  0.00    -0.001 C 
ATOM     21  C   UNL     1      29.296 -22.454 -15.195  0.00  0.00    +0.029 C 
ATOM     22  C   UNL     1      28.646 -24.572 -16.158  0.00  0.00    +0.029 C 
ATOM     23  C   UNL     1      28.390 -23.221 -15.928  0.00  0.00    +0.140 C 
ENDBRANCH  16  18
ENDBRANCH  12  16
ENDBRANCH   3  10
BRANCH   2  24
ATOM     24  O   UNL     1      35.638 -19.513 -22.147  0.00  0.00    -0.451 OA
BRANCH  24  28
ATOM     25  N   UNL     1      34.208 -15.932 -24.757  0.00  0.00    -0.297 N 
ATOM     26  N   UNL     1      34.570 -15.437 -22.427  0.00  0.00    -0.229 NA
ATOM     27  C   UNL     1      34.895 -17.628 -23.478  0.00  0.00    +0.067 C 
ATOM     28  C   UNL     1      35.289 -18.196 -22.255  0.00  0.00    +0.150 C 
ATOM     29  C   UNL     1      34.559 -16.277 -23.478  0.00  0.00    +0.135 C 
ATOM     30  C   UNL     1      34.734 -18.093 -24.809  0.00  0.00    +0.022 C 
ATOM     31  C   UNL     1      34.310 -17.027 -25.574  0.00  0.00    +0.063 C 
ATOM     32  C   UNL     1      35.317 -17.369 -21.133  0.00  0.00    +0.058 C 
ATOM     33  C   UNL     1      34.957 -16.035 -21.277  0.00  0.00    +0.103 C 
ATOM     34  H   UNL     1      33.925 -15.034 -25.045  0.00  0.00    +0.154 HD
ENDBRANCH  24  28
ENDBRANCH   2  24
TORSDOF 5
ENDMDL
MODEL 5
REMARK VINA RESULT:     -13.7      2.767     11.205
REMARK  Name = 11560856
REMARK  5 active torsions:
REMARK  status: ('A' for Active; 'I' for Inactive)
REMARK    1  A    between atoms: C_2  and  O_24
REMARK    2  A    between atoms: C_3  and  N_10
REMARK    3  A    between atoms: C_12  and  C_16
REMARK    4  A    between atoms: C_16  and  C_18
REMARK    5  A    between atoms: O_24  and  C_28
REMARK                            x       y       z     vdW  Elec       q    Type
REMARK                         _______ _______ _______ _____ _____    ______ ____
ROOT
ATOM      1  F   UNL     1      35.265 -17.994 -24.659  0.00  0.00    -0.201 F 
ATOM      2  C   UNL     1      35.277 -17.672 -22.309  0.00  0.00    +0.173 C 
ATOM      3  C   UNL     1      34.409 -15.068 -22.676  0.00  0.00    +0.054 C 
ATOM      4  C   UNL     1      35.060 -17.206 -23.595  0.00  0.00    +0.176 C 
ATOM      5  C   UNL     1      35.070 -16.865 -21.202  0.00  0.00    +0.041 C 
ATOM      6  C   UNL     1      34.621 -15.895 -23.779  0.00  0.00    +0.047 C 
ATOM      7  C   UNL     1      34.633 -15.554 -21.388  0.00  0.00    +0.018 C 
ENDROOT
BRANCH   3  10
ATOM      8  O   UNL     1      30.812 -11.124 -21.623  0.00  0.00    -0.274 OA
ATOM      9  O   UNL     1      32.030 -13.637 -21.533  0.00  0.00    -0.252 OA
ATOM     10  N   UNL     1      33.969 -13.757 -22.861  0.00  0.00    -0.268 N 
ATOM     11  N   UNL     1      32.748 -11.789 -22.742  0.00  0.00    -0.239 N 
ATOM     12  C   UNL     1      31.750 -10.881 -22.379  0.00  0.00    +0.234 C 
ATOM     13  C   UNL     1      32.839 -13.124 -22.301  0.00  0.00    +0.310 C 
ATOM     14  H   UNL     1      34.517 -13.202 -23.461  0.00  0.00    +0.156 HD
ATOM     15  H   UNL     1      33.446 -11.469 -23.358  0.00  0.00    +0.159 HD
BRANCH  12  16
ATOM     16  C   UNL     1      31.963  -9.534 -23.042  0.00  0.00    +0.112 C 
BRANCH  16  18
ATOM     17  F   UNL     1      32.408  -5.293 -19.379  0.00  0.00    -0.204 F 
ATOM     18  C   UNL     1      32.081  -8.398 -22.060  0.00  0.00    -0.013 C 
ATOM     19  C   UNL     1      32.756  -8.597 -20.863  0.00  0.00    -0.001 C 
ATOM     20  C   UNL     1      31.515  -7.169 -22.367  0.00  0.00    -0.001 C 
ATOM     21  C   UNL     1      32.865  -7.544 -19.954  0.00  0.00    +0.029 C 
ATOM     22  C   UNL     1      31.625  -6.116 -21.457  0.00  0.00    +0.029 C 
ATOM     23  C   UNL     1      32.301  -6.304 -20.252  0.00  0.00    +0.140 C 
ENDBRANCH  16  18
ENDBRANCH  12  16
ENDBRANCH   3  10
BRANCH   2  24
ATOM     24  O   UNL     1      35.710 -18.971 -22.125  0.00  0.00    -0.451 OA
BRANCH  24  28
ATOM     25  N   UNL     1      35.414 -22.078 -18.671  0.00  0.00    -0.297 N 
ATOM     26  N   UNL     1      33.321 -21.462 -19.693  0.00  0.00    -0.229 NA
ATOM     27  C   UNL     1      35.521 -20.590 -20.332  0.00  0.00    +0.067 C 
ATOM     28  C   UNL     1      34.951 -19.782 -21.330  0.00  0.00    +0.150 C 
ATOM     29  C   UNL     1      34.659 -21.379 -19.576  0.00  0.00    +0.135 C 
ATOM     30  C   UNL     1      36.834 -20.836 -19.850  0.00  0.00    +0.022 C 
ATOM     31  C   UNL     1      36.736 -21.756 -18.827  0.00  0.00    +0.063 C 
ATOM     32  C   UNL     1      33.568 -19.830 -21.493  0.00  0.00    +0.058 C 
ATOM     33  C   UNL     1      32.826 -20.666 -20.669  0.00  0.00    +0.103 C 
ATOM     34  H   UNL     1      35.059 -22.715 -18.008  0.00  0.00    +0.154 HD
ENDBRANCH  24  28
ENDBRANCH   2  24
TORSDOF 5
ENDMDL
MODEL 6
REMARK VINA RESULT:     -13.5      5.010      8.185
REMARK  Name = 11560856
REMARK  5 active torsions:
REMARK  status: ('A' for Active; 'I' for Inactive)
REMARK    1  A    between atoms: C_2  and  O_24
REMARK    2  A    between atoms: C_3  and  N_10
REMARK    3  A    between atoms: C_12  and  C_16
REMARK    4  A    between atoms: C_16  and  C_18
REMARK    5  A    between atoms: O_24  and  C_28
REMARK                            x       y       z     vdW  Elec       q    Type
REMARK                         _______ _______ _______ _____ _____    ______ ____
ROOT
ATOM      1  F   UNL     1      38.039 -18.430 -22.089  0.00  0.00    -0.201 F 
ATOM      2  C   UNL     1      35.702 -18.821 -22.216  0.00  0.00    +0.173 C 
ATOM      3  C   UNL     1      35.922 -20.700 -20.195  0.00  0.00    +0.054 C 
ATOM      4  C   UNL     1      36.946 -19.076 -21.661  0.00  0.00    +0.176 C 
ATOM      5  C   UNL     1      34.567 -19.484 -21.783  0.00  0.00    +0.041 C 
ATOM      6  C   UNL     1      37.055 -20.022 -20.643  0.00  0.00    +0.047 C 
ATOM      7  C   UNL     1      34.678 -20.430 -20.764  0.00  0.00    +0.018 C 
ENDROOT
BRANCH   3  10
ATOM      8  O   UNL     1      37.894 -22.169 -15.341  0.00  0.00    -0.274 OA
ATOM      9  O   UNL     1      37.412 -20.584 -17.590  0.00  0.00    -0.252 OA
ATOM     10  N   UNL     1      36.032 -21.645 -19.174  0.00  0.00    -0.268 N 
ATOM     11  N   UNL     1      36.602 -22.726 -17.203  0.00  0.00    -0.239 N 
ATOM     12  C   UNL     1      37.179 -22.960 -15.952  0.00  0.00    +0.234 C 
ATOM     13  C   UNL     1      36.747 -21.547 -17.962  0.00  0.00    +0.310 C 
ATOM     14  H   UNL     1      35.550 -22.490 -19.319  0.00  0.00    +0.156 HD
ATOM     15  H   UNL     1      36.048 -23.444 -17.586  0.00  0.00    +0.159 HD
BRANCH  12  16
ATOM     16  C   UNL     1      36.813 -24.335 -15.426  0.00  0.00    +0.112 C 
BRANCH  16  18
ATOM     17  F   UNL     1      35.759 -24.396  -9.905  0.00  0.00    -0.204 F 
ATOM     18  C   UNL     1      36.530 -24.353 -13.946  0.00  0.00    -0.013 C 
ATOM     19  C   UNL     1      37.554 -24.652 -13.059  0.00  0.00    -0.001 C 
ATOM     20  C   UNL     1      35.251 -24.068 -13.493  0.00  0.00    -0.001 C 
ATOM     21  C   UNL     1      37.293 -24.667 -11.689  0.00  0.00    +0.029 C 
ATOM     22  C   UNL     1      34.989 -24.083 -12.123  0.00  0.00    +0.029 C 
ATOM     23  C   UNL     1      36.010 -24.382 -11.221  0.00  0.00    +0.140 C 
ENDBRANCH  16  18
ENDBRANCH  12  16
ENDBRANCH   3  10
BRANCH   2  24
ATOM     24  O   UNL     1      35.593 -17.883 -23.224  0.00  0.00    -0.451 OA
BRANCH  24  28
ATOM     25  N   UNL     1      33.146 -14.162 -24.582  0.00  0.00    -0.297 N 
ATOM     26  N   UNL     1      33.706 -14.236 -22.240  0.00  0.00    -0.229 NA
ATOM     27  C   UNL     1      34.320 -15.934 -23.898  0.00  0.00    +0.067 C 
ATOM     28  C   UNL     1      34.978 -16.701 -22.922  0.00  0.00    +0.150 C 
ATOM     29  C   UNL     1      33.724 -14.745 -23.486  0.00  0.00    +0.135 C 
ATOM     30  C   UNL     1      34.081 -16.052 -25.293  0.00  0.00    +0.022 C 
ATOM     31  C   UNL     1      33.355 -14.947 -25.686  0.00  0.00    +0.063 C 
ATOM     32  C   UNL     1      34.988 -16.218 -21.615  0.00  0.00    +0.058 C 
ATOM     33  C   UNL     1      34.354 -15.013 -21.342  0.00  0.00    +0.103 C 
ATOM     34  H   UNL     1      32.653 -13.309 -24.577  0.00  0.00    +0.154 HD
ENDBRANCH  24  28
ENDBRANCH   2  24
TORSDOF 5
ENDMDL
MODEL 7
REMARK VINA RESULT:     -13.5      5.857     13.300
REMARK  Name = 11560856
REMARK  5 active torsions:
REMARK  status: ('A' for Active; 'I' for Inactive)
REMARK    1  A    between atoms: C_2  and  O_24
REMARK    2  A    between atoms: C_3  and  N_10
REMARK    3  A    between atoms: C_12  and  C_16
REMARK    4  A    between atoms: C_16  and  C_18
REMARK    5  A    between atoms: O_24  and  C_28
REMARK                            x       y       z     vdW  Elec       q    Type
REMARK                         _______ _______ _______ _____ _____    ______ ____
ROOT
ATOM      1  F   UNL     1      32.542 -23.918 -16.520  0.00  0.00    -0.201 F 
ATOM      2  C   UNL     1      34.818 -23.313 -16.234  0.00  0.00    +0.173 C 
ATOM      3  C   UNL     1      34.773 -22.042 -18.694  0.00  0.00    +0.054 C 
ATOM      4  C   UNL     1      33.647 -23.313 -16.975  0.00  0.00    +0.176 C 
ATOM      5  C   UNL     1      35.966 -22.692 -16.696  0.00  0.00    +0.041 C 
ATOM      6  C   UNL     1      33.625 -22.671 -18.213  0.00  0.00    +0.047 C 
ATOM      7  C   UNL     1      35.943 -22.051 -17.935  0.00  0.00    +0.018 C 
ENDROOT
BRANCH   3  10
ATOM      8  O   UNL     1      37.014 -18.565 -22.228  0.00  0.00    -0.274 OA
ATOM      9  O   UNL     1      36.678 -20.051 -19.887  0.00  0.00    -0.252 OA
ATOM     10  N   UNL     1      34.749 -21.399 -19.932  0.00  0.00    -0.268 N 
ATOM     11  N   UNL     1      35.284 -20.054 -21.744  0.00  0.00    -0.239 N 
ATOM     12  C   UNL     1      35.973 -19.138 -22.543  0.00  0.00    +0.234 C 
ATOM     13  C   UNL     1      35.671 -20.466 -20.454  0.00  0.00    +0.310 C 
ATOM     14  H   UNL     1      33.992 -21.625 -20.518  0.00  0.00    +0.156 HD
ATOM     15  H   UNL     1      34.459 -20.444 -22.114  0.00  0.00    +0.159 HD
BRANCH  12  16
ATOM     16  C   UNL     1      35.272 -18.929 -23.872  0.00  0.00    +0.112 C 
BRANCH  16  18
ATOM     17  F   UNL     1      33.665 -13.611 -24.729  0.00  0.00    -0.204 F 
ATOM     18  C   UNL     1      34.840 -17.504 -24.101  0.00  0.00    -0.013 C 
ATOM     19  C   UNL     1      34.894 -16.597 -23.052  0.00  0.00    -0.001 C 
ATOM     20  C   UNL     1      34.397 -17.120 -25.358  0.00  0.00    -0.001 C 
ATOM     21  C   UNL     1      34.495 -15.277 -23.265  0.00  0.00    +0.029 C 
ATOM     22  C   UNL     1      33.997 -15.800 -25.571  0.00  0.00    +0.029 C 
ATOM     23  C   UNL     1      34.048 -14.879 -24.525  0.00  0.00    +0.140 C 
ENDBRANCH  16  18
ENDBRANCH  12  16
ENDBRANCH   3  10
BRANCH   2  24
ATOM     24  O   UNL     1      34.840 -23.947 -15.007  0.00  0.00    -0.451 OA
BRANCH  24  28
ATOM     25  N   UNL     1      38.662 -25.098 -12.611  0.00  0.00    -0.297 N 
ATOM     26  N   UNL     1      37.984 -26.675 -14.301  0.00  0.00    -0.229 NA
ATOM     27  C   UNL     1      36.833 -24.575 -13.779  0.00  0.00    +0.067 C 
ATOM     28  C   UNL     1      35.864 -24.819 -14.766  0.00  0.00    +0.150 C 
ATOM     29  C   UNL     1      37.833 -25.529 -13.613  0.00  0.00    +0.135 C 
ATOM     30  C   UNL     1      37.085 -23.544 -12.836  0.00  0.00    +0.022 C 
ATOM     31  C   UNL     1      38.218 -23.894 -12.131  0.00  0.00    +0.063 C 
ATOM     32  C   UNL     1      35.973 -25.994 -15.508  0.00  0.00    +0.058 C 
ATOM     33  C   UNL     1      37.026 -26.859 -15.238  0.00  0.00    +0.103 C 
ATOM     34  H   UNL     1      39.456 -25.581 -12.285  0.00  0.00    +0.154 HD
ENDBRANCH  24  28
ENDBRANCH   2  24
TORSDOF 5
ENDMDL
MODEL 8
REMARK VINA RESULT:     -13.4      4.330     11.352
REMARK  Name = 11560856
REMARK  5 active torsions:
REMARK  status: ('A' for Active; 'I' for Inactive)
REMARK    1  A    between atoms: C_2  and  O_24
REMARK    2  A    between atoms: C_3  and  N_10
REMARK    3  A    between atoms: C_12  and  C_16
REMARK    4  A    between atoms: C_16  and  C_18
REMARK    5  A    between atoms: O_24  and  C_28
REMARK                            x       y       z     vdW  Elec       q    Type
REMARK                         _______ _______ _______ _____ _____    ______ ____
ROOT
ATOM      1  F   UNL     1      32.360 -21.836 -19.196  0.00  0.00    -0.201 F 
ATOM      2  C   UNL     1      34.710 -22.040 -19.451  0.00  0.00    +0.173 C 
ATOM      3  C   UNL     1      34.729 -19.729 -20.976  0.00  0.00    +0.054 C 
ATOM      4  C   UNL     1      33.518 -21.376 -19.690  0.00  0.00    +0.176 C 
ATOM      5  C   UNL     1      35.911 -21.575 -19.958  0.00  0.00    +0.041 C 
ATOM      6  C   UNL     1      33.529 -20.212 -20.457  0.00  0.00    +0.047 C 
ATOM      7  C   UNL     1      35.921 -20.411 -20.726  0.00  0.00    +0.018 C 
ENDROOT
BRANCH   3  10
ATOM      8  O   UNL     1      34.893 -17.307 -25.845  0.00  0.00    -0.274 OA
ATOM      9  O   UNL     1      34.851 -19.363 -23.954  0.00  0.00    -0.252 OA
ATOM     10  N   UNL     1      34.740 -18.564 -21.743  0.00  0.00    -0.268 N 
ATOM     11  N   UNL     1      34.787 -17.081 -23.526  0.00  0.00    -0.239 N 
ATOM     12  C   UNL     1      34.835 -16.605 -24.839  0.00  0.00    +0.234 C 
ATOM     13  C   UNL     1      34.798 -18.438 -23.147  0.00  0.00    +0.310 C 
ATOM     14  H   UNL     1      34.702 -17.719 -21.240  0.00  0.00    +0.156 HD
ATOM     15  H   UNL     1      34.743 -16.412 -22.805  0.00  0.00    +0.159 HD
BRANCH  12  16
ATOM     16  C   UNL     1      34.808 -15.089 -24.876  0.00  0.00    +0.112 C 
BRANCH  16  18
ATOM     17  F   UNL     1      32.150 -12.804 -20.482  0.00  0.00    -0.204 F 
ATOM     18  C   UNL     1      34.096 -14.476 -23.699  0.00  0.00    -0.013 C 
ATOM     19  C   UNL     1      32.961 -13.706 -23.912  0.00  0.00    -0.001 C 
ATOM     20  C   UNL     1      34.585 -14.691 -22.419  0.00  0.00    -0.001 C 
ATOM     21  C   UNL     1      32.302 -13.139 -22.821  0.00  0.00    +0.029 C 
ATOM     22  C   UNL     1      33.926 -14.124 -21.328  0.00  0.00    +0.029 C 
ATOM     23  C   UNL     1      32.785 -13.349 -21.529  0.00  0.00    +0.140 C 
ENDBRANCH  16  18
ENDBRANCH  12  16
ENDBRANCH   3  10
BRANCH   2  24
ATOM     24  O   UNL     1      34.700 -23.193 -18.690  0.00  0.00    -0.451 OA
BRANCH  24  28
ATOM     25  N   UNL     1      33.100 -23.285 -14.318  0.00  0.00    -0.297 N 
ATOM     26  N   UNL     1      35.446 -22.788 -14.553  0.00  0.00    -0.229 NA
ATOM     27  C   UNL     1      33.899 -23.232 -16.403  0.00  0.00    +0.067 C 
ATOM     28  C   UNL     1      34.924 -23.065 -17.348  0.00  0.00    +0.150 C 
ATOM     29  C   UNL     1      34.234 -23.082 -15.060  0.00  0.00    +0.135 C 
ATOM     30  C   UNL     1      32.513 -23.537 -16.450  0.00  0.00    +0.022 C 
ATOM     31  C   UNL     1      32.049 -23.563 -15.152  0.00  0.00    +0.063 C 
ATOM     32  C   UNL     1      36.200 -22.760 -16.876  0.00  0.00    +0.058 C 
ATOM     33  C   UNL     1      36.394 -22.636 -15.507  0.00  0.00    +0.103 C 
ATOM     34  H   UNL     1      33.050 -23.240 -13.336  0.00  0.00    +0.154 HD
ENDBRANCH  24  28
ENDBRANCH   2  24
TORSDOF 5
ENDMDL
MODEL 9
REMARK VINA RESULT:     -13.2      5.839     13.276
REMARK  Name = 11560856
REMARK  5 active torsions:
REMARK  status: ('A' for Active; 'I' for Inactive)
REMARK    1  A    between atoms: C_2  and  O_24
REMARK    2  A    between atoms: C_3  and  N_10
REMARK    3  A    between atoms: C_12  and  C_16
REMARK    4  A    between atoms: C_16  and  C_18
REMARK    5  A    between atoms: O_24  and  C_28
REMARK                            x       y       z     vdW  Elec       q    Type
REMARK                         _______ _______ _______ _____ _____    ______ ____
ROOT
ATOM      1  F   UNL     1      33.538 -23.913 -16.647  0.00  0.00    -0.201 F 
ATOM      2  C   UNL     1      35.732 -23.307 -15.980  0.00  0.00    +0.173 C 
ATOM      3  C   UNL     1      35.992 -21.780 -18.275  0.00  0.00    +0.054 C 
ATOM      4  C   UNL     1      34.677 -23.246 -16.875  0.00  0.00    +0.176 C 
ATOM      5  C   UNL     1      36.914 -22.623 -16.206  0.00  0.00    +0.041 C 
ATOM      6  C   UNL     1      34.808 -22.475 -18.030  0.00  0.00    +0.047 C 
ATOM      7  C   UNL     1      37.045 -21.854 -17.362  0.00  0.00    +0.018 C 
ENDROOT
BRANCH   3  10
ATOM      8  O   UNL     1      33.779 -19.582 -22.732  0.00  0.00    -0.274 OA
ATOM      9  O   UNL     1      33.959 -21.039 -20.356  0.00  0.00    -0.252 OA
ATOM     10  N   UNL     1      36.122 -21.009 -19.430  0.00  0.00    -0.268 N 
ATOM     11  N   UNL     1      35.676 -19.880 -21.406  0.00  0.00    -0.239 N 
ATOM     12  C   UNL     1      34.971 -19.384 -22.506  0.00  0.00    +0.234 C 
ATOM     13  C   UNL     1      35.134 -20.685 -20.384  0.00  0.00    +0.310 C 
ATOM     14  H   UNL     1      37.019 -20.643 -19.602  0.00  0.00    +0.156 HD
ATOM     15  H   UNL     1      36.630 -19.649 -21.341  0.00  0.00    +0.159 HD
BRANCH  12  16
ATOM     16  C   UNL     1      35.867 -18.556 -23.406  0.00  0.00    +0.112 C 
BRANCH  16  18
ATOM     17  F   UNL     1      33.437 -13.824 -25.223  0.00  0.00    -0.204 F 
ATOM     18  C   UNL     1      35.217 -17.288 -23.894  0.00  0.00    -0.013 C 
ATOM     19  C   UNL     1      34.581 -17.277 -25.127  0.00  0.00    -0.001 C 
ATOM     20  C   UNL     1      35.262 -16.150 -23.101  0.00  0.00    -0.001 C 
ATOM     21  C   UNL     1      33.978 -16.102 -25.578  0.00  0.00    +0.029 C 
ATOM     22  C   UNL     1      34.659 -14.975 -23.552  0.00  0.00    +0.029 C 
ATOM     23  C   UNL     1      34.017 -14.952 -24.789  0.00  0.00    +0.140 C 
ENDBRANCH  16  18
ENDBRANCH  12  16
ENDBRANCH   3  10
BRANCH   2  24
ATOM     24  O   UNL     1      35.602 -24.069 -14.835  0.00  0.00    -0.451 OA
BRANCH  24  28
ATOM     25  N   UNL     1      39.820 -25.468 -13.446  0.00  0.00    -0.297 N 
ATOM     26  N   UNL     1      38.724 -23.886 -11.997  0.00  0.00    -0.229 NA
ATOM     27  C   UNL     1      37.794 -24.777 -14.083  0.00  0.00    +0.067 C 
ATOM     28  C   UNL     1      36.621 -24.021 -13.926  0.00  0.00    +0.150 C 
ATOM     29  C   UNL     1      38.772 -24.655 -13.100  0.00  0.00    +0.135 C 
ATOM     30  C   UNL     1      38.289 -25.699 -15.044  0.00  0.00    +0.022 C 
ATOM     31  C   UNL     1      39.538 -26.107 -14.625  0.00  0.00    +0.063 C 
ATOM     32  C   UNL     1      36.519 -23.206 -12.800  0.00  0.00    +0.058 C 
ATOM     33  C   UNL     1      37.573 -23.181 -11.895  0.00  0.00    +0.103 C 
ATOM     34  H   UNL     1      40.649 -25.576 -12.926  0.00  0.00    +0.154 HD
ENDBRANCH  24  28
ENDBRANCH   2  24
TORSDOF 5
ENDMDL
