MODEL 1
REMARK VINA RESULT:     -13.6      0.000      0.000
REMARK  Name = 6914657
REMARK  8 active torsions:
REMARK  status: ('A' for Active; 'I' for Inactive)
REMARK    1  A    between atoms: C_1  and  C_4
REMARK    2  A    between atoms: C_1  and  C_16
REMARK    3  A    between atoms: C_9  and  C_10
REMARK    4  A    between atoms: C_16  and  C_17
REMARK    5  A    between atoms: C_17  and  C_18
REMARK    6  A    between atoms: C_18  and  N_20
REMARK    7  A    between atoms: C_21  and  C_23
REMARK    8  A    between atoms: C_24  and  C_26
REMARK                            x       y       z     vdW  Elec       q    Type
REMARK                         _______ _______ _______ _____ _____    ______ ____
ROOT
ATOM      1  C   UNL     1      32.404 -13.532 -21.310  0.00  0.00    +0.000 C 
ENDROOT
BRANCH   1   4
ATOM      2  O   UNL     1      33.064  -7.444 -20.186  0.00  0.00    -0.270 OA
ATOM      3  N   UNL     1      32.155  -9.244 -21.369  0.00  0.00    -0.276 N 
ATOM      4  C   UNL     1      31.823 -12.122 -21.379  0.00  0.00    +0.003 C 
ATOM      5  C   UNL     1      32.369 -11.364 -22.600  0.00  0.00    +0.022 C 
ATOM      6  C   UNL     1      32.125 -11.343 -20.088  0.00  0.00    +0.022 C 
ATOM      7  C   UNL     1      31.853  -9.927 -22.633  0.00  0.00    +0.094 C 
ATOM      8  C   UNL     1      31.622  -9.903 -20.177  0.00  0.00    +0.094 C 
ATOM      9  C   UNL     1      32.847  -8.038 -21.240  0.00  0.00    +0.249 C 
BRANCH   9  10
ATOM     10  C   UNL     1      33.379  -7.412 -22.457  0.00  0.00    +0.054 C 
ATOM     11  C   UNL     1      32.594  -6.512 -23.179  0.00  0.00    +0.005 C 
ATOM     12  C   UNL     1      34.669  -7.715 -22.890  0.00  0.00    +0.005 C 
ATOM     13  C   UNL     1      33.100  -5.918 -24.335  0.00  0.00    +0.000 C 
ATOM     14  C   UNL     1      35.176  -7.119 -24.046  0.00  0.00    +0.000 C 
ATOM     15  C   UNL     1      34.390  -6.221 -24.769  0.00  0.00    +0.000 C 
ENDBRANCH   9  10
ENDBRANCH   1   4
BRANCH   1  16
ATOM     16  C   UNL     1      33.030 -13.937 -22.642  0.00  0.00    +0.002 C 
BRANCH  16  17
ATOM     17  C   UNL     1      34.499 -14.321 -22.465  0.00  0.00    +0.021 C 
BRANCH  17  18
ATOM     18  C   UNL     1      34.935 -15.344 -23.507  0.00  0.00    +0.090 C 
BRANCH  18  20
ATOM     19  O   UNL     1      34.984 -17.805 -25.035  0.00  0.00    -0.270 OA
ATOM     20  N   UNL     1      34.841 -16.686 -23.001  0.00  0.00    -0.301 N 
ATOM     21  C   UNL     1      34.874 -17.813 -23.813  0.00  0.00    +0.246 C 
ATOM     22  H   UNL     1      34.750 -16.813 -22.029  0.00  0.00    +0.150 HD
BRANCH  21  23
ATOM     23  C   UNL     1      34.760 -19.074 -23.027  0.00  0.00    +0.058 C 
ATOM     24  C   UNL     1      34.625 -19.023 -21.694  0.00  0.00    +0.006 C 
BRANCH  24  26
ATOM     25  N   UNL     1      33.059 -21.749 -19.642  0.00  0.00    -0.242 NA
ATOM     26  C   UNL     1      34.495 -20.202 -20.821  0.00  0.00    +0.019 C 
ATOM     27  C   UNL     1      35.617 -20.875 -20.351  0.00  0.00    +0.003 C 
ATOM     28  C   UNL     1      33.249 -20.675 -20.441  0.00  0.00    +0.099 C 
ATOM     29  C   UNL     1      35.462 -21.984 -19.527  0.00  0.00    +0.021 C 
ATOM     30  C   UNL     1      34.174 -22.377 -19.205  0.00  0.00    +0.099 C 
ENDBRANCH  24  26
ENDBRANCH  21  23
ENDBRANCH  18  20
ENDBRANCH  17  18
ENDBRANCH  16  17
ENDBRANCH   1  16
TORSDOF 8
ENDMDL
MODEL 2
REMARK VINA RESULT:     -12.5      3.539      7.031
REMARK  Name = 6914657
REMARK  8 active torsions:
REMARK  status: ('A' for Active; 'I' for Inactive)
REMARK    1  A    between atoms: C_1  and  C_4
REMARK    2  A    between atoms: C_1  and  C_16
REMARK    3  A    between atoms: C_9  and  C_10
REMARK    4  A    between atoms: C_16  and  C_17
REMARK    5  A    between atoms: C_17  and  C_18
REMARK    6  A    between atoms: C_18  and  N_20
REMARK    7  A    between atoms: C_21  and  C_23
REMARK    8  A    between atoms: C_24  and  C_26
REMARK                            x       y       z     vdW  Elec       q    Type
REMARK                         _______ _______ _______ _____ _____    ______ ____
ROOT
ATOM      1  C   UNL     1      35.227 -19.644 -22.906  0.00  0.00    +0.000 C 
ENDROOT
BRANCH   1   4
ATOM      2  O   UNL     1      32.900 -14.386 -25.295  0.00  0.00    -0.270 OA
ATOM      3  N   UNL     1      34.407 -15.558 -23.945  0.00  0.00    -0.276 N 
ATOM      4  C   UNL     1      35.442 -18.188 -23.312  0.00  0.00    +0.003 C 
ATOM      5  C   UNL     1      34.929 -17.234 -22.221  0.00  0.00    +0.022 C 
ATOM      6  C   UNL     1      34.751 -17.887 -24.653  0.00  0.00    +0.022 C 
ATOM      7  C   UNL     1      35.070 -15.777 -22.653  0.00  0.00    +0.094 C 
ATOM      8  C   UNL     1      34.887 -16.413 -25.029  0.00  0.00    +0.094 C 
ATOM      9  C   UNL     1      33.425 -14.598 -24.204  0.00  0.00    +0.249 C 
BRANCH   9  10
ATOM     10  C   UNL     1      32.958 -13.766 -23.088  0.00  0.00    +0.054 C 
ATOM     11  C   UNL     1      32.731 -14.341 -21.837  0.00  0.00    +0.005 C 
ATOM     12  C   UNL     1      32.741 -12.402 -23.278  0.00  0.00    +0.005 C 
ATOM     13  C   UNL     1      32.287 -13.551 -20.777  0.00  0.00    +0.000 C 
ATOM     14  C   UNL     1      32.297 -11.612 -22.217  0.00  0.00    +0.000 C 
ATOM     15  C   UNL     1      32.070 -12.187 -20.967  0.00  0.00    +0.000 C 
ENDBRANCH   9  10
ENDBRANCH   1   4
BRANCH   1  16
ATOM     16  C   UNL     1      34.912 -19.762 -21.417  0.00  0.00    +0.002 C 
BRANCH  16  17
ATOM     17  C   UNL     1      36.158 -20.147 -20.620  0.00  0.00    +0.021 C 
BRANCH  17  18
ATOM     18  C   UNL     1      36.084 -21.592 -20.140  0.00  0.00    +0.090 C 
BRANCH  18  20
ATOM     19  O   UNL     1      34.098 -23.699 -20.043  0.00  0.00    -0.270 OA
ATOM     20  N   UNL     1      35.050 -21.771 -19.158  0.00  0.00    -0.301 N 
ATOM     21  C   UNL     1      34.137 -22.817 -19.191  0.00  0.00    +0.246 C 
ATOM     22  H   UNL     1      34.987 -21.118 -18.423  0.00  0.00    +0.150 HD
BRANCH  21  23
ATOM     23  C   UNL     1      33.177 -22.760 -18.052  0.00  0.00    +0.058 C 
ATOM     24  C   UNL     1      33.420 -23.464 -16.937  0.00  0.00    +0.006 C 
BRANCH  24  26
ATOM     25  N   UNL     1      32.297 -23.870 -13.376  0.00  0.00    -0.242 NA
ATOM     26  C   UNL     1      32.548 -23.476 -15.749  0.00  0.00    +0.019 C 
ATOM     27  C   UNL     1      31.206 -23.127 -15.840  0.00  0.00    +0.003 C 
ATOM     28  C   UNL     1      33.041 -23.837 -14.505  0.00  0.00    +0.099 C 
ATOM     29  C   UNL     1      30.408 -23.148 -14.702  0.00  0.00    +0.021 C 
ATOM     30  C   UNL     1      30.996 -23.524 -13.505  0.00  0.00    +0.099 C 
ENDBRANCH  24  26
ENDBRANCH  21  23
ENDBRANCH  18  20
ENDBRANCH  17  18
ENDBRANCH  16  17
ENDBRANCH   1  16
TORSDOF 8
ENDMDL
MODEL 3
REMARK VINA RESULT:     -12.3      4.139      7.608
REMARK  Name = 6914657
REMARK  8 active torsions:
REMARK  status: ('A' for Active; 'I' for Inactive)
REMARK    1  A    between atoms: C_1  and  C_4
REMARK    2  A    between atoms: C_1  and  C_16
REMARK    3  A    between atoms: C_9  and  C_10
REMARK    4  A    between atoms: C_16  and  C_17
REMARK    5  A    between atoms: C_17  and  C_18
REMARK    6  A    between atoms: C_18  and  N_20
REMARK    7  A    between atoms: C_21  and  C_23
REMARK    8  A    between atoms: C_24  and  C_26
REMARK                            x       y       z     vdW  Elec       q    Type
REMARK                         _______ _______ _______ _____ _____    ______ ____
ROOT
ATOM      1  C   UNL     1      34.920 -19.756 -22.501  0.00  0.00    +0.000 C 
ENDROOT
BRANCH   1   4
ATOM      2  O   UNL     1      33.072 -15.060 -26.148  0.00  0.00    -0.270 OA
ATOM      3  N   UNL     1      34.516 -16.018 -24.578  0.00  0.00    -0.276 N 
ATOM      4  C   UNL     1      35.276 -18.498 -23.291  0.00  0.00    +0.003 C 
ATOM      5  C   UNL     1      34.948 -17.233 -22.482  0.00  0.00    +0.022 C 
ATOM      6  C   UNL     1      34.542 -18.475 -24.641  0.00  0.00    +0.022 C 
ATOM      7  C   UNL     1      35.230 -15.972 -23.296  0.00  0.00    +0.094 C 
ATOM      8  C   UNL     1      34.824 -17.183 -25.405  0.00  0.00    +0.094 C 
ATOM      9  C   UNL     1      33.638 -15.042 -25.056  0.00  0.00    +0.249 C 
BRANCH   9  10
ATOM     10  C   UNL     1      33.342 -13.893 -24.193  0.00  0.00    +0.054 C 
ATOM     11  C   UNL     1      32.615 -14.073 -23.016  0.00  0.00    +0.005 C 
ATOM     12  C   UNL     1      33.787 -12.620 -24.548  0.00  0.00    +0.005 C 
ATOM     13  C   UNL     1      32.333 -12.982 -22.195  0.00  0.00    +0.000 C 
ATOM     14  C   UNL     1      33.506 -11.528 -23.727  0.00  0.00    +0.000 C 
ATOM     15  C   UNL     1      32.778 -11.709 -22.551  0.00  0.00    +0.000 C 
ENDBRANCH   9  10
ENDBRANCH   1   4
BRANCH   1  16
ATOM     16  C   UNL     1      34.996 -19.503 -20.997  0.00  0.00    +0.002 C 
BRANCH  16  17
ATOM     17  C   UNL     1      34.966 -20.817 -20.217  0.00  0.00    +0.021 C 
BRANCH  17  18
ATOM     18  C   UNL     1      36.362 -21.227 -19.766  0.00  0.00    +0.090 C 
BRANCH  18  20
ATOM     19  O   UNL     1      37.626 -20.567 -17.243  0.00  0.00    -0.270 OA
ATOM     20  N   UNL     1      36.323 -21.986 -18.546  0.00  0.00    -0.301 N 
ATOM     21  C   UNL     1      36.962 -21.590 -17.378  0.00  0.00    +0.246 C 
ATOM     22  H   UNL     1      35.816 -22.830 -18.538  0.00  0.00    +0.150 HD
BRANCH  21  23
ATOM     23  C   UNL     1      36.755 -22.563 -16.267  0.00  0.00    +0.058 C 
ATOM     24  C   UNL     1      37.790 -23.272 -15.796  0.00  0.00    +0.006 C 
BRANCH  24  26
ATOM     25  N   UNL     1      37.745 -26.561 -13.986  0.00  0.00    -0.242 NA
ATOM     26  C   UNL     1      37.704 -24.251 -14.699  0.00  0.00    +0.019 C 
ATOM     27  C   UNL     1      37.508 -23.842 -13.385  0.00  0.00    +0.003 C 
ATOM     28  C   UNL     1      37.816 -25.611 -14.945  0.00  0.00    +0.099 C 
ATOM     29  C   UNL     1      37.430 -24.790 -12.371  0.00  0.00    +0.021 C 
ATOM     30  C   UNL     1      37.553 -26.125 -12.721  0.00  0.00    +0.099 C 
ENDBRANCH  24  26
ENDBRANCH  21  23
ENDBRANCH  18  20
ENDBRANCH  17  18
ENDBRANCH  16  17
ENDBRANCH   1  16
TORSDOF 8
ENDMDL
MODEL 4
REMARK VINA RESULT:     -12.1      6.321     10.325
REMARK  Name = 6914657
REMARK  8 active torsions:
REMARK  status: ('A' for Active; 'I' for Inactive)
REMARK    1  A    between atoms: C_1  and  C_4
REMARK    2  A    between atoms: C_1  and  C_16
REMARK    3  A    between atoms: C_9  and  C_10
REMARK    4  A    between atoms: C_16  and  C_17
REMARK    5  A    between atoms: C_17  and  C_18
REMARK    6  A    between atoms: C_18  and  N_20
REMARK    7  A    between atoms: C_21  and  C_23
REMARK    8  A    between atoms: C_24  and  C_26
REMARK                            x       y       z     vdW  Elec       q    Type
REMARK                         _______ _______ _______ _____ _____    ______ ____
ROOT
ATOM      1  C   UNL     1      33.965 -22.770 -19.514  0.00  0.00    +0.000 C 
ENDROOT
BRANCH   1   4
ATOM      2  O   UNL     1      37.662 -18.809 -22.581  0.00  0.00    -0.270 OA
ATOM      3  N   UNL     1      35.829 -19.293 -21.213  0.00  0.00    -0.276 N 
ATOM      4  C   UNL     1      34.549 -21.365 -19.646  0.00  0.00    +0.003 C 
ATOM      5  C   UNL     1      33.777 -20.549 -20.695  0.00  0.00    +0.022 C 
ATOM      6  C   UNL     1      36.042 -21.425 -20.007  0.00  0.00    +0.022 C 
ATOM      7  C   UNL     1      34.402 -19.169 -20.888  0.00  0.00    +0.094 C 
ATOM      8  C   UNL     1      36.618 -20.027 -20.224  0.00  0.00    +0.094 C 
ATOM      9  C   UNL     1      36.460 -18.741 -22.330  0.00  0.00    +0.249 C 
BRANCH   9  10
ATOM     10  C   UNL     1      35.635 -18.022 -23.308  0.00  0.00    +0.054 C 
ATOM     11  C   UNL     1      35.496 -16.637 -23.219  0.00  0.00    +0.005 C 
ATOM     12  C   UNL     1      34.989 -18.723 -24.326  0.00  0.00    +0.005 C 
ATOM     13  C   UNL     1      34.712 -15.954 -24.148  0.00  0.00    +0.000 C 
ATOM     14  C   UNL     1      34.205 -18.040 -25.256  0.00  0.00    +0.000 C 
ATOM     15  C   UNL     1      34.066 -16.655 -25.166  0.00  0.00    +0.000 C 
ENDBRANCH   9  10
ENDBRANCH   1   4
BRANCH   1  16
ATOM     16  C   UNL     1      33.760 -23.148 -18.049  0.00  0.00    +0.002 C 
BRANCH  16  17
ATOM     17  C   UNL     1      32.340 -22.817 -17.590  0.00  0.00    +0.021 C 
BRANCH  17  18
ATOM     18  C   UNL     1      32.120 -23.216 -16.136  0.00  0.00    +0.090 C 
BRANCH  18  20
ATOM     19  O   UNL     1      32.458 -24.318 -13.477  0.00  0.00    -0.270 OA
ATOM     20  N   UNL     1      33.352 -23.595 -15.499  0.00  0.00    -0.301 N 
ATOM     21  C   UNL     1      33.418 -24.119 -14.215  0.00  0.00    +0.246 C 
ATOM     22  H   UNL     1      34.191 -23.479 -16.001  0.00  0.00    +0.150 HD
BRANCH  21  23
ATOM     23  C   UNL     1      34.818 -24.425 -13.805  0.00  0.00    +0.058 C 
ATOM     24  C   UNL     1      35.676 -24.949 -14.693  0.00  0.00    +0.006 C 
BRANCH  24  26
ATOM     25  N   UNL     1      38.997 -26.695 -14.825  0.00  0.00    -0.242 NA
ATOM     26  C   UNL     1      37.081 -25.283 -14.402  0.00  0.00    +0.019 C 
ATOM     27  C   UNL     1      37.816 -24.551 -13.476  0.00  0.00    +0.003 C 
ATOM     28  C   UNL     1      37.713 -26.336 -15.044  0.00  0.00    +0.099 C 
ATOM     29  C   UNL     1      39.140 -24.890 -13.223  0.00  0.00    +0.021 C 
ATOM     30  C   UNL     1      39.679 -25.961 -13.917  0.00  0.00    +0.099 C 
ENDBRANCH  24  26
ENDBRANCH  21  23
ENDBRANCH  18  20
ENDBRANCH  17  18
ENDBRANCH  16  17
ENDBRANCH   1  16
TORSDOF 8
ENDMDL
MODEL 5
REMARK VINA RESULT:     -12.1      3.840      7.645
REMARK  Name = 6914657
REMARK  8 active torsions:
REMARK  status: ('A' for Active; 'I' for Inactive)
REMARK    1  A    between atoms: C_1  and  C_4
REMARK    2  A    between atoms: C_1  and  C_16
REMARK    3  A    between atoms: C_9  and  C_10
REMARK    4  A    between atoms: C_16  and  C_17
REMARK    5  A    between atoms: C_17  and  C_18
REMARK    6  A    between atoms: C_18  and  N_20
REMARK    7  A    between atoms: C_21  and  C_23
REMARK    8  A    between atoms: C_24  and  C_26
REMARK                            x       y       z     vdW  Elec       q    Type
REMARK                         _______ _______ _______ _____ _____    ______ ____
ROOT
ATOM      1  C   UNL     1      34.753 -19.951 -21.865  0.00  0.00    +0.000 C 
ENDROOT
BRANCH   1   4
ATOM      2  O   UNL     1      33.251 -15.680 -26.139  0.00  0.00    -0.270 OA
ATOM      3  N   UNL     1      34.593 -16.490 -24.405  0.00  0.00    -0.276 N 
ATOM      4  C   UNL     1      35.194 -18.818 -22.790  0.00  0.00    +0.003 C 
ATOM      5  C   UNL     1      34.895 -17.449 -22.159  0.00  0.00    +0.022 C 
ATOM      6  C   UNL     1      34.509 -18.935 -24.162  0.00  0.00    +0.022 C 
ATOM      7  C   UNL     1      35.262 -16.312 -23.110  0.00  0.00    +0.094 C 
ATOM      8  C   UNL     1      34.877 -17.762 -25.068  0.00  0.00    +0.094 C 
ATOM      9  C   UNL     1      33.778 -15.548 -25.036  0.00  0.00    +0.249 C 
BRANCH   9  10
ATOM     10  C   UNL     1      33.504 -14.288 -24.335  0.00  0.00    +0.054 C 
ATOM     11  C   UNL     1      32.738 -14.291 -23.168  0.00  0.00    +0.005 C 
ATOM     12  C   UNL     1      34.008 -13.087 -24.833  0.00  0.00    +0.005 C 
ATOM     13  C   UNL     1      32.478 -13.094 -22.501  0.00  0.00    +0.000 C 
ATOM     14  C   UNL     1      33.749 -11.890 -24.166  0.00  0.00    +0.000 C 
ATOM     15  C   UNL     1      32.983 -11.893 -23.000  0.00  0.00    +0.000 C 
ENDBRANCH   9  10
ENDBRANCH   1   4
BRANCH   1  16
ATOM     16  C   UNL     1      35.644 -20.032 -20.628  0.00  0.00    +0.002 C 
BRANCH  16  17
ATOM     17  C   UNL     1      35.867 -21.484 -20.205  0.00  0.00    +0.021 C 
BRANCH  17  18
ATOM     18  C   UNL     1      36.672 -21.568 -18.914  0.00  0.00    +0.090 C 
BRANCH  18  20
ATOM     19  O   UNL     1      37.604 -22.595 -16.370  0.00  0.00    -0.270 OA
ATOM     20  N   UNL     1      35.871 -22.050 -17.822  0.00  0.00    -0.301 N 
ATOM     21  C   UNL     1      36.408 -22.527 -16.633  0.00  0.00    +0.246 C 
ATOM     22  H   UNL     1      34.892 -22.042 -17.923  0.00  0.00    +0.150 HD
BRANCH  21  23
ATOM     23  C   UNL     1      35.351 -22.961 -15.675  0.00  0.00    +0.058 C 
ATOM     24  C   UNL     1      34.100 -23.172 -16.108  0.00  0.00    +0.006 C 
BRANCH  24  26
ATOM     25  N   UNL     1      32.207 -24.934 -13.385  0.00  0.00    -0.242 NA
ATOM     26  C   UNL     1      32.982 -23.610 -15.255  0.00  0.00    +0.019 C 
ATOM     27  C   UNL     1      31.688 -23.152 -15.476  0.00  0.00    +0.003 C 
ATOM     28  C   UNL     1      33.187 -24.492 -14.205  0.00  0.00    +0.099 C 
ATOM     29  C   UNL     1      30.653 -23.584 -14.655  0.00  0.00    +0.021 C 
ATOM     30  C   UNL     1      30.962 -24.467 -13.633  0.00  0.00    +0.099 C 
ENDBRANCH  24  26
ENDBRANCH  21  23
ENDBRANCH  18  20
ENDBRANCH  17  18
ENDBRANCH  16  17
ENDBRANCH   1  16
TORSDOF 8
ENDMDL
MODEL 6
REMARK VINA RESULT:     -11.9      3.765      7.527
REMARK  Name = 6914657
REMARK  8 active torsions:
REMARK  status: ('A' for Active; 'I' for Inactive)
REMARK    1  A    between atoms: C_1  and  C_4
REMARK    2  A    between atoms: C_1  and  C_16
REMARK    3  A    between atoms: C_9  and  C_10
REMARK    4  A    between atoms: C_16  and  C_17
REMARK    5  A    between atoms: C_17  and  C_18
REMARK    6  A    between atoms: C_18  and  N_20
REMARK    7  A    between atoms: C_21  and  C_23
REMARK    8  A    between atoms: C_24  and  C_26
REMARK                            x       y       z     vdW  Elec       q    Type
REMARK                         _______ _______ _______ _____ _____    ______ ____
ROOT
ATOM      1  C   UNL     1      34.974 -19.774 -21.955  0.00  0.00    +0.000 C 
ENDROOT
BRANCH   1   4
ATOM      2  O   UNL     1      33.059 -15.483 -26.040  0.00  0.00    -0.270 OA
ATOM      3  N   UNL     1      34.545 -16.284 -24.422  0.00  0.00    -0.276 N 
ATOM      4  C   UNL     1      35.319 -18.618 -22.892  0.00  0.00    +0.003 C 
ATOM      5  C   UNL     1      35.035 -17.265 -22.219  0.00  0.00    +0.022 C 
ATOM      6  C   UNL     1      34.537 -18.733 -24.211  0.00  0.00    +0.022 C 
ATOM      7  C   UNL     1      35.304 -16.107 -23.178  0.00  0.00    +0.094 C 
ATOM      8  C   UNL     1      34.809 -17.539 -25.124  0.00  0.00    +0.094 C 
ATOM      9  C   UNL     1      33.664 -15.353 -24.977  0.00  0.00    +0.249 C 
BRANCH   9  10
ATOM     10  C   UNL     1      33.413 -14.110 -24.238  0.00  0.00    +0.054 C 
ATOM     11  C   UNL     1      32.663 -14.137 -23.061  0.00  0.00    +0.005 C 
ATOM     12  C   UNL     1      33.924 -12.902 -24.711  0.00  0.00    +0.005 C 
ATOM     13  C   UNL     1      32.425 -12.956 -22.359  0.00  0.00    +0.000 C 
ATOM     14  C   UNL     1      33.686 -11.720 -24.009  0.00  0.00    +0.000 C 
ATOM     15  C   UNL     1      32.936 -11.748 -22.833  0.00  0.00    +0.000 C 
ENDBRANCH   9  10
ENDBRANCH   1   4
BRANCH   1  16
ATOM     16  C   UNL     1      35.970 -19.865 -20.802  0.00  0.00    +0.002 C 
BRANCH  16  17
ATOM     17  C   UNL     1      35.991 -21.272 -20.203  0.00  0.00    +0.021 C 
BRANCH  17  18
ATOM     18  C   UNL     1      34.600 -21.703 -19.754  0.00  0.00    +0.090 C 
BRANCH  18  20
ATOM     19  O   UNL     1      32.353 -22.730 -18.240  0.00  0.00    -0.270 OA
ATOM     20  N   UNL     1      34.636 -22.355 -18.473  0.00  0.00    -0.301 N 
ATOM     21  C   UNL     1      33.502 -22.817 -17.819  0.00  0.00    +0.246 C 
ATOM     22  H   UNL     1      35.510 -22.481 -18.038  0.00  0.00    +0.150 HD
BRANCH  21  23
ATOM     23  C   UNL     1      33.828 -23.452 -16.510  0.00  0.00    +0.058 C 
ATOM     24  C   UNL     1      34.939 -23.094 -15.851  0.00  0.00    +0.006 C 
BRANCH  24  26
ATOM     25  N   UNL     1      34.732 -24.545 -12.394  0.00  0.00    -0.242 NA
ATOM     26  C   UNL     1      35.356 -23.647 -14.550  0.00  0.00    +0.019 C 
ATOM     27  C   UNL     1      36.701 -23.799 -14.232  0.00  0.00    +0.003 C 
ATOM     28  C   UNL     1      34.418 -24.032 -13.605  0.00  0.00    +0.099 C 
ATOM     29  C   UNL     1      37.063 -24.323 -12.997  0.00  0.00    +0.021 C 
ATOM     30  C   UNL     1      36.050 -24.677 -12.121  0.00  0.00    +0.099 C 
ENDBRANCH  24  26
ENDBRANCH  21  23
ENDBRANCH  18  20
ENDBRANCH  17  18
ENDBRANCH  16  17
ENDBRANCH   1  16
TORSDOF 8
ENDMDL
MODEL 7
REMARK VINA RESULT:     -11.9      7.229     11.175
REMARK  Name = 6914657
REMARK  8 active torsions:
REMARK  status: ('A' for Active; 'I' for Inactive)
REMARK    1  A    between atoms: C_1  and  C_4
REMARK    2  A    between atoms: C_1  and  C_16
REMARK    3  A    between atoms: C_9  and  C_10
REMARK    4  A    between atoms: C_16  and  C_17
REMARK    5  A    between atoms: C_17  and  C_18
REMARK    6  A    between atoms: C_18  and  N_20
REMARK    7  A    between atoms: C_21  and  C_23
REMARK    8  A    between atoms: C_24  and  C_26
REMARK                            x       y       z     vdW  Elec       q    Type
REMARK                         _______ _______ _______ _____ _____    ______ ____
ROOT
ATOM      1  C   UNL     1      36.913 -22.065 -16.303  0.00  0.00    +0.000 C 
ENDROOT
BRANCH   1   4
ATOM      2  O   UNL     1      32.716 -20.608 -20.665  0.00  0.00    -0.270 OA
ATOM      3  N   UNL     1      34.813 -21.391 -19.988  0.00  0.00    -0.276 N 
ATOM      4  C   UNL     1      36.367 -22.281 -17.712  0.00  0.00    +0.003 C 
ATOM      5  C   UNL     1      36.882 -21.197 -18.672  0.00  0.00    +0.022 C 
ATOM      6  C   UNL     1      34.829 -22.301 -17.704  0.00  0.00    +0.022 C 
ATOM      7  C   UNL     1      36.279 -21.362 -20.064  0.00  0.00    +0.094 C 
ATOM      8  C   UNL     1      34.268 -22.433 -19.119  0.00  0.00    +0.094 C 
ATOM      9  C   UNL     1      33.944 -20.556 -20.696  0.00  0.00    +0.249 C 
BRANCH   9  10
ATOM     10  C   UNL     1      34.526 -19.513 -21.549  0.00  0.00    +0.054 C 
ATOM     11  C   UNL     1      34.809 -19.784 -22.888  0.00  0.00    +0.005 C 
ATOM     12  C   UNL     1      34.797 -18.251 -21.021  0.00  0.00    +0.005 C 
ATOM     13  C   UNL     1      35.363 -18.793 -23.698  0.00  0.00    +0.000 C 
ATOM     14  C   UNL     1      35.350 -17.259 -21.832  0.00  0.00    +0.000 C 
ATOM     15  C   UNL     1      35.634 -17.531 -23.171  0.00  0.00    +0.000 C 
ENDBRANCH   9  10
ENDBRANCH   1   4
BRANCH   1  16
ATOM     16  C   UNL     1      37.658 -23.300 -15.803  0.00  0.00    +0.002 C 
BRANCH  16  17
ATOM     17  C   UNL     1      37.210 -23.679 -14.392  0.00  0.00    +0.021 C 
BRANCH  17  18
ATOM     18  C   UNL     1      36.440 -24.994 -14.387  0.00  0.00    +0.090 C 
BRANCH  18  20
ATOM     19  O   UNL     1      34.589 -24.136 -12.330  0.00  0.00    -0.270 OA
ATOM     20  N   UNL     1      35.025 -24.779 -14.522  0.00  0.00    -0.301 N 
ATOM     21  C   UNL     1      34.213 -24.365 -13.475  0.00  0.00    +0.246 C 
ATOM     22  H   UNL     1      34.612 -24.932 -15.402  0.00  0.00    +0.150 HD
BRANCH  21  23
ATOM     23  C   UNL     1      32.789 -24.220 -13.893  0.00  0.00    +0.058 C 
ATOM     24  C   UNL     1      32.493 -23.881 -15.156  0.00  0.00    +0.006 C 
BRANCH  24  26
ATOM     25  N   UNL     1      29.615 -22.585 -17.190  0.00  0.00    -0.242 NA
ATOM     26  C   UNL     1      31.126 -23.720 -15.681  0.00  0.00    +0.019 C 
ATOM     27  C   UNL     1      30.078 -24.499 -15.205  0.00  0.00    +0.003 C 
ATOM     28  C   UNL     1      30.845 -22.785 -16.665  0.00  0.00    +0.099 C 
ATOM     29  C   UNL     1      28.799 -24.323 -15.720  0.00  0.00    +0.021 C 
ATOM     30  C   UNL     1      28.621 -23.362 -16.701  0.00  0.00    +0.099 C 
ENDBRANCH  24  26
ENDBRANCH  21  23
ENDBRANCH  18  20
ENDBRANCH  17  18
ENDBRANCH  16  17
ENDBRANCH   1  16
TORSDOF 8
ENDMDL
MODEL 8
REMARK VINA RESULT:     -11.8      2.394     11.210
REMARK  Name = 6914657
REMARK  8 active torsions:
REMARK  status: ('A' for Active; 'I' for Inactive)
REMARK    1  A    between atoms: C_1  and  C_4
REMARK    2  A    between atoms: C_1  and  C_16
REMARK    3  A    between atoms: C_9  and  C_10
REMARK    4  A    between atoms: C_16  and  C_17
REMARK    5  A    between atoms: C_17  and  C_18
REMARK    6  A    between atoms: C_18  and  N_20
REMARK    7  A    between atoms: C_21  and  C_23
REMARK    8  A    between atoms: C_24  and  C_26
REMARK                            x       y       z     vdW  Elec       q    Type
REMARK                         _______ _______ _______ _____ _____    ______ ____
ROOT
ATOM      1  C   UNL     1      33.451 -16.656 -25.757  0.00  0.00    +0.000 C 
ENDROOT
BRANCH   1   4
ATOM      2  O   UNL     1      36.482 -18.266 -20.562  0.00  0.00    -0.270 OA
ATOM      3  N   UNL     1      35.654 -18.720 -22.701  0.00  0.00    -0.276 N 
ATOM      4  C   UNL     1      34.504 -17.528 -25.078  0.00  0.00    +0.003 C 
ATOM      5  C   UNL     1      33.850 -18.729 -24.375  0.00  0.00    +0.022 C 
ATOM      6  C   UNL     1      35.330 -16.706 -24.074  0.00  0.00    +0.022 C 
ATOM      7  C   UNL     1      34.889 -19.563 -23.629  0.00  0.00    +0.094 C 
ATOM      8  C   UNL     1      36.331 -17.584 -23.327  0.00  0.00    +0.094 C 
ATOM      9  C   UNL     1      35.808 -18.948 -21.332  0.00  0.00    +0.249 C 
BRANCH   9  10
ATOM     10  C   UNL     1      35.103 -20.089 -20.736  0.00  0.00    +0.054 C 
ATOM     11  C   UNL     1      35.827 -21.156 -20.204  0.00  0.00    +0.005 C 
ATOM     12  C   UNL     1      33.709 -20.108 -20.701  0.00  0.00    +0.005 C 
ATOM     13  C   UNL     1      35.158 -22.241 -19.638  0.00  0.00    +0.000 C 
ATOM     14  C   UNL     1      33.039 -21.192 -20.134  0.00  0.00    +0.000 C 
ATOM     15  C   UNL     1      33.764 -22.259 -19.603  0.00  0.00    +0.000 C 
ENDBRANCH   9  10
ENDBRANCH   1   4
BRANCH   1  16
ATOM     16  C   UNL     1      33.940 -15.218 -25.911  0.00  0.00    +0.002 C 
BRANCH  16  17
ATOM     17  C   UNL     1      32.936 -14.230 -25.317  0.00  0.00    +0.021 C 
BRANCH  17  18
ATOM     18  C   UNL     1      33.072 -14.144 -23.802  0.00  0.00    +0.090 C 
BRANCH  18  20
ATOM     19  O   UNL     1      32.144 -13.495 -21.135  0.00  0.00    -0.270 OA
ATOM     20  N   UNL     1      32.674 -12.855 -23.307  0.00  0.00    -0.301 N 
ATOM     21  C   UNL     1      32.240 -12.637 -22.005  0.00  0.00    +0.246 C 
ATOM     22  H   UNL     1      32.712 -12.087 -23.922  0.00  0.00    +0.150 HD
BRANCH  21  23
ATOM     23  C   UNL     1      31.892 -11.207 -21.763  0.00  0.00    +0.058 C 
ATOM     24  C   UNL     1      32.219 -10.275 -22.669  0.00  0.00    +0.006 C 
BRANCH  24  26
ATOM     25  N   UNL     1      31.738  -6.888 -21.121  0.00  0.00    -0.242 NA
ATOM     26  C   UNL     1      31.918  -8.839 -22.538  0.00  0.00    +0.019 C 
ATOM     27  C   UNL     1      31.542  -8.081 -23.642  0.00  0.00    +0.003 C 
ATOM     28  C   UNL     1      32.001  -8.201 -21.311  0.00  0.00    +0.099 C 
ATOM     29  C   UNL     1      31.263  -6.728 -23.487  0.00  0.00    +0.021 C 
ATOM     30  C   UNL     1      31.375  -6.184 -22.218  0.00  0.00    +0.099 C 
ENDBRANCH  24  26
ENDBRANCH  21  23
ENDBRANCH  18  20
ENDBRANCH  17  18
ENDBRANCH  16  17
ENDBRANCH   1  16
TORSDOF 8
ENDMDL
MODEL 9
REMARK VINA RESULT:     -11.8      6.033     14.096
REMARK  Name = 6914657
REMARK  8 active torsions:
REMARK  status: ('A' for Active; 'I' for Inactive)
REMARK    1  A    between atoms: C_1  and  C_4
REMARK    2  A    between atoms: C_1  and  C_16
REMARK    3  A    between atoms: C_9  and  C_10
REMARK    4  A    between atoms: C_16  and  C_17
REMARK    5  A    between atoms: C_17  and  C_18
REMARK    6  A    between atoms: C_18  and  N_20
REMARK    7  A    between atoms: C_21  and  C_23
REMARK    8  A    between atoms: C_24  and  C_26
REMARK                            x       y       z     vdW  Elec       q    Type
REMARK                         _______ _______ _______ _____ _____    ______ ____
ROOT
ATOM      1  C   UNL     1      32.743 -23.343 -16.459  0.00  0.00    +0.000 C 
ENDROOT
BRANCH   1   4
ATOM      2  O   UNL     1      36.285 -25.907 -12.027  0.00  0.00    -0.270 OA
ATOM      3  N   UNL     1      35.791 -24.213 -13.561  0.00  0.00    -0.276 N 
ATOM      4  C   UNL     1      33.748 -23.161 -15.324  0.00  0.00    +0.003 C 
ATOM      5  C   UNL     1      35.180 -23.432 -15.813  0.00  0.00    +0.022 C 
ATOM      6  C   UNL     1      33.405 -24.079 -14.139  0.00  0.00    +0.022 C 
ATOM      7  C   UNL     1      36.182 -23.328 -14.666  0.00  0.00    +0.094 C 
ATOM      8  C   UNL     1      34.451 -23.969 -13.031  0.00  0.00    +0.094 C 
ATOM      9  C   UNL     1      36.597 -25.194 -12.980  0.00  0.00    +0.249 C 
BRANCH   9  10
ATOM     10  C   UNL     1      37.932 -25.420 -13.547  0.00  0.00    +0.054 C 
ATOM     11  C   UNL     1      38.106 -26.349 -14.573  0.00  0.00    +0.005 C 
ATOM     12  C   UNL     1      39.027 -24.707 -13.060  0.00  0.00    +0.005 C 
ATOM     13  C   UNL     1      39.374 -26.563 -15.112  0.00  0.00    +0.000 C 
ATOM     14  C   UNL     1      40.296 -24.921 -13.599  0.00  0.00    +0.000 C 
ATOM     15  C   UNL     1      40.469 -25.850 -14.625  0.00  0.00    +0.000 C 
ENDBRANCH   9  10
ENDBRANCH   1   4
BRANCH   1  16
ATOM     16  C   UNL     1      33.450 -23.563 -17.794  0.00  0.00    +0.002 C 
BRANCH  16  17
ATOM     17  C   UNL     1      33.297 -22.345 -18.705  0.00  0.00    +0.021 C 
BRANCH  17  18
ATOM     18  C   UNL     1      34.582 -22.062 -19.473  0.00  0.00    +0.090 C 
BRANCH  18  20
ATOM     19  O   UNL     1      36.730 -20.285 -20.263  0.00  0.00    -0.270 OA
ATOM     20  N   UNL     1      34.477 -20.861 -20.256  0.00  0.00    -0.301 N 
ATOM     21  C   UNL     1      35.567 -20.067 -20.588  0.00  0.00    +0.246 C 
ATOM     22  H   UNL     1      33.586 -20.588 -20.573  0.00  0.00    +0.150 HD
BRANCH  21  23
ATOM     23  C   UNL     1      35.172 -18.885 -21.406  0.00  0.00    +0.058 C 
ATOM     24  C   UNL     1      35.360 -18.896 -22.733  0.00  0.00    +0.006 C 
BRANCH  24  26
ATOM     25  N   UNL     1      34.470 -17.045 -25.877  0.00  0.00    -0.242 NA
ATOM     26  C   UNL     1      35.000 -17.791 -23.638  0.00  0.00    +0.019 C 
ATOM     27  C   UNL     1      34.850 -16.493 -23.163  0.00  0.00    +0.003 C 
ATOM     28  C   UNL     1      34.801 -18.013 -24.992  0.00  0.00    +0.099 C 
ATOM     29  C   UNL     1      34.510 -15.471 -24.042  0.00  0.00    +0.021 C 
ATOM     30  C   UNL     1      34.334 -15.796 -25.377  0.00  0.00    +0.099 C 
ENDBRANCH  24  26
ENDBRANCH  21  23
ENDBRANCH  18  20
ENDBRANCH  17  18
ENDBRANCH  16  17
ENDBRANCH   1  16
TORSDOF 8
ENDMDL
