MODEL 1
REMARK VINA RESULT:     -13.5      0.000      0.000
REMARK  Name = 24883488
REMARK  8 active torsions:
REMARK  status: ('A' for Active; 'I' for Inactive)
REMARK    1  A    between atoms: N_2  and  C_11
REMARK    2  A    between atoms: C_3  and  C_19
REMARK    3  A    between atoms: C_19  and  C_20
REMARK    4  A    between atoms: C_20  and  C_23
REMARK    5  A    between atoms: N_22  and  C_25
REMARK    6  A    between atoms: C_27  and  O_31
REMARK    7  A    between atoms: O_31  and  C_32
REMARK    8  A    between atoms: C_32  and  C_34
REMARK                            x       y       z     vdW  Elec       q    Type
REMARK                         _______ _______ _______ _____ _____    ______ ____
ROOT
ATOM      1  O   UNL     1      37.784 -18.657 -21.631  0.00  0.00    -0.275 OA
ATOM      2  N   UNL     1      35.510 -18.448 -21.059  0.00  0.00    -0.284 N 
ATOM      3  C   UNL     1      36.779 -19.040 -21.041  0.00  0.00    +0.227 C 
ATOM      4  H   UNL     1      34.812 -18.912 -20.542  0.00  0.00    +0.155 HD
ENDROOT
BRANCH   2  11
ATOM      5  O   UNL     1      34.640 -17.101 -25.909  0.00  0.00    -0.282 OA
ATOM      6  O   UNL     1      33.631 -12.697 -23.069  0.00  0.00    -0.270 OA
ATOM      7  O   UNL     1      33.872 -14.878 -27.137  0.00  0.00    -0.266 OA
ATOM      8  N   UNL     1      33.750 -13.776 -25.097  0.00  0.00    -0.246 N 
ATOM      9  C   UNL     1      34.564 -16.115 -23.761  0.00  0.00    +0.049 C 
ATOM     10  C   UNL     1      34.296 -14.956 -23.034  0.00  0.00    +0.057 C 
ATOM     11  C   UNL     1      35.107 -17.286 -21.717  0.00  0.00    +0.050 C 
ATOM     12  C   UNL     1      34.971 -17.283 -23.105  0.00  0.00    +0.018 C 
ATOM     13  C   UNL     1      34.435 -14.965 -21.641  0.00  0.00    +0.006 C 
ATOM     14  C   UNL     1      34.839 -16.130 -20.986  0.00  0.00    +0.015 C 
ATOM     15  C   UNL     1      34.421 -16.115 -25.223  0.00  0.00    +0.249 C 
ATOM     16  C   UNL     1      33.867 -13.715 -23.713  0.00  0.00    +0.252 C 
ATOM     17  C   UNL     1      33.987 -14.861 -25.920  0.00  0.00    +0.291 C 
ATOM     18  H   UNL     1      33.464 -12.947 -25.544  0.00  0.00    +0.158 HD
ENDBRANCH   2  11
BRANCH   3  19
ATOM     19  C   UNL     1      36.813 -20.308 -20.203  0.00  0.00    +0.095 C 
BRANCH  19  20
ATOM     20  C   UNL     1      35.560 -21.151 -20.423  0.00  0.00    +0.095 C 
BRANCH  20  23
ATOM     21  O   UNL     1      34.641 -23.132 -19.450  0.00  0.00    -0.275 OA
ATOM     22  N   UNL     1      36.094 -21.804 -18.166  0.00  0.00    -0.284 N 
ATOM     23  C   UNL     1      35.359 -22.149 -19.294  0.00  0.00    +0.227 C 
ATOM     24  H   UNL     1      36.635 -20.984 -18.235  0.00  0.00    +0.155 HD
BRANCH  22  25
ATOM     25  C   UNL     1      36.157 -22.490 -16.932  0.00  0.00    +0.053 C 
ATOM     26  C   UNL     1      37.395 -22.834 -16.387  0.00  0.00    +0.052 C 
ATOM     27  C   UNL     1      37.457 -23.512 -15.169  0.00  0.00    +0.140 C 
ATOM     28  C   UNL     1      34.983 -22.825 -16.259  0.00  0.00    +0.015 C 
ATOM     29  C   UNL     1      36.281 -23.845 -14.496  0.00  0.00    +0.037 C 
ATOM     30  C   UNL     1      35.044 -23.502 -15.041  0.00  0.00    +0.004 C 
BRANCH  27  31
ATOM     31  O   UNL     1      38.664 -23.847 -14.637  0.00  0.00    -0.472 OA
BRANCH  31  32
ATOM     32  C   UNL     1      39.206 -25.114 -15.005  0.00  0.00    +0.243 C 
BRANCH  32  34
ATOM     33  F   UNL     1      40.977 -26.360 -14.129  0.00  0.00    -0.230 F 
ATOM     34  C   UNL     1      39.804 -25.764 -13.778  0.00  0.00    +0.240 C 
ENDBRANCH  32  34
ENDBRANCH  31  32
ENDBRANCH  27  31
ENDBRANCH  22  25
ENDBRANCH  20  23
ENDBRANCH  19  20
ENDBRANCH   3  19
TORSDOF 8
ENDMDL
MODEL 2
REMARK VINA RESULT:     -13.4      5.027     11.229
REMARK  Name = 24883488
REMARK  8 active torsions:
REMARK  status: ('A' for Active; 'I' for Inactive)
REMARK    1  A    between atoms: N_2  and  C_11
REMARK    2  A    between atoms: C_3  and  C_19
REMARK    3  A    between atoms: C_19  and  C_20
REMARK    4  A    between atoms: C_20  and  C_23
REMARK    5  A    between atoms: N_22  and  C_25
REMARK    6  A    between atoms: C_27  and  O_31
REMARK    7  A    between atoms: O_31  and  C_32
REMARK    8  A    between atoms: C_32  and  C_34
REMARK                            x       y       z     vdW  Elec       q    Type
REMARK                         _______ _______ _______ _____ _____    ______ ____
ROOT
ATOM      1  O   UNL     1      34.273 -18.638 -24.825  0.00  0.00    -0.275 OA
ATOM      2  N   UNL     1      35.625 -17.615 -23.192  0.00  0.00    -0.284 N 
ATOM      3  C   UNL     1      34.919 -17.686 -24.399  0.00  0.00    +0.227 C 
ATOM      4  H   UNL     1      36.111 -16.774 -23.027  0.00  0.00    +0.155 HD
ENDROOT
BRANCH   2  11
ATOM      5  O   UNL     1      32.375 -20.670 -20.702  0.00  0.00    -0.282 OA
ATOM      6  O   UNL     1      37.168 -21.824 -18.658  0.00  0.00    -0.270 OA
ATOM      7  O   UNL     1      32.599 -22.508 -18.802  0.00  0.00    -0.266 OA
ATOM      8  N   UNL     1      34.894 -22.168 -18.723  0.00  0.00    -0.246 N 
ATOM      9  C   UNL     1      34.694 -20.212 -20.737  0.00  0.00    +0.049 C 
ATOM     10  C   UNL     1      35.939 -20.526 -20.192  0.00  0.00    +0.057 C 
ATOM     11  C   UNL     1      35.729 -18.583 -22.192  0.00  0.00    +0.050 C 
ATOM     12  C   UNL     1      34.585 -19.240 -21.737  0.00  0.00    +0.018 C 
ATOM     13  C   UNL     1      37.083 -19.863 -20.652  0.00  0.00    +0.006 C 
ATOM     14  C   UNL     1      36.975 -18.894 -21.651  0.00  0.00    +0.015 C 
ATOM     15  C   UNL     1      33.489 -20.903 -20.260  0.00  0.00    +0.249 C 
ATOM     16  C   UNL     1      36.070 -21.550 -19.134  0.00  0.00    +0.252 C 
ATOM     17  C   UNL     1      33.611 -21.942 -19.187  0.00  0.00    +0.291 C 
ATOM     18  H   UNL     1      34.987 -22.849 -18.019  0.00  0.00    +0.158 HD
ENDBRANCH   2  11
BRANCH   3  19
ATOM     19  C   UNL     1      35.055 -16.417 -25.223  0.00  0.00    +0.095 C 
BRANCH  19  20
ATOM     20  C   UNL     1      33.813 -15.539 -25.097  0.00  0.00    +0.095 C 
BRANCH  20  23
ATOM     21  O   UNL     1      34.987 -14.488 -23.299  0.00  0.00    -0.275 OA
ATOM     22  N   UNL     1      32.803 -13.778 -23.799  0.00  0.00    -0.284 N 
ATOM     23  C   UNL     1      33.947 -14.552 -23.949  0.00  0.00    +0.227 C 
ATOM     24  H   UNL     1      32.071 -13.958 -24.433  0.00  0.00    +0.155 HD
BRANCH  22  25
ATOM     25  C   UNL     1      32.564 -12.763 -22.845  0.00  0.00    +0.053 C 
ATOM     26  C   UNL     1      32.707 -11.422 -23.202  0.00  0.00    +0.052 C 
ATOM     27  C   UNL     1      32.472 -10.420 -22.260  0.00  0.00    +0.140 C 
ATOM     28  C   UNL     1      32.186 -13.102 -21.546  0.00  0.00    +0.015 C 
ATOM     29  C   UNL     1      32.093 -10.760 -20.961  0.00  0.00    +0.037 C 
ATOM     30  C   UNL     1      31.950 -12.101 -20.604  0.00  0.00    +0.004 C 
BRANCH  27  31
ATOM     31  O   UNL     1      32.612  -9.112 -22.607  0.00  0.00    -0.472 OA
BRANCH  31  32
ATOM     32  C   UNL     1      33.767  -8.762 -23.369  0.00  0.00    +0.243 C 
BRANCH  32  34
ATOM     33  F   UNL     1      35.554  -7.261 -23.280  0.00  0.00    -0.230 F 
ATOM     34  C   UNL     1      34.245  -7.396 -22.931  0.00  0.00    +0.240 C 
ENDBRANCH  32  34
ENDBRANCH  31  32
ENDBRANCH  27  31
ENDBRANCH  22  25
ENDBRANCH  20  23
ENDBRANCH  19  20
ENDBRANCH   3  19
TORSDOF 8
ENDMDL
MODEL 3
REMARK VINA RESULT:     -13.3      1.189      1.286
REMARK  Name = 24883488
REMARK  8 active torsions:
REMARK  status: ('A' for Active; 'I' for Inactive)
REMARK    1  A    between atoms: N_2  and  C_11
REMARK    2  A    between atoms: C_3  and  C_19
REMARK    3  A    between atoms: C_19  and  C_20
REMARK    4  A    between atoms: C_20  and  C_23
REMARK    5  A    between atoms: N_22  and  C_25
REMARK    6  A    between atoms: C_27  and  O_31
REMARK    7  A    between atoms: O_31  and  C_32
REMARK    8  A    between atoms: C_32  and  C_34
REMARK                            x       y       z     vdW  Elec       q    Type
REMARK                         _______ _______ _______ _____ _____    ______ ____
ROOT
ATOM      1  O   UNL     1      34.280 -20.114 -21.243  0.00  0.00    -0.275 OA
ATOM      2  N   UNL     1      35.908 -18.418 -21.115  0.00  0.00    -0.284 N 
ATOM      3  C   UNL     1      35.390 -19.704 -20.920  0.00  0.00    +0.227 C 
ATOM      4  H   UNL     1      36.814 -18.261 -20.764  0.00  0.00    +0.155 HD
ENDROOT
BRANCH   2  11
ATOM      5  O   UNL     1      34.853 -17.088 -25.934  0.00  0.00    -0.282 OA
ATOM      6  O   UNL     1      33.007 -13.052 -22.970  0.00  0.00    -0.270 OA
ATOM      7  O   UNL     1      33.696 -15.006 -27.102  0.00  0.00    -0.266 OA
ATOM      8  N   UNL     1      33.348 -14.018 -25.030  0.00  0.00    -0.246 N 
ATOM      9  C   UNL     1      34.571 -16.209 -23.756  0.00  0.00    +0.049 C 
ATOM     10  C   UNL     1      34.082 -15.146 -22.997  0.00  0.00    +0.057 C 
ATOM     11  C   UNL     1      35.302 -17.329 -21.742  0.00  0.00    +0.050 C 
ATOM     12  C   UNL     1      35.182 -17.303 -23.132  0.00  0.00    +0.018 C 
ATOM     13  C   UNL     1      34.206 -15.178 -21.603  0.00  0.00    +0.006 C 
ATOM     14  C   UNL     1      34.814 -16.269 -20.979  0.00  0.00    +0.015 C 
ATOM     15  C   UNL     1      34.446 -16.185 -25.219  0.00  0.00    +0.249 C 
ATOM     16  C   UNL     1      33.436 -13.985 -23.643  0.00  0.00    +0.252 C 
ATOM     17  C   UNL     1      33.792 -15.011 -25.883  0.00  0.00    +0.291 C 
ATOM     18  H   UNL     1      32.916 -13.242 -25.455  0.00  0.00    +0.158 HD
ENDBRANCH   2  11
BRANCH   3  19
ATOM     19  C   UNL     1      36.365 -20.613 -20.188  0.00  0.00    +0.095 C 
BRANCH  19  20
ATOM     20  C   UNL     1      35.629 -21.699 -19.407  0.00  0.00    +0.095 C 
BRANCH  20  23
ATOM     21  O   UNL     1      37.146 -21.167 -17.638  0.00  0.00    -0.275 OA
ATOM     22  N   UNL     1      35.505 -22.808 -17.271  0.00  0.00    -0.284 N 
ATOM     23  C   UNL     1      36.201 -21.856 -18.007  0.00  0.00    +0.227 C 
ATOM     24  H   UNL     1      34.753 -23.247 -17.732  0.00  0.00    +0.155 HD
BRANCH  22  25
ATOM     25  C   UNL     1      35.747 -23.220 -15.941  0.00  0.00    +0.053 C 
ATOM     26  C   UNL     1      37.057 -23.346 -15.477  0.00  0.00    +0.052 C 
ATOM     27  C   UNL     1      37.296 -23.754 -14.165  0.00  0.00    +0.140 C 
ATOM     28  C   UNL     1      34.677 -23.500 -15.093  0.00  0.00    +0.015 C 
ATOM     29  C   UNL     1      36.224 -24.034 -13.316  0.00  0.00    +0.037 C 
ATOM     30  C   UNL     1      34.915 -23.907 -13.780  0.00  0.00    +0.004 C 
BRANCH  27  31
ATOM     31  O   UNL     1      38.573 -23.877 -13.712  0.00  0.00    -0.472 OA
BRANCH  31  32
ATOM     32  C   UNL     1      39.074 -25.202 -13.537  0.00  0.00    +0.243 C 
BRANCH  32  34
ATOM     33  F   UNL     1      40.795 -26.618 -14.235  0.00  0.00    -0.230 F 
ATOM     34  C   UNL     1      40.416 -25.310 -14.225  0.00  0.00    +0.240 C 
ENDBRANCH  32  34
ENDBRANCH  31  32
ENDBRANCH  27  31
ENDBRANCH  22  25
ENDBRANCH  20  23
ENDBRANCH  19  20
ENDBRANCH   3  19
TORSDOF 8
ENDMDL
MODEL 4
REMARK VINA RESULT:     -13.2      3.659      4.792
REMARK  Name = 24883488
REMARK  8 active torsions:
REMARK  status: ('A' for Active; 'I' for Inactive)
REMARK    1  A    between atoms: N_2  and  C_11
REMARK    2  A    between atoms: C_3  and  C_19
REMARK    3  A    between atoms: C_19  and  C_20
REMARK    4  A    between atoms: C_20  and  C_23
REMARK    5  A    between atoms: N_22  and  C_25
REMARK    6  A    between atoms: C_27  and  O_31
REMARK    7  A    between atoms: O_31  and  C_32
REMARK    8  A    between atoms: C_32  and  C_34
REMARK                            x       y       z     vdW  Elec       q    Type
REMARK                         _______ _______ _______ _____ _____    ______ ____
ROOT
ATOM      1  O   UNL     1      33.843 -20.106 -21.064  0.00  0.00    -0.275 OA
ATOM      2  N   UNL     1      35.723 -18.691 -21.149  0.00  0.00    -0.284 N 
ATOM      3  C   UNL     1      35.031 -19.874 -20.861  0.00  0.00    +0.227 C 
ATOM      4  H   UNL     1      36.673 -18.676 -20.892  0.00  0.00    +0.155 HD
ENDROOT
BRANCH   2  11
ATOM      5  O   UNL     1      34.770 -17.174 -25.933  0.00  0.00    -0.282 OA
ATOM      6  O   UNL     1      33.430 -13.002 -22.887  0.00  0.00    -0.270 OA
ATOM      7  O   UNL     1      33.843 -14.956 -27.055  0.00  0.00    -0.266 OA
ATOM      8  N   UNL     1      33.634 -13.968 -24.965  0.00  0.00    -0.246 N 
ATOM      9  C   UNL     1      34.615 -16.304 -23.740  0.00  0.00    +0.049 C 
ATOM     10  C   UNL     1      34.260 -15.204 -22.959  0.00  0.00    +0.057 C 
ATOM     11  C   UNL     1      35.238 -17.531 -21.752  0.00  0.00    +0.050 C 
ATOM     12  C   UNL     1      35.105 -17.469 -23.139  0.00  0.00    +0.018 C 
ATOM     13  C   UNL     1      34.396 -15.272 -21.567  0.00  0.00    +0.006 C 
ATOM     14  C   UNL     1      34.883 -16.435 -20.967  0.00  0.00    +0.015 C 
ATOM     15  C   UNL     1      34.476 -16.242 -25.201  0.00  0.00    +0.249 C 
ATOM     16  C   UNL     1      33.742 -13.967 -23.579  0.00  0.00    +0.252 C 
ATOM     17  C   UNL     1      33.953 -14.991 -25.839  0.00  0.00    +0.291 C 
ATOM     18  H   UNL     1      33.289 -13.141 -25.373  0.00  0.00    +0.158 HD
ENDBRANCH   2  11
BRANCH   3  19
ATOM     19  C   UNL     1      35.917 -20.914 -20.196  0.00  0.00    +0.095 C 
BRANCH  19  20
ATOM     20  C   UNL     1      35.166 -22.226 -19.980  0.00  0.00    +0.095 C 
BRANCH  20  23
ATOM     21  O   UNL     1      35.829 -22.365 -17.688  0.00  0.00    -0.275 OA
ATOM     22  N   UNL     1      33.594 -22.819 -18.253  0.00  0.00    -0.284 N 
ATOM     23  C   UNL     1      34.920 -22.485 -18.503  0.00  0.00    +0.227 C 
ATOM     24  H   UNL     1      32.998 -22.845 -19.037  0.00  0.00    +0.155 HD
BRANCH  22  25
ATOM     25  C   UNL     1      32.999 -23.126 -17.009  0.00  0.00    +0.053 C 
ATOM     26  C   UNL     1      31.628 -22.942 -16.826  0.00  0.00    +0.052 C 
ATOM     27  C   UNL     1      31.041 -23.244 -15.597  0.00  0.00    +0.140 C 
ATOM     28  C   UNL     1      33.782 -23.611 -15.962  0.00  0.00    +0.015 C 
ATOM     29  C   UNL     1      31.826 -23.730 -14.551  0.00  0.00    +0.037 C 
ATOM     30  C   UNL     1      33.196 -23.914 -14.733  0.00  0.00    +0.004 C 
BRANCH  27  31
ATOM     31  O   UNL     1      29.704 -23.064 -15.418  0.00  0.00    -0.472 OA
BRANCH  31  32
ATOM     32  C   UNL     1      28.838 -23.596 -16.420  0.00  0.00    +0.243 C 
BRANCH  32  34
ATOM     33  F   UNL     1      27.430 -22.057 -15.370  0.00  0.00    -0.230 F 
ATOM     34  C   UNL     1      27.637 -22.688 -16.559  0.00  0.00    +0.240 C 
ENDBRANCH  32  34
ENDBRANCH  31  32
ENDBRANCH  27  31
ENDBRANCH  22  25
ENDBRANCH  20  23
ENDBRANCH  19  20
ENDBRANCH   3  19
TORSDOF 8
ENDMDL
MODEL 5
REMARK VINA RESULT:     -13.0      1.002      2.169
REMARK  Name = 24883488
REMARK  8 active torsions:
REMARK  status: ('A' for Active; 'I' for Inactive)
REMARK    1  A    between atoms: N_2  and  C_11
REMARK    2  A    between atoms: C_3  and  C_19
REMARK    3  A    between atoms: C_19  and  C_20
REMARK    4  A    between atoms: C_20  and  C_23
REMARK    5  A    between atoms: N_22  and  C_25
REMARK    6  A    between atoms: C_27  and  O_31
REMARK    7  A    between atoms: O_31  and  C_32
REMARK    8  A    between atoms: C_32  and  C_34
REMARK                            x       y       z     vdW  Elec       q    Type
REMARK                         _______ _______ _______ _____ _____    ______ ____
ROOT
ATOM      1  O   UNL     1      37.504 -18.867 -20.891  0.00  0.00    -0.275 OA
ATOM      2  N   UNL     1      35.376 -19.499 -21.675  0.00  0.00    -0.284 N 
ATOM      3  C   UNL     1      36.531 -19.614 -20.892  0.00  0.00    +0.227 C 
ATOM      4  H   UNL     1      34.706 -20.211 -21.559  0.00  0.00    +0.155 HD
ENDROOT
BRANCH   2  11
ATOM      5  O   UNL     1      34.682 -14.440 -21.520  0.00  0.00    -0.282 OA
ATOM      6  O   UNL     1      33.891 -15.769 -26.628  0.00  0.00    -0.270 OA
ATOM      7  O   UNL     1      34.071 -12.568 -23.298  0.00  0.00    -0.266 OA
ATOM      8  N   UNL     1      33.977 -14.171 -24.975  0.00  0.00    -0.246 N 
ATOM      9  C   UNL     1      34.623 -16.183 -23.117  0.00  0.00    +0.049 C 
ATOM     10  C   UNL     1      34.414 -16.513 -24.456  0.00  0.00    +0.057 C 
ATOM     11  C   UNL     1      35.054 -18.505 -22.600  0.00  0.00    +0.050 C 
ATOM     12  C   UNL     1      34.943 -17.178 -22.185  0.00  0.00    +0.018 C 
ATOM     13  C   UNL     1      34.526 -17.847 -24.865  0.00  0.00    +0.006 C 
ATOM     14  C   UNL     1      34.847 -18.839 -23.937  0.00  0.00    +0.015 C 
ATOM     15  C   UNL     1      34.508 -14.787 -22.678  0.00  0.00    +0.249 C 
ATOM     16  C   UNL     1      34.074 -15.474 -25.450  0.00  0.00    +0.252 C 
ATOM     17  C   UNL     1      34.163 -13.726 -23.679  0.00  0.00    +0.291 C 
ATOM     18  H   UNL     1      33.751 -13.483 -25.642  0.00  0.00    +0.158 HD
ENDBRANCH   2  11
BRANCH   3  19
ATOM     19  C   UNL     1      36.505 -20.847 -20.003  0.00  0.00    +0.095 C 
BRANCH  19  20
ATOM     20  C   UNL     1      35.086 -21.384 -19.842  0.00  0.00    +0.095 C 
BRANCH  20  23
ATOM     21  O   UNL     1      34.231 -23.346 -18.776  0.00  0.00    -0.275 OA
ATOM     22  N   UNL     1      35.894 -22.094 -17.686  0.00  0.00    -0.284 N 
ATOM     23  C   UNL     1      35.001 -22.393 -18.708  0.00  0.00    +0.227 C 
ATOM     24  H   UNL     1      36.452 -21.293 -17.818  0.00  0.00    +0.155 HD
BRANCH  22  25
ATOM     25  C   UNL     1      36.097 -22.802 -16.480  0.00  0.00    +0.053 C 
ATOM     26  C   UNL     1      37.392 -23.069 -16.036  0.00  0.00    +0.052 C 
ATOM     27  C   UNL     1      37.592 -23.768 -14.846  0.00  0.00    +0.140 C 
ATOM     28  C   UNL     1      35.001 -23.235 -15.733  0.00  0.00    +0.015 C 
ATOM     29  C   UNL     1      36.496 -24.201 -14.099  0.00  0.00    +0.037 C 
ATOM     30  C   UNL     1      35.200 -23.934 -14.543  0.00  0.00    +0.004 C 
BRANCH  27  31
ATOM     31  O   UNL     1      38.856 -24.029 -14.413  0.00  0.00    -0.472 OA
BRANCH  31  32
ATOM     32  C   UNL     1      39.104 -25.328 -13.879  0.00  0.00    +0.243 C 
BRANCH  32  34
ATOM     33  F   UNL     1      40.286 -25.647 -15.868  0.00  0.00    -0.230 F 
ATOM     34  C   UNL     1      40.346 -25.894 -14.529  0.00  0.00    +0.240 C 
ENDBRANCH  32  34
ENDBRANCH  31  32
ENDBRANCH  27  31
ENDBRANCH  22  25
ENDBRANCH  20  23
ENDBRANCH  19  20
ENDBRANCH   3  19
TORSDOF 8
ENDMDL
MODEL 6
REMARK VINA RESULT:     -12.9      3.674      5.139
REMARK  Name = 24883488
REMARK  8 active torsions:
REMARK  status: ('A' for Active; 'I' for Inactive)
REMARK    1  A    between atoms: N_2  and  C_11
REMARK    2  A    between atoms: C_3  and  C_19
REMARK    3  A    between atoms: C_19  and  C_20
REMARK    4  A    between atoms: C_20  and  C_23
REMARK    5  A    between atoms: N_22  and  C_25
REMARK    6  A    between atoms: C_27  and  O_31
REMARK    7  A    between atoms: O_31  and  C_32
REMARK    8  A    between atoms: C_32  and  C_34
REMARK                            x       y       z     vdW  Elec       q    Type
REMARK                         _______ _______ _______ _____ _____    ______ ____
ROOT
ATOM      1  O   UNL     1      33.734 -19.945 -20.727  0.00  0.00    -0.275 OA
ATOM      2  N   UNL     1      35.649 -19.401 -21.984  0.00  0.00    -0.284 N 
ATOM      3  C   UNL     1      34.919 -20.092 -21.009  0.00  0.00    +0.227 C 
ATOM      4  H   UNL     1      36.602 -19.635 -22.054  0.00  0.00    +0.155 HD
ENDROOT
BRANCH   2  11
ATOM      5  O   UNL     1      34.816 -14.365 -21.765  0.00  0.00    -0.282 OA
ATOM      6  O   UNL     1      33.515 -15.746 -26.753  0.00  0.00    -0.270 OA
ATOM      7  O   UNL     1      33.956 -12.523 -23.470  0.00  0.00    -0.266 OA
ATOM      8  N   UNL     1      33.731 -14.137 -25.123  0.00  0.00    -0.246 N 
ATOM      9  C   UNL     1      34.639 -16.118 -23.342  0.00  0.00    +0.049 C 
ATOM     10  C   UNL     1      34.295 -16.462 -24.650  0.00  0.00    +0.057 C 
ATOM     11  C   UNL     1      35.197 -18.422 -22.870  0.00  0.00    +0.050 C 
ATOM     12  C   UNL     1      35.090 -17.097 -22.449  0.00  0.00    +0.018 C 
ATOM     13  C   UNL     1      34.404 -17.794 -25.066  0.00  0.00    +0.006 C 
ATOM     14  C   UNL     1      34.855 -18.770 -24.176  0.00  0.00    +0.015 C 
ATOM     15  C   UNL     1      34.528 -14.723 -22.896  0.00  0.00    +0.249 C 
ATOM     16  C   UNL     1      33.816 -15.439 -25.603  0.00  0.00    +0.252 C 
ATOM     17  C   UNL     1      34.042 -13.679 -23.856  0.00  0.00    +0.291 C 
ATOM     18  H   UNL     1      33.411 -13.460 -25.763  0.00  0.00    +0.158 HD
ENDBRANCH   2  11
BRANCH   3  19
ATOM     19  C   UNL     1      35.777 -21.085 -20.242  0.00  0.00    +0.095 C 
BRANCH  19  20
ATOM     20  C   UNL     1      35.001 -22.362 -19.931  0.00  0.00    +0.095 C 
BRANCH  20  23
ATOM     21  O   UNL     1      35.761 -22.310 -17.666  0.00  0.00    -0.275 OA
ATOM     22  N   UNL     1      33.558 -22.997 -18.110  0.00  0.00    -0.284 N 
ATOM     23  C   UNL     1      34.836 -22.559 -18.433  0.00  0.00    +0.227 C 
ATOM     24  H   UNL     1      32.938 -23.122 -18.865  0.00  0.00    +0.155 HD
BRANCH  22  25
ATOM     25  C   UNL     1      33.042 -23.285 -16.826  0.00  0.00    +0.053 C 
ATOM     26  C   UNL     1      31.674 -23.167 -16.581  0.00  0.00    +0.052 C 
ATOM     27  C   UNL     1      31.164 -23.450 -15.313  0.00  0.00    +0.140 C 
ATOM     28  C   UNL     1      33.901 -23.688 -15.803  0.00  0.00    +0.015 C 
ATOM     29  C   UNL     1      32.024 -23.853 -14.291  0.00  0.00    +0.037 C 
ATOM     30  C   UNL     1      33.392 -23.972 -14.536  0.00  0.00    +0.004 C 
BRANCH  27  31
ATOM     31  O   UNL     1      29.830 -23.335 -15.074  0.00  0.00    -0.472 OA
BRANCH  31  32
ATOM     32  C   UNL     1      28.946 -23.913 -16.033  0.00  0.00    +0.243 C 
BRANCH  32  34
ATOM     33  F   UNL     1      27.783 -21.992 -15.391  0.00  0.00    -0.230 F 
ATOM     34  C   UNL     1      27.897 -22.891 -16.408  0.00  0.00    +0.240 C 
ENDBRANCH  32  34
ENDBRANCH  31  32
ENDBRANCH  27  31
ENDBRANCH  22  25
ENDBRANCH  20  23
ENDBRANCH  19  20
ENDBRANCH   3  19
TORSDOF 8
ENDMDL
MODEL 7
REMARK VINA RESULT:     -12.9      2.143      2.858
REMARK  Name = 24883488
REMARK  8 active torsions:
REMARK  status: ('A' for Active; 'I' for Inactive)
REMARK    1  A    between atoms: N_2  and  C_11
REMARK    2  A    between atoms: C_3  and  C_19
REMARK    3  A    between atoms: C_19  and  C_20
REMARK    4  A    between atoms: C_20  and  C_23
REMARK    5  A    between atoms: N_22  and  C_25
REMARK    6  A    between atoms: C_27  and  O_31
REMARK    7  A    between atoms: O_31  and  C_32
REMARK    8  A    between atoms: C_32  and  C_34
REMARK                            x       y       z     vdW  Elec       q    Type
REMARK                         _______ _______ _______ _____ _____    ______ ____
ROOT
ATOM      1  O   UNL     1      37.785 -18.637 -21.677  0.00  0.00    -0.275 OA
ATOM      2  N   UNL     1      35.514 -18.452 -21.083  0.00  0.00    -0.284 N 
ATOM      3  C   UNL     1      36.789 -19.031 -21.078  0.00  0.00    +0.227 C 
ATOM      4  H   UNL     1      34.826 -18.924 -20.560  0.00  0.00    +0.155 HD
ENDROOT
BRANCH   2  11
ATOM      5  O   UNL     1      34.654 -17.082 -25.929  0.00  0.00    -0.282 OA
ATOM      6  O   UNL     1      33.539 -12.722 -23.061  0.00  0.00    -0.270 OA
ATOM      7  O   UNL     1      33.852 -14.865 -27.144  0.00  0.00    -0.266 OA
ATOM      8  N   UNL     1      33.694 -13.782 -25.097  0.00  0.00    -0.246 N 
ATOM      9  C   UNL     1      34.543 -16.116 -23.773  0.00  0.00    +0.049 C 
ATOM     10  C   UNL     1      34.247 -14.967 -23.039  0.00  0.00    +0.057 C 
ATOM     11  C   UNL     1      35.094 -17.292 -21.735  0.00  0.00    +0.050 C 
ATOM     12  C   UNL     1      34.968 -17.281 -23.124  0.00  0.00    +0.018 C 
ATOM     13  C   UNL     1      34.377 -14.985 -21.645  0.00  0.00    +0.006 C 
ATOM     14  C   UNL     1      34.799 -16.147 -20.996  0.00  0.00    +0.015 C 
ATOM     15  C   UNL     1      34.411 -16.107 -25.236  0.00  0.00    +0.249 C 
ATOM     16  C   UNL     1      33.799 -13.730 -23.711  0.00  0.00    +0.252 C 
ATOM     17  C   UNL     1      33.957 -14.856 -25.927  0.00  0.00    +0.291 C 
ATOM     18  H   UNL     1      33.395 -12.955 -25.539  0.00  0.00    +0.158 HD
ENDBRANCH   2  11
BRANCH   3  19
ATOM     19  C   UNL     1      36.844 -20.300 -20.243  0.00  0.00    +0.095 C 
BRANCH  19  20
ATOM     20  C   UNL     1      35.549 -21.099 -20.363  0.00  0.00    +0.095 C 
BRANCH  20  23
ATOM     21  O   UNL     1      34.663 -23.064 -19.330  0.00  0.00    -0.275 OA
ATOM     22  N   UNL     1      36.202 -21.748 -18.137  0.00  0.00    -0.284 N 
ATOM     23  C   UNL     1      35.400 -22.089 -19.220  0.00  0.00    +0.227 C 
ATOM     24  H   UNL     1      36.748 -20.935 -18.241  0.00  0.00    +0.155 HD
BRANCH  22  25
ATOM     25  C   UNL     1      36.327 -22.429 -16.905  0.00  0.00    +0.053 C 
ATOM     26  C   UNL     1      35.203 -22.996 -16.304  0.00  0.00    +0.052 C 
ATOM     27  C   UNL     1      35.326 -23.668 -15.088  0.00  0.00    +0.140 C 
ATOM     28  C   UNL     1      37.573 -22.533 -16.289  0.00  0.00    +0.015 C 
ATOM     29  C   UNL     1      36.574 -23.772 -14.472  0.00  0.00    +0.037 C 
ATOM     30  C   UNL     1      37.698 -23.205 -15.073  0.00  0.00    +0.004 C 
BRANCH  27  31
ATOM     31  O   UNL     1      34.230 -24.222 -14.501  0.00  0.00    -0.472 OA
BRANCH  31  32
ATOM     32  C   UNL     1      32.972 -24.000 -15.137  0.00  0.00    +0.243 C 
BRANCH  32  34
ATOM     33  F   UNL     1      31.765 -22.085 -14.559  0.00  0.00    -0.230 F 
ATOM     34  C   UNL     1      32.031 -23.355 -14.144  0.00  0.00    +0.240 C 
ENDBRANCH  32  34
ENDBRANCH  31  32
ENDBRANCH  27  31
ENDBRANCH  22  25
ENDBRANCH  20  23
ENDBRANCH  19  20
ENDBRANCH   3  19
TORSDOF 8
ENDMDL
MODEL 8
REMARK VINA RESULT:     -12.8      3.706     11.757
REMARK  Name = 24883488
REMARK  8 active torsions:
REMARK  status: ('A' for Active; 'I' for Inactive)
REMARK    1  A    between atoms: N_2  and  C_11
REMARK    2  A    between atoms: C_3  and  C_19
REMARK    3  A    between atoms: C_19  and  C_20
REMARK    4  A    between atoms: C_20  and  C_23
REMARK    5  A    between atoms: N_22  and  C_25
REMARK    6  A    between atoms: C_27  and  O_31
REMARK    7  A    between atoms: O_31  and  C_32
REMARK    8  A    between atoms: C_32  and  C_34
REMARK                            x       y       z     vdW  Elec       q    Type
REMARK                         _______ _______ _______ _____ _____    ______ ____
ROOT
ATOM      1  O   UNL     1      33.812 -24.091 -18.039  0.00  0.00    -0.275 OA
ATOM      2  N   UNL     1      35.148 -22.291 -17.318  0.00  0.00    -0.284 N 
ATOM      3  C   UNL     1      34.187 -22.925 -18.115  0.00  0.00    +0.227 C 
ATOM      4  H   UNL     1      35.340 -21.352 -17.542  0.00  0.00    +0.155 HD
ENDROOT
BRANCH   2  11
ATOM      5  O   UNL     1      34.003 -24.217 -12.727  0.00  0.00    -0.282 OA
ATOM      6  O   UNL     1      39.322 -24.523 -13.046  0.00  0.00    -0.270 OA
ATOM      7  O   UNL     1      35.397 -25.222 -10.706  0.00  0.00    -0.266 OA
ATOM      8  N   UNL     1      37.373 -24.872 -11.876  0.00  0.00    -0.246 N 
ATOM      9  C   UNL     1      35.926 -23.799 -14.038  0.00  0.00    +0.049 C 
ATOM     10  C   UNL     1      37.317 -23.887 -14.105  0.00  0.00    +0.057 C 
ATOM     11  C   UNL     1      35.869 -22.821 -16.248  0.00  0.00    +0.050 C 
ATOM     12  C   UNL     1      35.199 -23.266 -15.108  0.00  0.00    +0.018 C 
ATOM     13  C   UNL     1      37.984 -23.438 -15.251  0.00  0.00    +0.006 C 
ATOM     14  C   UNL     1      37.259 -22.907 -16.320  0.00  0.00    +0.015 C 
ATOM     15  C   UNL     1      35.218 -24.268 -12.840  0.00  0.00    +0.249 C 
ATOM     16  C   UNL     1      38.098 -24.447 -12.983  0.00  0.00    +0.252 C 
ATOM     17  C   UNL     1      36.002 -24.837 -11.696  0.00  0.00    +0.291 C 
ATOM     18  H   UNL     1      37.898 -25.245 -11.131  0.00  0.00    +0.158 HD
ENDBRANCH   2  11
BRANCH   3  19
ATOM     19  C   UNL     1      33.626 -22.004 -19.187  0.00  0.00    +0.095 C 
BRANCH  19  20
ATOM     20  C   UNL     1      34.741 -21.242 -19.900  0.00  0.00    +0.095 C 
BRANCH  20  23
ATOM     21  O   UNL     1      32.977 -20.018 -20.951  0.00  0.00    -0.275 OA
ATOM     22  N   UNL     1      35.178 -19.728 -21.722  0.00  0.00    -0.284 N 
ATOM     23  C   UNL     1      34.178 -20.268 -20.922  0.00  0.00    +0.227 C 
ATOM     24  H   UNL     1      36.095 -20.033 -21.536  0.00  0.00    +0.155 HD
BRANCH  22  25
ATOM     25  C   UNL     1      35.034 -18.794 -22.773  0.00  0.00    +0.053 C 
ATOM     26  C   UNL     1      35.289 -17.441 -22.544  0.00  0.00    +0.052 C 
ATOM     27  C   UNL     1      35.146 -16.519 -23.581  0.00  0.00    +0.140 C 
ATOM     28  C   UNL     1      34.637 -19.223 -24.039  0.00  0.00    +0.015 C 
ATOM     29  C   UNL     1      34.750 -16.950 -24.847  0.00  0.00    +0.037 C 
ATOM     30  C   UNL     1      34.495 -18.302 -25.077  0.00  0.00    +0.004 C 
BRANCH  27  31
ATOM     31  O   UNL     1      35.395 -15.200 -23.358  0.00  0.00    -0.472 OA
BRANCH  31  32
ATOM     32  C   UNL     1      34.316 -14.291 -23.574  0.00  0.00    +0.243 C 
BRANCH  32  34
ATOM     33  F   UNL     1      34.442 -14.288 -21.242  0.00  0.00    -0.230 F 
ATOM     34  C   UNL     1      33.572 -14.098 -22.272  0.00  0.00    +0.240 C 
ENDBRANCH  32  34
ENDBRANCH  31  32
ENDBRANCH  27  31
ENDBRANCH  22  25
ENDBRANCH  20  23
ENDBRANCH  19  20
ENDBRANCH   3  19
TORSDOF 8
ENDMDL
MODEL 9
REMARK VINA RESULT:     -12.6      2.417      3.534
REMARK  Name = 24883488
REMARK  8 active torsions:
REMARK  status: ('A' for Active; 'I' for Inactive)
REMARK    1  A    between atoms: N_2  and  C_11
REMARK    2  A    between atoms: C_3  and  C_19
REMARK    3  A    between atoms: C_19  and  C_20
REMARK    4  A    between atoms: C_20  and  C_23
REMARK    5  A    between atoms: N_22  and  C_25
REMARK    6  A    between atoms: C_27  and  O_31
REMARK    7  A    between atoms: O_31  and  C_32
REMARK    8  A    between atoms: C_32  and  C_34
REMARK                            x       y       z     vdW  Elec       q    Type
REMARK                         _______ _______ _______ _____ _____    ______ ____
ROOT
ATOM      1  O   UNL     1      37.119 -19.981 -19.957  0.00  0.00    -0.275 OA
ATOM      2  N   UNL     1      35.085 -20.402 -21.065  0.00  0.00    -0.284 N 
ATOM      3  C   UNL     1      36.095 -20.635 -20.123  0.00  0.00    +0.227 C 
ATOM      4  H   UNL     1      34.344 -21.050 -21.070  0.00  0.00    +0.155 HD
ENDROOT
BRANCH   2  11
ATOM      5  O   UNL     1      34.659 -15.315 -20.863  0.00  0.00    -0.282 OA
ATOM      6  O   UNL     1      34.746 -16.470 -26.072  0.00  0.00    -0.270 OA
ATOM      7  O   UNL     1      34.491 -13.367 -22.656  0.00  0.00    -0.266 OA
ATOM      8  N   UNL     1      34.617 -14.921 -24.377  0.00  0.00    -0.246 N 
ATOM      9  C   UNL     1      34.797 -17.013 -22.503  0.00  0.00    +0.049 C 
ATOM     10  C   UNL     1      34.818 -17.297 -23.868  0.00  0.00    +0.057 C 
ATOM     11  C   UNL     1      34.994 -19.368 -21.997  0.00  0.00    +0.050 C 
ATOM     12  C   UNL     1      34.884 -18.047 -21.564  0.00  0.00    +0.018 C 
ATOM     13  C   UNL     1      34.928 -18.625 -24.297  0.00  0.00    +0.006 C 
ATOM     14  C   UNL     1      35.017 -19.657 -23.361  0.00  0.00    +0.015 C 
ATOM     15  C   UNL     1      34.681 -15.622 -22.044  0.00  0.00    +0.249 C 
ATOM     16  C   UNL     1      34.725 -16.215 -24.871  0.00  0.00    +0.252 C 
ATOM     17  C   UNL     1      34.586 -14.519 -23.054  0.00  0.00    +0.291 C 
ATOM     18  H   UNL     1      34.556 -14.204 -25.049  0.00  0.00    +0.158 HD
ENDBRANCH   2  11
BRANCH   3  19
ATOM     19  C   UNL     1      35.827 -21.874 -19.284  0.00  0.00    +0.095 C 
BRANCH  19  20
ATOM     20  C   UNL     1      34.527 -22.557 -19.703  0.00  0.00    +0.095 C 
BRANCH  20  23
ATOM     21  O   UNL     1      32.437 -21.916 -18.737  0.00  0.00    -0.275 OA
ATOM     22  N   UNL     1      33.911 -23.245 -17.478  0.00  0.00    -0.284 N 
ATOM     23  C   UNL     1      33.497 -22.517 -18.587  0.00  0.00    +0.227 C 
ATOM     24  H   UNL     1      34.791 -23.681 -17.550  0.00  0.00    +0.155 HD
BRANCH  22  25
ATOM     25  C   UNL     1      33.220 -23.433 -16.260  0.00  0.00    +0.053 C 
ATOM     26  C   UNL     1      33.914 -23.833 -15.118  0.00  0.00    +0.052 C 
ATOM     27  C   UNL     1      33.232 -24.020 -13.915  0.00  0.00    +0.140 C 
ATOM     28  C   UNL     1      31.843 -23.218 -16.198  0.00  0.00    +0.015 C 
ATOM     29  C   UNL     1      31.855 -23.804 -13.855  0.00  0.00    +0.037 C 
ATOM     30  C   UNL     1      31.160 -23.404 -14.996  0.00  0.00    +0.004 C 
BRANCH  27  31
ATOM     31  O   UNL     1      33.909 -24.411 -12.802  0.00  0.00    -0.472 OA
BRANCH  31  32
ATOM     32  C   UNL     1      35.326 -24.247 -12.813  0.00  0.00    +0.243 C 
BRANCH  32  34
ATOM     33  F   UNL     1      37.145 -24.380 -11.353  0.00  0.00    -0.230 F 
ATOM     34  C   UNL     1      35.812 -24.103 -11.388  0.00  0.00    +0.240 C 
ENDBRANCH  32  34
ENDBRANCH  31  32
ENDBRANCH  27  31
ENDBRANCH  22  25
ENDBRANCH  20  23
ENDBRANCH  19  20
ENDBRANCH   3  19
TORSDOF 8
ENDMDL
