MODEL 1
REMARK VINA RESULT:     -12.1      0.000      0.000
REMARK  Name = 5326930
REMARK  4 active torsions:
REMARK  status: ('A' for Active; 'I' for Inactive)
REMARK    1  A    between atoms: C_7  and  C_21
REMARK    2  A    between atoms: C_21  and  C_22
REMARK    3  A    between atoms: C_22  and  C_23
REMARK    4  A    between atoms: C_28  and  O_29
REMARK                            x       y       z     vdW  Elec       q    Type
REMARK                         _______ _______ _______ _____ _____    ______ ____
ROOT
ATOM      1  O   UNL     1      34.830 -24.906 -12.181  0.00  0.00    -0.209 OA
ATOM      2  N   UNL     1      34.785 -22.953 -15.678  0.00  0.00    -0.275 N 
ATOM      3  N   UNL     1      30.009 -25.275 -14.239  0.00  0.00    -0.315 N 
ATOM      4  N   UNL     1      30.016 -24.183 -16.174  0.00  0.00    -0.316 N 
ATOM      5  N   UNL     1      35.964 -23.669 -13.739  0.00  0.00    -0.302 NA
ATOM      6  N   UNL     1      36.994 -22.398 -15.417  0.00  0.00    -0.320 N 
ATOM      7  C   UNL     1      32.435 -23.485 -16.054  0.00  0.00    +0.007 C 
ATOM      8  C   UNL     1      33.594 -23.561 -15.267  0.00  0.00    +0.060 C 
ATOM      9  C   UNL     1      31.263 -24.114 -15.596  0.00  0.00    +0.056 C 
ATOM     10  C   UNL     1      31.285 -24.792 -14.381  0.00  0.00    +0.060 C 
ATOM     11  C   UNL     1      33.576 -24.254 -14.046  0.00  0.00    +0.109 C 
ATOM     12  C   UNL     1      32.418 -24.888 -13.573  0.00  0.00    +0.029 C 
ATOM     13  C   UNL     1      34.836 -24.302 -13.250  0.00  0.00    +0.208 C 
ATOM     14  C   UNL     1      29.290 -24.886 -15.334  0.00  0.00    +0.182 C 
ATOM     15  C   UNL     1      35.906 -23.043 -14.885  0.00  0.00    +0.248 C 
ATOM     16  H   UNL     1      34.819 -22.462 -16.530  0.00  0.00    +0.156 HD
ATOM     17  H   UNL     1      29.673 -25.808 -13.483  0.00  0.00    +0.148 HD
ATOM     18  H   UNL     1      29.730 -23.790 -17.031  0.00  0.00    +0.148 HD
ATOM     19  H   UNL     1      36.917 -21.935 -16.282  0.00  0.00    +0.146 HD
ATOM     20  H   UNL     1      37.851 -22.399 -14.932  0.00  0.00    +0.146 HD
ENDROOT
BRANCH   7  21
ATOM     21  C   UNL     1      32.446 -22.748 -17.357  0.00  0.00    +0.034 C 
BRANCH  21  22
ATOM     22  C   UNL     1      33.543 -23.218 -18.329  0.00  0.00    +0.031 C 
BRANCH  22  23
ATOM     23  C   UNL     1      34.053 -22.119 -19.229  0.00  0.00    -0.022 C 
ATOM     24  C   UNL     1      35.418 -21.968 -19.411  0.00  0.00    -0.001 C 
ATOM     25  C   UNL     1      33.147 -21.278 -19.854  0.00  0.00    -0.001 C 
ATOM     26  C   UNL     1      35.891 -20.953 -20.241  0.00  0.00    +0.037 C 
ATOM     27  C   UNL     1      33.619 -20.261 -20.686  0.00  0.00    +0.037 C 
ATOM     28  C   UNL     1      34.990 -20.099 -20.879  0.00  0.00    +0.139 C 
BRANCH  28  29
ATOM     29  O   UNL     1      35.450 -19.107 -21.689  0.00  0.00    -0.471 OA
ATOM     30  C   UNL     1      35.141 -19.205 -23.078  0.00  0.00    +0.252 C 
ENDBRANCH  28  29
ENDBRANCH  22  23
ENDBRANCH  21  22
ENDBRANCH   7  21
TORSDOF 4
ENDMDL
MODEL 2
REMARK VINA RESULT:     -12.0      7.836     11.655
REMARK  Name = 5326930
REMARK  4 active torsions:
REMARK  status: ('A' for Active; 'I' for Inactive)
REMARK    1  A    between atoms: C_7  and  C_21
REMARK    2  A    between atoms: C_21  and  C_22
REMARK    3  A    between atoms: C_22  and  C_23
REMARK    4  A    between atoms: C_28  and  O_29
REMARK                            x       y       z     vdW  Elec       q    Type
REMARK                         _______ _______ _______ _____ _____    ______ ____
ROOT
ATOM      1  O   UNL     1      34.997 -19.699 -25.137  0.00  0.00    -0.209 OA
ATOM      2  N   UNL     1      34.939 -17.306 -21.925  0.00  0.00    -0.275 N 
ATOM      3  N   UNL     1      33.494 -14.897 -26.656  0.00  0.00    -0.315 N 
ATOM      4  N   UNL     1      33.471 -13.597 -24.855  0.00  0.00    -0.316 N 
ATOM      5  N   UNL     1      35.324 -19.449 -22.884  0.00  0.00    -0.302 NA
ATOM      6  N   UNL     1      35.618 -19.045 -20.595  0.00  0.00    -0.320 N 
ATOM      7  C   UNL     1      34.214 -15.389 -23.247  0.00  0.00    +0.007 C 
ATOM      8  C   UNL     1      34.579 -16.741 -23.153  0.00  0.00    +0.060 C 
ATOM      9  C   UNL     1      33.861 -14.869 -24.505  0.00  0.00    +0.056 C 
ATOM     10  C   UNL     1      33.884 -15.705 -25.617  0.00  0.00    +0.060 C 
ATOM     11  C   UNL     1      34.590 -17.552 -24.298  0.00  0.00    +0.109 C 
ATOM     12  C   UNL     1      34.241 -17.052 -25.562  0.00  0.00    +0.029 C 
ATOM     13  C   UNL     1      34.985 -18.982 -24.140  0.00  0.00    +0.208 C 
ATOM     14  C   UNL     1      33.260 -13.650 -26.151  0.00  0.00    +0.182 C 
ATOM     15  C   UNL     1      35.292 -18.635 -21.863  0.00  0.00    +0.248 C 
ATOM     16  H   UNL     1      34.939 -16.755 -21.109  0.00  0.00    +0.156 HD
ATOM     17  H   UNL     1      33.401 -15.170 -27.597  0.00  0.00    +0.148 HD
ATOM     18  H   UNL     1      33.372 -12.816 -24.263  0.00  0.00    +0.148 HD
ATOM     19  H   UNL     1      35.583 -18.407 -19.846  0.00  0.00    +0.146 HD
ATOM     20  H   UNL     1      35.886 -19.979 -20.434  0.00  0.00    +0.146 HD
ENDROOT
BRANCH   7  21
ATOM     21  C   UNL     1      34.201 -14.518 -22.030  0.00  0.00    +0.034 C 
BRANCH  21  22
ATOM     22  C   UNL     1      32.792 -14.252 -21.469  0.00  0.00    +0.031 C 
BRANCH  22  23
ATOM     23  C   UNL     1      32.466 -12.784 -21.347  0.00  0.00    -0.022 C 
ATOM     24  C   UNL     1      32.285 -12.230 -20.090  0.00  0.00    -0.001 C 
ATOM     25  C   UNL     1      32.352 -12.016 -22.495  0.00  0.00    -0.001 C 
ATOM     26  C   UNL     1      31.984 -10.873 -19.976  0.00  0.00    +0.037 C 
ATOM     27  C   UNL     1      32.051 -10.658 -22.382  0.00  0.00    +0.037 C 
ATOM     28  C   UNL     1      31.867 -10.087 -21.123  0.00  0.00    +0.139 C 
BRANCH  28  29
ATOM     29  O   UNL     1      31.572  -8.763 -21.013  0.00  0.00    -0.471 OA
ATOM     30  C   UNL     1      32.596  -7.908 -20.508  0.00  0.00    +0.252 C 
ENDBRANCH  28  29
ENDBRANCH  22  23
ENDBRANCH  21  22
ENDBRANCH   7  21
TORSDOF 4
ENDMDL
MODEL 3
REMARK VINA RESULT:     -11.4      3.114      6.129
REMARK  Name = 5326930
REMARK  4 active torsions:
REMARK  status: ('A' for Active; 'I' for Inactive)
REMARK    1  A    between atoms: C_7  and  C_21
REMARK    2  A    between atoms: C_21  and  C_22
REMARK    3  A    between atoms: C_22  and  C_23
REMARK    4  A    between atoms: C_28  and  O_29
REMARK                            x       y       z     vdW  Elec       q    Type
REMARK                         _______ _______ _______ _____ _____    ______ ____
ROOT
ATOM      1  O   UNL     1      37.336 -21.919 -17.240  0.00  0.00    -0.209 OA
ATOM      2  N   UNL     1      33.704 -23.500 -16.649  0.00  0.00    -0.275 N 
ATOM      3  N   UNL     1      37.176 -23.977 -12.407  0.00  0.00    -0.315 N 
ATOM      4  N   UNL     1      35.152 -24.843 -12.111  0.00  0.00    -0.316 N 
ATOM      5  N   UNL     1      35.241 -22.352 -18.056  0.00  0.00    -0.302 NA
ATOM      6  N   UNL     1      33.064 -22.863 -18.756  0.00  0.00    -0.320 N 
ATOM      7  C   UNL     1      34.280 -24.222 -14.392  0.00  0.00    +0.007 C 
ATOM      8  C   UNL     1      34.625 -23.596 -15.600  0.00  0.00    +0.060 C 
ATOM      9  C   UNL     1      35.241 -24.291 -13.367  0.00  0.00    +0.056 C 
ATOM     10  C   UNL     1      36.502 -23.741 -13.579  0.00  0.00    +0.060 C 
ATOM     11  C   UNL     1      35.906 -23.052 -15.775  0.00  0.00    +0.109 C 
ATOM     12  C   UNL     1      36.879 -23.111 -14.766  0.00  0.00    +0.029 C 
ATOM     13  C   UNL     1      36.218 -22.397 -17.078  0.00  0.00    +0.208 C 
ATOM     14  C   UNL     1      36.328 -24.637 -11.563  0.00  0.00    +0.182 C 
ATOM     15  C   UNL     1      34.069 -22.880 -17.822  0.00  0.00    +0.248 C 
ATOM     16  H   UNL     1      32.800 -23.875 -16.548  0.00  0.00    +0.156 HD
ATOM     17  H   UNL     1      38.105 -23.717 -12.212  0.00  0.00    +0.148 HD
ATOM     18  H   UNL     1      34.374 -25.295 -11.708  0.00  0.00    +0.148 HD
ATOM     19  H   UNL     1      32.192 -23.269 -18.549  0.00  0.00    +0.146 HD
ATOM     20  H   UNL     1      33.216 -22.443 -19.635  0.00  0.00    +0.146 HD
ENDROOT
BRANCH   7  21
ATOM     21  C   UNL     1      32.915 -24.804 -14.198  0.00  0.00    +0.034 C 
BRANCH  21  22
ATOM     22  C   UNL     1      31.836 -23.762 -13.855  0.00  0.00    +0.031 C 
BRANCH  22  23
ATOM     23  C   UNL     1      30.692 -23.742 -14.839  0.00  0.00    -0.022 C 
ATOM     24  C   UNL     1      30.442 -22.590 -15.567  0.00  0.00    -0.001 C 
ATOM     25  C   UNL     1      29.911 -24.875 -14.995  0.00  0.00    -0.001 C 
ATOM     26  C   UNL     1      29.385 -22.570 -16.476  0.00  0.00    +0.037 C 
ATOM     27  C   UNL     1      28.853 -24.857 -15.905  0.00  0.00    +0.037 C 
ATOM     28  C   UNL     1      28.590 -23.704 -16.646  0.00  0.00    +0.139 C 
BRANCH  28  29
ATOM     29  O   UNL     1      27.558 -23.686 -17.532  0.00  0.00    -0.471 OA
ATOM     30  C   UNL     1      26.986 -22.415 -17.838  0.00  0.00    +0.252 C 
ENDBRANCH  28  29
ENDBRANCH  22  23
ENDBRANCH  21  22
ENDBRANCH   7  21
TORSDOF 4
ENDMDL
MODEL 4
REMARK VINA RESULT:     -11.0      3.032      6.261
REMARK  Name = 5326930
REMARK  4 active torsions:
REMARK  status: ('A' for Active; 'I' for Inactive)
REMARK    1  A    between atoms: C_7  and  C_21
REMARK    2  A    between atoms: C_21  and  C_22
REMARK    3  A    between atoms: C_22  and  C_23
REMARK    4  A    between atoms: C_28  and  O_29
REMARK                            x       y       z     vdW  Elec       q    Type
REMARK                         _______ _______ _______ _____ _____    ______ ____
ROOT
ATOM      1  O   UNL     1      37.374 -21.502 -17.735  0.00  0.00    -0.209 OA
ATOM      2  N   UNL     1      33.944 -23.469 -17.094  0.00  0.00    -0.275 N 
ATOM      3  N   UNL     1      37.626 -23.809 -13.020  0.00  0.00    -0.315 N 
ATOM      4  N   UNL     1      35.712 -24.888 -12.694  0.00  0.00    -0.316 N 
ATOM      5  N   UNL     1      35.298 -22.101 -18.493  0.00  0.00    -0.302 NA
ATOM      6  N   UNL     1      33.154 -22.792 -19.137  0.00  0.00    -0.320 N 
ATOM      7  C   UNL     1      34.685 -24.242 -14.903  0.00  0.00    +0.007 C 
ATOM      8  C   UNL     1      34.914 -23.524 -16.087  0.00  0.00    +0.060 C 
ATOM      9  C   UNL     1      35.692 -24.267 -13.921  0.00  0.00    +0.056 C 
ATOM     10  C   UNL     1      36.882 -23.583 -14.150  0.00  0.00    +0.060 C 
ATOM     11  C   UNL     1      36.127 -22.846 -16.281  0.00  0.00    +0.109 C 
ATOM     12  C   UNL     1      37.143 -22.859 -15.314  0.00  0.00    +0.029 C 
ATOM     13  C   UNL     1      36.316 -22.098 -17.557  0.00  0.00    +0.208 C 
ATOM     14  C   UNL     1      36.885 -24.593 -12.181  0.00  0.00    +0.182 C 
ATOM     15  C   UNL     1      34.195 -22.756 -18.244  0.00  0.00    +0.248 C 
ATOM     16  H   UNL     1      33.086 -23.937 -16.979  0.00  0.00    +0.156 HD
ATOM     17  H   UNL     1      38.532 -23.467 -12.845  0.00  0.00    +0.148 HD
ATOM     18  H   UNL     1      35.001 -25.436 -12.288  0.00  0.00    +0.148 HD
ATOM     19  H   UNL     1      32.336 -23.294 -18.919  0.00  0.00    +0.146 HD
ATOM     20  H   UNL     1      33.225 -22.316 -19.996  0.00  0.00    +0.146 HD
ENDROOT
BRANCH   7  21
ATOM     21  C   UNL     1      33.394 -24.968 -14.690  0.00  0.00    +0.034 C 
BRANCH  21  22
ATOM     22  C   UNL     1      32.298 -24.110 -14.032  0.00  0.00    +0.031 C 
BRANCH  22  23
ATOM     23  C   UNL     1      31.054 -23.980 -14.877  0.00  0.00    -0.022 C 
ATOM     24  C   UNL     1      29.963 -24.791 -14.610  0.00  0.00    -0.001 C 
ATOM     25  C   UNL     1      31.027 -23.053 -15.906  0.00  0.00    -0.001 C 
ATOM     26  C   UNL     1      28.814 -24.672 -15.391  0.00  0.00    +0.037 C 
ATOM     27  C   UNL     1      29.877 -22.933 -16.688  0.00  0.00    +0.037 C 
ATOM     28  C   UNL     1      28.771 -23.743 -16.430  0.00  0.00    +0.139 C 
BRANCH  28  29
ATOM     29  O   UNL     1      27.650 -23.626 -17.193  0.00  0.00    -0.471 OA
ATOM     30  C   UNL     1      27.163 -22.308 -17.436  0.00  0.00    +0.252 C 
ENDBRANCH  28  29
ENDBRANCH  22  23
ENDBRANCH  21  22
ENDBRANCH   7  21
TORSDOF 4
ENDMDL
MODEL 5
REMARK VINA RESULT:     -10.9      9.291     13.023
REMARK  Name = 5326930
REMARK  4 active torsions:
REMARK  status: ('A' for Active; 'I' for Inactive)
REMARK    1  A    between atoms: C_7  and  C_21
REMARK    2  A    between atoms: C_21  and  C_22
REMARK    3  A    between atoms: C_22  and  C_23
REMARK    4  A    between atoms: C_28  and  O_29
REMARK                            x       y       z     vdW  Elec       q    Type
REMARK                         _______ _______ _______ _____ _____    ______ ____
ROOT
ATOM      1  O   UNL     1      34.430 -17.336 -26.060  0.00  0.00    -0.209 OA
ATOM      2  N   UNL     1      33.311 -13.551 -25.376  0.00  0.00    -0.275 N 
ATOM      3  N   UNL     1      34.956 -16.339 -20.927  0.00  0.00    -0.315 N 
ATOM      4  N   UNL     1      34.330 -14.236 -20.581  0.00  0.00    -0.316 N 
ATOM      5  N   UNL     1      33.647 -15.352 -26.894  0.00  0.00    -0.302 NA
ATOM      6  N   UNL     1      32.851 -13.266 -27.604  0.00  0.00    -0.320 N 
ATOM      7  C   UNL     1      33.770 -13.745 -22.989  0.00  0.00    +0.007 C 
ATOM      8  C   UNL     1      33.738 -14.303 -24.276  0.00  0.00    +0.060 C 
ATOM      9  C   UNL     1      34.208 -14.543 -21.916  0.00  0.00    +0.056 C 
ATOM     10  C   UNL     1      34.594 -15.857 -22.160  0.00  0.00    +0.060 C 
ATOM     11  C   UNL     1      34.136 -15.633 -24.482  0.00  0.00    +0.109 C 
ATOM     12  C   UNL     1      34.576 -16.445 -23.426  0.00  0.00    +0.029 C 
ATOM     13  C   UNL     1      34.083 -16.173 -25.871  0.00  0.00    +0.208 C 
ATOM     14  C   UNL     1      34.779 -15.334 -20.018  0.00  0.00    +0.182 C 
ATOM     15  C   UNL     1      33.291 -14.123 -26.627  0.00  0.00    +0.248 C 
ATOM     16  H   UNL     1      33.027 -12.616 -25.255  0.00  0.00    +0.156 HD
ATOM     17  H   UNL     1      35.282 -17.247 -20.733  0.00  0.00    +0.148 HD
ATOM     18  H   UNL     1      34.124 -13.378 -20.142  0.00  0.00    +0.148 HD
ATOM     19  H   UNL     1      32.591 -12.346 -27.371  0.00  0.00    +0.146 HD
ATOM     20  H   UNL     1      32.796 -13.571 -28.539  0.00  0.00    +0.146 HD
ENDROOT
BRANCH   7  21
ATOM     21  C   UNL     1      33.347 -12.328 -22.762  0.00  0.00    +0.034 C 
BRANCH  21  22
ATOM     22  C   UNL     1      32.071 -12.186 -21.912  0.00  0.00    +0.031 C 
BRANCH  22  23
ATOM     23  C   UNL     1      31.988 -10.872 -21.175  0.00  0.00    -0.022 C 
ATOM     24  C   UNL     1      31.861 -10.874 -19.796  0.00  0.00    -0.001 C 
ATOM     25  C   UNL     1      32.040  -9.688 -21.892  0.00  0.00    -0.001 C 
ATOM     26  C   UNL     1      31.784  -9.660 -19.114  0.00  0.00    +0.037 C 
ATOM     27  C   UNL     1      31.964  -8.472 -21.210  0.00  0.00    +0.037 C 
ATOM     28  C   UNL     1      31.836  -8.459 -19.821  0.00  0.00    +0.139 C 
BRANCH  28  29
ATOM     29  O   UNL     1      31.760  -7.273 -19.157  0.00  0.00    -0.471 OA
ATOM     30  C   UNL     1      32.342  -6.135 -19.790  0.00  0.00    +0.252 C 
ENDBRANCH  28  29
ENDBRANCH  22  23
ENDBRANCH  21  22
ENDBRANCH   7  21
TORSDOF 4
ENDMDL
MODEL 6
REMARK VINA RESULT:     -10.9      6.483     10.912
REMARK  Name = 5326930
REMARK  4 active torsions:
REMARK  status: ('A' for Active; 'I' for Inactive)
REMARK    1  A    between atoms: C_7  and  C_21
REMARK    2  A    between atoms: C_21  and  C_22
REMARK    3  A    between atoms: C_22  and  C_23
REMARK    4  A    between atoms: C_28  and  O_29
REMARK                            x       y       z     vdW  Elec       q    Type
REMARK                         _______ _______ _______ _____ _____    ______ ____
ROOT
ATOM      1  O   UNL     1      32.973 -14.088 -26.680  0.00  0.00    -0.209 OA
ATOM      2  N   UNL     1      34.548 -16.577 -23.966  0.00  0.00    -0.275 N 
ATOM      3  N   UNL     1      31.975 -12.181 -21.886  0.00  0.00    -0.315 N 
ATOM      4  N   UNL     1      32.859 -13.582 -20.406  0.00  0.00    -0.316 N 
ATOM      5  N   UNL     1      34.138 -16.009 -26.241  0.00  0.00    -0.302 NA
ATOM      6  N   UNL     1      35.316 -17.944 -25.640  0.00  0.00    -0.320 N 
ATOM      7  C   UNL     1      33.777 -15.196 -22.110  0.00  0.00    +0.007 C 
ATOM      8  C   UNL     1      33.883 -15.443 -23.488  0.00  0.00    +0.060 C 
ATOM      9  C   UNL     1      33.097 -14.042 -21.680  0.00  0.00    +0.056 C 
ATOM     10  C   UNL     1      32.553 -13.181 -22.628  0.00  0.00    +0.060 C 
ATOM     11  C   UNL     1      33.320 -14.550 -24.413  0.00  0.00    +0.109 C 
ATOM     12  C   UNL     1      32.639 -13.394 -24.004  0.00  0.00    +0.029 C 
ATOM     13  C   UNL     1      33.462 -14.863 -25.864  0.00  0.00    +0.208 C 
ATOM     14  C   UNL     1      32.186 -12.466 -20.566  0.00  0.00    +0.182 C 
ATOM     15  C   UNL     1      34.637 -16.794 -25.323  0.00  0.00    +0.248 C 
ATOM     16  H   UNL     1      34.951 -17.216 -23.335  0.00  0.00    +0.156 HD
ATOM     17  H   UNL     1      31.496 -11.399 -22.242  0.00  0.00    +0.148 HD
ATOM     18  H   UNL     1      33.135 -14.000 -19.557  0.00  0.00    +0.148 HD
ATOM     19  H   UNL     1      35.679 -18.514 -24.925  0.00  0.00    +0.146 HD
ATOM     20  H   UNL     1      35.439 -18.198 -26.583  0.00  0.00    +0.146 HD
ENDROOT
BRANCH   7  21
ATOM     21  C   UNL     1      34.375 -16.144 -21.119  0.00  0.00    +0.034 C 
BRANCH  21  22
ATOM     22  C   UNL     1      35.474 -17.048 -21.705  0.00  0.00    +0.031 C 
BRANCH  22  23
ATOM     23  C   UNL     1      35.419 -18.464 -21.187  0.00  0.00    -0.022 C 
ATOM     24  C   UNL     1      36.588 -19.081 -20.768  0.00  0.00    -0.001 C 
ATOM     25  C   UNL     1      34.202 -19.124 -21.140  0.00  0.00    -0.001 C 
ATOM     26  C   UNL     1      36.539 -20.389 -20.289  0.00  0.00    +0.037 C 
ATOM     27  C   UNL     1      34.152 -20.434 -20.661  0.00  0.00    +0.037 C 
ATOM     28  C   UNL     1      35.320 -21.066 -20.236  0.00  0.00    +0.139 C 
BRANCH  28  29
ATOM     29  O   UNL     1      35.271 -22.344 -19.770  0.00  0.00    -0.471 OA
ATOM     30  C   UNL     1      34.167 -22.689 -18.934  0.00  0.00    +0.252 C 
ENDBRANCH  28  29
ENDBRANCH  22  23
ENDBRANCH  21  22
ENDBRANCH   7  21
TORSDOF 4
ENDMDL
MODEL 7
REMARK VINA RESULT:     -10.6      3.185      7.569
REMARK  Name = 5326930
REMARK  4 active torsions:
REMARK  status: ('A' for Active; 'I' for Inactive)
REMARK    1  A    between atoms: C_7  and  C_21
REMARK    2  A    between atoms: C_21  and  C_22
REMARK    3  A    between atoms: C_22  and  C_23
REMARK    4  A    between atoms: C_28  and  O_29
REMARK                            x       y       z     vdW  Elec       q    Type
REMARK                         _______ _______ _______ _____ _____    ______ ____
ROOT
ATOM      1  O   UNL     1      33.782 -19.036 -22.698  0.00  0.00    -0.209 OA
ATOM      2  N   UNL     1      37.127 -19.953 -20.695  0.00  0.00    -0.275 N 
ATOM      3  N   UNL     1      32.558 -22.404 -18.855  0.00  0.00    -0.315 N 
ATOM      4  N   UNL     1      34.431 -22.894 -17.766  0.00  0.00    -0.316 N 
ATOM      5  N   UNL     1      36.042 -18.764 -22.447  0.00  0.00    -0.302 NA
ATOM      6  N   UNL     1      38.347 -18.585 -22.071  0.00  0.00    -0.320 N 
ATOM      7  C   UNL     1      35.925 -21.436 -19.176  0.00  0.00    +0.007 C 
ATOM      8  C   UNL     1      35.937 -20.551 -20.266  0.00  0.00    +0.060 C 
ATOM      9  C   UNL     1      34.703 -22.011 -18.784  0.00  0.00    +0.056 C 
ATOM     10  C   UNL     1      33.544 -21.687 -19.484  0.00  0.00    +0.060 C 
ATOM     11  C   UNL     1      34.747 -20.250 -20.946  0.00  0.00    +0.109 C 
ATOM     12  C   UNL     1      33.518 -20.813 -20.571  0.00  0.00    +0.029 C 
ATOM     13  C   UNL     1      34.818 -19.304 -22.097  0.00  0.00    +0.208 C 
ATOM     14  C   UNL     1      33.136 -23.108 -17.836  0.00  0.00    +0.182 C 
ATOM     15  C   UNL     1      37.109 -19.090 -21.767  0.00  0.00    +0.248 C 
ATOM     16  H   UNL     1      37.973 -20.150 -20.232  0.00  0.00    +0.156 HD
ATOM     17  H   UNL     1      31.603 -22.410 -19.096  0.00  0.00    +0.148 HD
ATOM     18  H   UNL     1      35.068 -23.281 -17.122  0.00  0.00    +0.148 HD
ATOM     19  H   UNL     1      39.132 -18.850 -21.539  0.00  0.00    +0.146 HD
ATOM     20  H   UNL     1      38.451 -17.955 -22.822  0.00  0.00    +0.146 HD
ENDROOT
BRANCH   7  21
ATOM     21  C   UNL     1      37.190 -21.761 -18.446  0.00  0.00    +0.034 C 
BRANCH  21  22
ATOM     22  C   UNL     1      37.209 -21.278 -16.984  0.00  0.00    +0.031 C 
BRANCH  22  23
ATOM     23  C   UNL     1      37.357 -22.402 -15.988  0.00  0.00    -0.022 C 
ATOM     24  C   UNL     1      38.429 -23.272 -16.100  0.00  0.00    -0.001 C 
ATOM     25  C   UNL     1      36.418 -22.543 -14.979  0.00  0.00    -0.001 C 
ATOM     26  C   UNL     1      38.567 -24.311 -15.180  0.00  0.00    +0.037 C 
ATOM     27  C   UNL     1      36.555 -23.582 -14.058  0.00  0.00    +0.037 C 
ATOM     28  C   UNL     1      37.630 -24.466 -14.158  0.00  0.00    +0.139 C 
BRANCH  28  29
ATOM     29  O   UNL     1      37.763 -25.480 -13.260  0.00  0.00    -0.471 OA
ATOM     30  C   UNL     1      37.131 -26.718 -13.579  0.00  0.00    +0.252 C 
ENDBRANCH  28  29
ENDBRANCH  22  23
ENDBRANCH  21  22
ENDBRANCH   7  21
TORSDOF 4
ENDMDL
MODEL 8
REMARK VINA RESULT:     -10.3     11.966     15.337
REMARK  Name = 5326930
REMARK  4 active torsions:
REMARK  status: ('A' for Active; 'I' for Inactive)
REMARK    1  A    between atoms: C_7  and  C_21
REMARK    2  A    between atoms: C_21  and  C_22
REMARK    3  A    between atoms: C_22  and  C_23
REMARK    4  A    between atoms: C_28  and  O_29
REMARK                            x       y       z     vdW  Elec       q    Type
REMARK                         _______ _______ _______ _____ _____    ______ ____
ROOT
ATOM      1  O   UNL     1      32.312 -14.505 -20.728  0.00  0.00    -0.209 OA
ATOM      2  N   UNL     1      33.040 -12.033 -23.795  0.00  0.00    -0.275 N 
ATOM      3  N   UNL     1      31.596  -9.562 -19.096  0.00  0.00    -0.315 N 
ATOM      4  N   UNL     1      32.008  -8.218 -20.816  0.00  0.00    -0.316 N 
ATOM      5  N   UNL     1      32.913 -14.243 -22.923  0.00  0.00    -0.302 NA
ATOM      6  N   UNL     1      33.514 -13.822 -25.148  0.00  0.00    -0.320 N 
ATOM      7  C   UNL     1      32.559 -10.061 -22.444  0.00  0.00    +0.007 C 
ATOM      8  C   UNL     1      32.669 -11.454 -22.577  0.00  0.00    +0.060 C 
ATOM      9  C   UNL     1      32.182  -9.527 -21.198  0.00  0.00    +0.056 C 
ATOM     10  C   UNL     1      31.930 -10.391 -20.137  0.00  0.00    +0.060 C 
ATOM     11  C   UNL     1      32.406 -12.292 -21.483  0.00  0.00    +0.109 C 
ATOM     12  C   UNL     1      32.030 -11.780 -20.232  0.00  0.00    +0.029 C 
ATOM     13  C   UNL     1      32.540 -13.764 -21.681  0.00  0.00    +0.208 C 
ATOM     14  C   UNL     1      31.656  -8.275 -19.552  0.00  0.00    +0.182 C 
ATOM     15  C   UNL     1      33.141 -13.402 -23.896  0.00  0.00    +0.248 C 
ATOM     16  H   UNL     1      33.229 -11.464 -24.576  0.00  0.00    +0.156 HD
ATOM     17  H   UNL     1      31.355  -9.845 -18.185  0.00  0.00    +0.148 HD
ATOM     18  H   UNL     1      32.121  -7.411 -21.371  0.00  0.00    +0.148 HD
ATOM     19  H   UNL     1      33.679 -13.163 -25.860  0.00  0.00    +0.146 HD
ATOM     20  H   UNL     1      33.617 -14.784 -25.333  0.00  0.00    +0.146 HD
ENDROOT
BRANCH   7  21
ATOM     21  C   UNL     1      32.837  -9.161 -23.607  0.00  0.00    +0.034 C 
BRANCH  21  22
ATOM     22  C   UNL     1      33.927  -8.108 -23.334  0.00  0.00    +0.031 C 
BRANCH  22  23
ATOM     23  C   UNL     1      33.859  -6.924 -24.267  0.00  0.00    -0.022 C 
ATOM     24  C   UNL     1      32.681  -6.201 -24.363  0.00  0.00    -0.001 C 
ATOM     25  C   UNL     1      34.975  -6.582 -25.012  0.00  0.00    -0.001 C 
ATOM     26  C   UNL     1      32.617  -5.107 -25.225  0.00  0.00    +0.037 C 
ATOM     27  C   UNL     1      34.912  -5.487 -25.875  0.00  0.00    +0.037 C 
ATOM     28  C   UNL     1      33.733  -4.750 -25.981  0.00  0.00    +0.139 C 
BRANCH  28  29
ATOM     29  O   UNL     1      33.671  -3.683 -26.824  0.00  0.00    -0.471 OA
ATOM     30  C   UNL     1      32.535  -3.596 -27.681  0.00  0.00    +0.252 C 
ENDBRANCH  28  29
ENDBRANCH  22  23
ENDBRANCH  21  22
ENDBRANCH   7  21
TORSDOF 4
ENDMDL
MODEL 9
REMARK VINA RESULT:     -10.2      2.666      6.159
REMARK  Name = 5326930
REMARK  4 active torsions:
REMARK  status: ('A' for Active; 'I' for Inactive)
REMARK    1  A    between atoms: C_7  and  C_21
REMARK    2  A    between atoms: C_21  and  C_22
REMARK    3  A    between atoms: C_22  and  C_23
REMARK    4  A    between atoms: C_28  and  O_29
REMARK                            x       y       z     vdW  Elec       q    Type
REMARK                         _______ _______ _______ _____ _____    ______ ____
ROOT
ATOM      1  O   UNL     1      33.420 -22.745 -19.495  0.00  0.00    -0.209 OA
ATOM      2  N   UNL     1      35.492 -22.714 -16.067  0.00  0.00    -0.275 N 
ATOM      3  N   UNL     1      30.246 -24.310 -15.610  0.00  0.00    -0.315 N 
ATOM      4  N   UNL     1      31.423 -24.283 -13.726  0.00  0.00    -0.316 N 
ATOM      5  N   UNL     1      35.402 -22.350 -18.417  0.00  0.00    -0.302 NA
ATOM      6  N   UNL     1      37.360 -21.989 -17.182  0.00  0.00    -0.320 N 
ATOM      7  C   UNL     1      33.566 -23.485 -14.785  0.00  0.00    +0.007 C 
ATOM      8  C   UNL     1      34.152 -23.112 -16.005  0.00  0.00    +0.060 C 
ATOM      9  C   UNL     1      32.216 -23.878 -14.775  0.00  0.00    +0.056 C 
ATOM     10  C   UNL     1      31.501 -23.886 -15.969  0.00  0.00    +0.060 C 
ATOM     11  C   UNL     1      33.399 -23.134 -17.188  0.00  0.00    +0.109 C 
ATOM     12  C   UNL     1      32.051 -23.522 -17.199  0.00  0.00    +0.029 C 
ATOM     13  C   UNL     1      34.072 -22.729 -18.455  0.00  0.00    +0.208 C 
ATOM     14  C   UNL     1      30.250 -24.533 -14.262  0.00  0.00    +0.182 C 
ATOM     15  C   UNL     1      36.040 -22.354 -17.277  0.00  0.00    +0.248 C 
ATOM     16  H   UNL     1      36.039 -22.691 -15.249  0.00  0.00    +0.156 HD
ATOM     17  H   UNL     1      29.481 -24.430 -16.217  0.00  0.00    +0.148 HD
ATOM     18  H   UNL     1      31.679 -24.367 -12.779  0.00  0.00    +0.148 HD
ATOM     19  H   UNL     1      37.813 -22.003 -16.308  0.00  0.00    +0.146 HD
ATOM     20  H   UNL     1      37.853 -21.712 -17.988  0.00  0.00    +0.146 HD
ENDROOT
BRANCH   7  21
ATOM     21  C   UNL     1      34.364 -23.464 -13.519  0.00  0.00    +0.034 C 
BRANCH  21  22
ATOM     22  C   UNL     1      34.757 -24.862 -13.006  0.00  0.00    +0.031 C 
BRANCH  22  23
ATOM     23  C   UNL     1      36.208 -25.199 -13.247  0.00  0.00    -0.022 C 
ATOM     24  C   UNL     1      36.588 -25.736 -14.466  0.00  0.00    -0.001 C 
ATOM     25  C   UNL     1      37.134 -24.968 -12.243  0.00  0.00    -0.001 C 
ATOM     26  C   UNL     1      37.928 -26.048 -14.690  0.00  0.00    +0.037 C 
ATOM     27  C   UNL     1      38.476 -25.280 -12.465  0.00  0.00    +0.037 C 
ATOM     28  C   UNL     1      38.873 -25.820 -13.689  0.00  0.00    +0.139 C 
BRANCH  28  29
ATOM     29  O   UNL     1      40.181 -26.125 -13.905  0.00  0.00    -0.471 OA
ATOM     30  C   UNL     1      40.680 -25.945 -15.229  0.00  0.00    +0.252 C 
ENDBRANCH  28  29
ENDBRANCH  22  23
ENDBRANCH  21  22
ENDBRANCH   7  21
TORSDOF 4
ENDMDL
