MODEL 1
REMARK VINA RESULT:     -13.5      0.000      0.000
REMARK  Name = 10157080
REMARK  5 active torsions:
REMARK  status: ('A' for Active; 'I' for Inactive)
REMARK    1  A    between atoms: C_3  and  O_8
REMARK    2  A    between atoms: C_6  and  O_18
REMARK    3  A    between atoms: O_8  and  C_13
REMARK    4  A    between atoms: O_18  and  C_20
REMARK    5  A    between atoms: C_19  and  N_25
REMARK                            x       y       z     vdW  Elec       q    Type
REMARK                         _______ _______ _______ _____ _____    ______ ____
ROOT
ATOM      1  N   UNL     1      34.678 -23.283 -16.872  0.00  0.00    -0.277 NA
ATOM      2  N   UNL     1      32.346 -23.297 -17.483  0.00  0.00    -0.319 NA
ATOM      3  C   UNL     1      34.290 -23.225 -15.588  0.00  0.00    +0.278 C 
ATOM      4  C   UNL     1      32.983 -23.198 -15.164  0.00  0.00    +0.156 C 
ATOM      5  C   UNL     1      32.040 -23.238 -16.170  0.00  0.00    +0.113 C 
ATOM      6  C   UNL     1      33.665 -23.316 -17.758  0.00  0.00    +0.317 C 
ATOM      7  C   UNL     1      30.590 -23.214 -15.820  0.00  0.00    +0.063 C 
ENDROOT
BRANCH   3   8
ATOM      8  O   UNL     1      35.297 -23.192 -14.639  0.00  0.00    -0.429 OA
BRANCH   8  13
ATOM      9  O   UNL     1      39.901 -24.622 -14.549  0.00  0.00    -0.435 OA
ATOM     10  O   UNL     1      39.282 -26.923 -14.916  0.00  0.00    -0.435 OA
ATOM     11  C   UNL     1      38.554 -24.784 -14.658  0.00  0.00    +0.179 C 
ATOM     12  C   UNL     1      38.201 -26.098 -14.867  0.00  0.00    +0.177 C 
ATOM     13  C   UNL     1      36.267 -24.145 -14.714  0.00  0.00    +0.151 C 
ATOM     14  C   UNL     1      37.609 -23.783 -14.576  0.00  0.00    +0.078 C 
ATOM     15  C   UNL     1      36.883 -26.483 -15.007  0.00  0.00    +0.043 C 
ATOM     16  C   UNL     1      35.906 -25.488 -14.927  0.00  0.00    +0.041 C 
ATOM     17  C   UNL     1      40.356 -25.981 -14.713  0.00  0.00    +0.429 C 
ENDBRANCH   8  13
ENDBRANCH   3   8
BRANCH   6  18
ATOM     18  O   UNL     1      34.014 -23.373 -19.088  0.00  0.00    -0.375 OA
BRANCH  18  20
ATOM     19  C   UNL     1      34.706 -19.767 -21.021  0.00  0.00    +0.057 C 
ATOM     20  C   UNL     1      34.244 -22.176 -19.729  0.00  0.00    +0.161 C 
ATOM     21  C   UNL     1      33.399 -20.176 -20.756  0.00  0.00    +0.018 C 
ATOM     22  C   UNL     1      35.780 -20.569 -20.637  0.00  0.00    +0.018 C 
ATOM     23  C   UNL     1      33.166 -21.388 -20.105  0.00  0.00    +0.040 C 
ATOM     24  C   UNL     1      35.548 -21.781 -19.986  0.00  0.00    +0.040 C 
BRANCH  19  25
ATOM     25  N   UNL     1      34.936 -18.565 -21.666  0.00  0.00    -0.246 N 
ATOM     26  N   UNL     1      35.236 -16.376 -21.963  0.00  0.00    -0.224 NA
ATOM     27  C   UNL     1      35.143 -18.384 -23.011  0.00  0.00    +0.092 C 
ATOM     28  C   UNL     1      35.002 -17.324 -21.083  0.00  0.00    +0.172 C 
ATOM     29  C   UNL     1      35.324 -17.030 -23.166  0.00  0.00    +0.117 C 
ENDBRANCH  19  25
ENDBRANCH  18  20
ENDBRANCH   6  18
TORSDOF 5
ENDMDL
MODEL 2
REMARK VINA RESULT:     -12.2      3.667      7.451
REMARK  Name = 10157080
REMARK  5 active torsions:
REMARK  status: ('A' for Active; 'I' for Inactive)
REMARK    1  A    between atoms: C_3  and  O_8
REMARK    2  A    between atoms: C_6  and  O_18
REMARK    3  A    between atoms: O_8  and  C_13
REMARK    4  A    between atoms: O_18  and  C_20
REMARK    5  A    between atoms: C_19  and  N_25
REMARK                            x       y       z     vdW  Elec       q    Type
REMARK                         _______ _______ _______ _____ _____    ______ ____
ROOT
ATOM      1  N   UNL     1      34.317 -24.335 -14.804  0.00  0.00    -0.277 NA
ATOM      2  N   UNL     1      34.802 -24.001 -12.467  0.00  0.00    -0.319 NA
ATOM      3  C   UNL     1      35.536 -23.842 -15.076  0.00  0.00    +0.278 C 
ATOM      4  C   UNL     1      36.436 -23.410 -14.133  0.00  0.00    +0.156 C 
ATOM      5  C   UNL     1      36.009 -23.516 -12.824  0.00  0.00    +0.113 C 
ATOM      6  C   UNL     1      34.018 -24.387 -13.492  0.00  0.00    +0.317 C 
ATOM      7  C   UNL     1      36.910 -23.076 -11.720  0.00  0.00    +0.063 C 
ENDROOT
BRANCH   3   8
ATOM      8  O   UNL     1      35.890 -23.772 -16.412  0.00  0.00    -0.429 OA
BRANCH   8  13
ATOM      9  O   UNL     1      34.957 -20.816 -20.106  0.00  0.00    -0.435 OA
ATOM     10  O   UNL     1      32.579 -21.135 -19.872  0.00  0.00    -0.435 OA
ATOM     11  C   UNL     1      34.647 -21.663 -19.087  0.00  0.00    +0.179 C 
ATOM     12  C   UNL     1      33.289 -21.845 -18.954  0.00  0.00    +0.177 C 
ATOM     13  C   UNL     1      35.038 -23.128 -17.259  0.00  0.00    +0.151 C 
ATOM     14  C   UNL     1      35.549 -22.292 -18.254  0.00  0.00    +0.078 C 
ATOM     15  C   UNL     1      32.759 -22.666 -17.980  0.00  0.00    +0.043 C 
ATOM     16  C   UNL     1      33.651 -23.315 -17.123  0.00  0.00    +0.041 C 
ATOM     17  C   UNL     1      33.642 -20.487 -20.600  0.00  0.00    +0.429 C 
ENDBRANCH   8  13
ENDBRANCH   3   8
BRANCH   6  18
ATOM     18  O   UNL     1      32.778 -24.883 -13.164  0.00  0.00    -0.375 OA
BRANCH  18  20
ATOM     19  C   UNL     1      29.556 -23.582 -15.434  0.00  0.00    +0.057 C 
ATOM     20  C   UNL     1      31.708 -24.451 -13.918  0.00  0.00    +0.161 C 
ATOM     21  C   UNL     1      30.449 -22.655 -14.896  0.00  0.00    +0.018 C 
ATOM     22  C   UNL     1      29.746 -24.945 -15.210  0.00  0.00    +0.018 C 
ATOM     23  C   UNL     1      31.533 -23.093 -14.133  0.00  0.00    +0.040 C 
ATOM     24  C   UNL     1      30.829 -25.383 -14.448  0.00  0.00    +0.040 C 
BRANCH  19  25
ATOM     25  N   UNL     1      28.482 -23.148 -16.190  0.00  0.00    -0.246 N 
ATOM     26  N   UNL     1      27.092 -22.940 -17.921  0.00  0.00    -0.224 NA
ATOM     27  C   UNL     1      27.513 -22.258 -15.800  0.00  0.00    +0.092 C 
ATOM     28  C   UNL     1      28.181 -23.527 -17.475  0.00  0.00    +0.172 C 
ATOM     29  C   UNL     1      26.672 -22.148 -16.882  0.00  0.00    +0.117 C 
ENDBRANCH  19  25
ENDBRANCH  18  20
ENDBRANCH   6  18
TORSDOF 5
ENDMDL
MODEL 3
REMARK VINA RESULT:     -12.1      3.642      9.962
REMARK  Name = 10157080
REMARK  5 active torsions:
REMARK  status: ('A' for Active; 'I' for Inactive)
REMARK    1  A    between atoms: C_3  and  O_8
REMARK    2  A    between atoms: C_6  and  O_18
REMARK    3  A    between atoms: O_8  and  C_13
REMARK    4  A    between atoms: O_18  and  C_20
REMARK    5  A    between atoms: C_19  and  N_25
REMARK                            x       y       z     vdW  Elec       q    Type
REMARK                         _______ _______ _______ _____ _____    ______ ____
ROOT
ATOM      1  N   UNL     1      36.687 -19.739 -20.542  0.00  0.00    -0.277 NA
ATOM      2  N   UNL     1      34.870 -21.179 -19.883  0.00  0.00    -0.319 NA
ATOM      3  C   UNL     1      35.786 -18.978 -21.184  0.00  0.00    +0.278 C 
ATOM      4  C   UNL     1      34.438 -19.233 -21.232  0.00  0.00    +0.156 C 
ATOM      5  C   UNL     1      34.030 -20.363 -20.553  0.00  0.00    +0.113 C 
ATOM      6  C   UNL     1      36.166 -20.813 -19.918  0.00  0.00    +0.317 C 
ATOM      7  C   UNL     1      32.584 -20.731 -20.541  0.00  0.00    +0.063 C 
ENDROOT
BRANCH   3   8
ATOM      8  O   UNL     1      36.275 -17.861 -21.838  0.00  0.00    -0.429 OA
BRANCH   8  13
ATOM      9  O   UNL     1      34.020 -14.576 -24.553  0.00  0.00    -0.435 OA
ATOM     10  O   UNL     1      33.709 -16.151 -26.351  0.00  0.00    -0.435 OA
ATOM     11  C   UNL     1      34.537 -15.801 -24.263  0.00  0.00    +0.179 C 
ATOM     12  C   UNL     1      34.360 -16.700 -25.290  0.00  0.00    +0.177 C 
ATOM     13  C   UNL     1      35.639 -17.466 -22.976  0.00  0.00    +0.151 C 
ATOM     14  C   UNL     1      35.174 -16.154 -23.092  0.00  0.00    +0.078 C 
ATOM     15  C   UNL     1      34.809 -18.002 -25.201  0.00  0.00    +0.043 C 
ATOM     16  C   UNL     1      35.458 -18.384 -24.025  0.00  0.00    +0.041 C 
ATOM     17  C   UNL     1      33.498 -14.805 -25.878  0.00  0.00    +0.429 C 
ENDBRANCH   8  13
ENDBRANCH   3   8
BRANCH   6  18
ATOM     18  O   UNL     1      37.052 -21.624 -19.248  0.00  0.00    -0.375 OA
BRANCH  18  20
ATOM     19  C   UNL     1      35.914 -22.980 -15.494  0.00  0.00    +0.057 C 
ATOM     20  C   UNL     1      36.674 -22.074 -18.002  0.00  0.00    +0.161 C 
ATOM     21  C   UNL     1      37.197 -22.470 -15.692  0.00  0.00    +0.018 C 
ATOM     22  C   UNL     1      35.014 -23.034 -16.558  0.00  0.00    +0.018 C 
ATOM     23  C   UNL     1      37.580 -22.013 -16.954  0.00  0.00    +0.040 C 
ATOM     24  C   UNL     1      35.395 -22.578 -17.819  0.00  0.00    +0.040 C 
BRANCH  19  25
ATOM     25  N   UNL     1      35.536 -23.432 -14.243  0.00  0.00    -0.246 N 
ATOM     26  N   UNL     1      34.270 -24.317 -12.636  0.00  0.00    -0.224 NA
ATOM     27  C   UNL     1      36.297 -23.417 -13.102  0.00  0.00    +0.092 C 
ATOM     28  C   UNL     1      34.325 -23.984 -13.906  0.00  0.00    +0.172 C 
ATOM     29  C   UNL     1      35.496 -23.966 -12.129  0.00  0.00    +0.117 C 
ENDBRANCH  19  25
ENDBRANCH  18  20
ENDBRANCH   6  18
TORSDOF 5
ENDMDL
MODEL 4
REMARK VINA RESULT:     -12.1      4.129     10.312
REMARK  Name = 10157080
REMARK  5 active torsions:
REMARK  status: ('A' for Active; 'I' for Inactive)
REMARK    1  A    between atoms: C_3  and  O_8
REMARK    2  A    between atoms: C_6  and  O_18
REMARK    3  A    between atoms: O_8  and  C_13
REMARK    4  A    between atoms: O_18  and  C_20
REMARK    5  A    between atoms: C_19  and  N_25
REMARK                            x       y       z     vdW  Elec       q    Type
REMARK                         _______ _______ _______ _____ _____    ______ ____
ROOT
ATOM      1  N   UNL     1      35.675 -18.454 -20.802  0.00  0.00    -0.277 NA
ATOM      2  N   UNL     1      35.383 -19.661 -22.868  0.00  0.00    -0.319 NA
ATOM      3  C   UNL     1      35.147 -17.381 -21.413  0.00  0.00    +0.278 C 
ATOM      4  C   UNL     1      34.721 -17.352 -22.718  0.00  0.00    +0.156 C 
ATOM      5  C   UNL     1      34.864 -18.538 -23.408  0.00  0.00    +0.113 C 
ATOM      6  C   UNL     1      35.762 -19.550 -21.581  0.00  0.00    +0.317 C 
ATOM      7  C   UNL     1      34.431 -18.617 -24.833  0.00  0.00    +0.063 C 
ENDROOT
BRANCH   3   8
ATOM      8  O   UNL     1      35.035 -16.231 -20.652  0.00  0.00    -0.429 OA
BRANCH   8  13
ATOM      9  O   UNL     1      34.330 -12.637 -23.789  0.00  0.00    -0.435 OA
ATOM     10  O   UNL     1      32.200 -12.083 -22.807  0.00  0.00    -0.435 OA
ATOM     11  C   UNL     1      34.018 -13.446 -22.741  0.00  0.00    +0.179 C 
ATOM     12  C   UNL     1      32.801 -13.130 -22.180  0.00  0.00    +0.177 C 
ATOM     13  C   UNL     1      34.304 -15.202 -21.166  0.00  0.00    +0.151 C 
ATOM     14  C   UNL     1      34.794 -14.479 -22.256  0.00  0.00    +0.078 C 
ATOM     15  C   UNL     1      32.294 -13.828 -21.103  0.00  0.00    +0.043 C 
ATOM     16  C   UNL     1      33.061 -14.879 -20.593  0.00  0.00    +0.041 C 
ATOM     17  C   UNL     1      33.173 -11.776 -23.826  0.00  0.00    +0.429 C 
ENDBRANCH   8  13
ENDBRANCH   3   8
BRANCH   6  18
ATOM     18  O   UNL     1      36.299 -20.674 -20.999  0.00  0.00    -0.375 OA
BRANCH  18  20
ATOM     19  C   UNL     1      34.105 -22.469 -17.967  0.00  0.00    +0.057 C 
ATOM     20  C   UNL     1      35.571 -21.270 -19.992  0.00  0.00    +0.161 C 
ATOM     21  C   UNL     1      33.458 -21.991 -19.107  0.00  0.00    +0.018 C 
ATOM     22  C   UNL     1      35.489 -22.344 -17.846  0.00  0.00    +0.018 C 
ATOM     23  C   UNL     1      34.196 -21.388 -20.126  0.00  0.00    +0.040 C 
ATOM     24  C   UNL     1      36.227 -21.742 -18.865  0.00  0.00    +0.040 C 
BRANCH  19  25
ATOM     25  N   UNL     1      33.374 -23.066 -16.956  0.00  0.00    -0.246 N 
ATOM     26  N   UNL     1      32.926 -24.139 -15.054  0.00  0.00    -0.224 NA
ATOM     27  C   UNL     1      32.008 -23.175 -16.889  0.00  0.00    +0.092 C 
ATOM     28  C   UNL     1      33.877 -23.663 -15.827  0.00  0.00    +0.172 C 
ATOM     29  C   UNL     1      31.759 -23.839 -15.711  0.00  0.00    +0.117 C 
ENDBRANCH  19  25
ENDBRANCH  18  20
ENDBRANCH   6  18
TORSDOF 5
ENDMDL
MODEL 5
REMARK VINA RESULT:     -11.9      6.258     12.454
REMARK  Name = 10157080
REMARK  5 active torsions:
REMARK  status: ('A' for Active; 'I' for Inactive)
REMARK    1  A    between atoms: C_3  and  O_8
REMARK    2  A    between atoms: C_6  and  O_18
REMARK    3  A    between atoms: O_8  and  C_13
REMARK    4  A    between atoms: O_18  and  C_20
REMARK    5  A    between atoms: C_19  and  N_25
REMARK                            x       y       z     vdW  Elec       q    Type
REMARK                         _______ _______ _______ _____ _____    ______ ____
ROOT
ATOM      1  N   UNL     1      34.124 -15.463 -23.846  0.00  0.00    -0.277 NA
ATOM      2  N   UNL     1      34.114 -15.257 -26.247  0.00  0.00    -0.319 NA
ATOM      3  C   UNL     1      33.378 -14.348 -23.797  0.00  0.00    +0.278 C 
ATOM      4  C   UNL     1      32.961 -13.634 -24.894  0.00  0.00    +0.156 C 
ATOM      5  C   UNL     1      33.365 -14.143 -26.112  0.00  0.00    +0.113 C 
ATOM      6  C   UNL     1      34.454 -15.858 -25.090  0.00  0.00    +0.317 C 
ATOM      7  C   UNL     1      32.967 -13.445 -27.368  0.00  0.00    +0.063 C 
ENDROOT
BRANCH   3   8
ATOM      8  O   UNL     1      33.012 -13.905 -22.538  0.00  0.00    -0.429 OA
BRANCH   8  13
ATOM      9  O   UNL     1      33.285  -9.234 -23.706  0.00  0.00    -0.435 OA
ATOM     10  O   UNL     1      31.552  -8.652 -22.134  0.00  0.00    -0.435 OA
ATOM     11  C   UNL     1      32.810 -10.319 -23.035  0.00  0.00    +0.179 C 
ATOM     12  C   UNL     1      31.820  -9.986 -22.138  0.00  0.00    +0.177 C 
ATOM     13  C   UNL     1      32.626 -12.604 -22.413  0.00  0.00    +0.151 C 
ATOM     14  C   UNL     1      33.235 -11.621 -23.196  0.00  0.00    +0.078 C 
ATOM     15  C   UNL     1      31.202 -10.938 -21.352  0.00  0.00    +0.043 C 
ATOM     16  C   UNL     1      31.614 -12.265 -21.497  0.00  0.00    +0.041 C 
ATOM     17  C   UNL     1      32.483  -8.182 -23.131  0.00  0.00    +0.429 C 
ENDBRANCH   8  13
ENDBRANCH   3   8
BRANCH   6  18
ATOM     18  O   UNL     1      35.221 -16.995 -25.191  0.00  0.00    -0.375 OA
BRANCH  18  20
ATOM     19  C   UNL     1      35.260 -19.550 -21.921  0.00  0.00    +0.057 C 
ATOM     20  C   UNL     1      35.234 -17.843 -24.105  0.00  0.00    +0.161 C 
ATOM     21  C   UNL     1      36.037 -18.392 -21.910  0.00  0.00    +0.018 C 
ATOM     22  C   UNL     1      34.470 -19.849 -23.030  0.00  0.00    +0.018 C 
ATOM     23  C   UNL     1      36.024 -17.532 -23.009  0.00  0.00    +0.040 C 
ATOM     24  C   UNL     1      34.456 -18.991 -24.129  0.00  0.00    +0.040 C 
BRANCH  19  25
ATOM     25  N   UNL     1      35.274 -20.402 -20.831  0.00  0.00    -0.246 N 
ATOM     26  N   UNL     1      34.519 -21.719 -19.198  0.00  0.00    -0.224 NA
ATOM     27  C   UNL     1      36.382 -20.867 -20.169  0.00  0.00    +0.092 C 
ATOM     28  C   UNL     1      34.179 -20.945 -20.205  0.00  0.00    +0.172 C 
ATOM     29  C   UNL     1      35.890 -21.673 -19.170  0.00  0.00    +0.117 C 
ENDBRANCH  19  25
ENDBRANCH  18  20
ENDBRANCH   6  18
TORSDOF 5
ENDMDL
MODEL 6
REMARK VINA RESULT:     -11.9      5.692     10.285
REMARK  Name = 10157080
REMARK  5 active torsions:
REMARK  status: ('A' for Active; 'I' for Inactive)
REMARK    1  A    between atoms: C_3  and  O_8
REMARK    2  A    between atoms: C_6  and  O_18
REMARK    3  A    between atoms: O_8  and  C_13
REMARK    4  A    between atoms: O_18  and  C_20
REMARK    5  A    between atoms: C_19  and  N_25
REMARK                            x       y       z     vdW  Elec       q    Type
REMARK                         _______ _______ _______ _____ _____    ______ ____
ROOT
ATOM      1  N   UNL     1      34.604 -16.018 -23.010  0.00  0.00    -0.277 NA
ATOM      2  N   UNL     1      33.196 -14.611 -24.370  0.00  0.00    -0.319 NA
ATOM      3  C   UNL     1      35.002 -16.626 -24.139  0.00  0.00    +0.278 C 
ATOM      4  C   UNL     1      34.562 -16.305 -25.400  0.00  0.00    +0.156 C 
ATOM      5  C   UNL     1      33.646 -15.274 -25.456  0.00  0.00    +0.113 C 
ATOM      6  C   UNL     1      33.709 -15.029 -23.196  0.00  0.00    +0.317 C 
ATOM      7  C   UNL     1      33.103 -14.843 -26.777  0.00  0.00    +0.063 C 
ENDROOT
BRANCH   3   8
ATOM      8  O   UNL     1      35.925 -17.647 -23.998  0.00  0.00    -0.429 OA
BRANCH   8  13
ATOM      9  O   UNL     1      33.439 -20.536 -21.042  0.00  0.00    -0.435 OA
ATOM     10  O   UNL     1      35.362 -20.889 -19.632  0.00  0.00    -0.435 OA
ATOM     11  C   UNL     1      34.536 -19.864 -21.486  0.00  0.00    +0.179 C 
ATOM     12  C   UNL     1      35.634 -20.066 -20.681  0.00  0.00    +0.177 C 
ATOM     13  C   UNL     1      35.817 -18.449 -22.902  0.00  0.00    +0.151 C 
ATOM     14  C   UNL     1      34.596 -19.060 -22.605  0.00  0.00    +0.078 C 
ATOM     15  C   UNL     1      36.852 -19.474 -20.951  0.00  0.00    +0.043 C 
ATOM     16  C   UNL     1      36.939 -18.656 -22.079  0.00  0.00    +0.041 C 
ATOM     17  C   UNL     1      33.970 -21.184 -19.868  0.00  0.00    +0.429 C 
ENDBRANCH   8  13
ENDBRANCH   3   8
BRANCH   6  18
ATOM     18  O   UNL     1      33.269 -14.378 -22.067  0.00  0.00    -0.375 OA
BRANCH  18  20
ATOM     19  C   UNL     1      32.223 -10.382 -22.471  0.00  0.00    +0.057 C 
ATOM     20  C   UNL     1      32.921 -13.052 -22.201  0.00  0.00    +0.161 C 
ATOM     21  C   UNL     1      33.152 -10.951 -23.341  0.00  0.00    +0.018 C 
ATOM     22  C   UNL     1      31.645 -11.156 -21.465  0.00  0.00    +0.018 C 
ATOM     23  C   UNL     1      33.504 -12.294 -23.206  0.00  0.00    +0.040 C 
ATOM     24  C   UNL     1      31.995 -12.499 -21.329  0.00  0.00    +0.040 C 
BRANCH  19  25
ATOM     25  N   UNL     1      31.875  -9.050 -22.605  0.00  0.00    -0.246 N 
ATOM     26  N   UNL     1      31.176  -7.158 -23.554  0.00  0.00    -0.224 NA
ATOM     27  C   UNL     1      31.912  -8.092 -21.624  0.00  0.00    +0.092 C 
ATOM     28  C   UNL     1      31.425  -8.434 -23.747  0.00  0.00    +0.172 C 
ATOM     29  C   UNL     1      31.478  -6.939 -22.234  0.00  0.00    +0.117 C 
ENDBRANCH  19  25
ENDBRANCH  18  20
ENDBRANCH   6  18
TORSDOF 5
ENDMDL
MODEL 7
REMARK VINA RESULT:     -11.7      4.258      8.178
REMARK  Name = 10157080
REMARK  5 active torsions:
REMARK  status: ('A' for Active; 'I' for Inactive)
REMARK    1  A    between atoms: C_3  and  O_8
REMARK    2  A    between atoms: C_6  and  O_18
REMARK    3  A    between atoms: O_8  and  C_13
REMARK    4  A    between atoms: O_18  and  C_20
REMARK    5  A    between atoms: C_19  and  N_25
REMARK                            x       y       z     vdW  Elec       q    Type
REMARK                         _______ _______ _______ _____ _____    ______ ____
ROOT
ATOM      1  N   UNL     1      35.153 -17.796 -21.090  0.00  0.00    -0.277 NA
ATOM      2  N   UNL     1      34.631 -16.259 -22.872  0.00  0.00    -0.319 NA
ATOM      3  C   UNL     1      35.510 -18.686 -22.029  0.00  0.00    +0.278 C 
ATOM      4  C   UNL     1      35.462 -18.460 -23.383  0.00  0.00    +0.156 C 
ATOM      5  C   UNL     1      35.008 -17.210 -23.752  0.00  0.00    +0.113 C 
ATOM      6  C   UNL     1      34.727 -16.614 -21.576  0.00  0.00    +0.317 C 
ATOM      7  C   UNL     1      34.917 -16.860 -25.199  0.00  0.00    +0.063 C 
ENDROOT
BRANCH   3   8
ATOM      8  O   UNL     1      35.957 -19.915 -21.576  0.00  0.00    -0.429 OA
BRANCH   8  13
ATOM      9  O   UNL     1      35.261 -22.890 -17.845  0.00  0.00    -0.435 OA
ATOM     10  O   UNL     1      32.866 -22.700 -18.031  0.00  0.00    -0.435 OA
ATOM     11  C   UNL     1      34.885 -22.069 -18.863  0.00  0.00    +0.179 C 
ATOM     12  C   UNL     1      33.517 -21.960 -18.969  0.00  0.00    +0.177 C 
ATOM     13  C   UNL     1      35.159 -20.597 -20.708  0.00  0.00    +0.151 C 
ATOM     14  C   UNL     1      35.734 -21.398 -19.719  0.00  0.00    +0.078 C 
ATOM     15  C   UNL     1      32.923 -21.176 -19.937  0.00  0.00    +0.043 C 
ATOM     16  C   UNL     1      33.761 -20.486 -20.816  0.00  0.00    +0.041 C 
ATOM     17  C   UNL     1      33.977 -23.286 -17.322  0.00  0.00    +0.429 C 
ENDBRANCH   8  13
ENDBRANCH   3   8
BRANCH   6  18
ATOM     18  O   UNL     1      34.347 -15.670 -20.651  0.00  0.00    -0.375 OA
BRANCH  18  20
ATOM     19  C   UNL     1      32.837 -12.090 -22.108  0.00  0.00    +0.057 C 
ATOM     20  C   UNL     1      33.845 -14.482 -21.135  0.00  0.00    +0.161 C 
ATOM     21  C   UNL     1      33.979 -12.649 -22.682  0.00  0.00    +0.018 C 
ATOM     22  C   UNL     1      32.202 -12.734 -21.046  0.00  0.00    +0.018 C 
ATOM     23  C   UNL     1      34.486 -13.853 -22.192  0.00  0.00    +0.040 C 
ATOM     24  C   UNL     1      32.709 -13.937 -20.557  0.00  0.00    +0.040 C 
BRANCH  19  25
ATOM     25  N   UNL     1      32.334 -10.896 -22.594  0.00  0.00    -0.246 N 
ATOM     26  N   UNL     1      30.925  -9.199 -22.915  0.00  0.00    -0.224 NA
ATOM     27  C   UNL     1      32.958 -10.038 -23.463  0.00  0.00    +0.092 C 
ATOM     28  C   UNL     1      31.113 -10.343 -22.296  0.00  0.00    +0.172 C 
ATOM     29  C   UNL     1      32.071  -9.003 -23.644  0.00  0.00    +0.117 C 
ENDBRANCH  19  25
ENDBRANCH  18  20
ENDBRANCH   6  18
TORSDOF 5
ENDMDL
MODEL 8
REMARK VINA RESULT:     -11.6      5.779     10.058
REMARK  Name = 10157080
REMARK  5 active torsions:
REMARK  status: ('A' for Active; 'I' for Inactive)
REMARK    1  A    between atoms: C_3  and  O_8
REMARK    2  A    between atoms: C_6  and  O_18
REMARK    3  A    between atoms: O_8  and  C_13
REMARK    4  A    between atoms: O_18  and  C_20
REMARK    5  A    between atoms: C_19  and  N_25
REMARK                            x       y       z     vdW  Elec       q    Type
REMARK                         _______ _______ _______ _____ _____    ______ ____
ROOT
ATOM      1  N   UNL     1      34.553 -15.740 -22.479  0.00  0.00    -0.277 NA
ATOM      2  N   UNL     1      33.165 -14.632 -24.108  0.00  0.00    -0.319 NA
ATOM      3  C   UNL     1      35.163 -16.367 -23.498  0.00  0.00    +0.278 C 
ATOM      4  C   UNL     1      34.849 -16.196 -24.824  0.00  0.00    +0.156 C 
ATOM      5  C   UNL     1      33.827 -15.302 -25.074  0.00  0.00    +0.113 C 
ATOM      6  C   UNL     1      33.574 -14.895 -22.851  0.00  0.00    +0.317 C 
ATOM      7  C   UNL     1      33.406 -15.041 -26.481  0.00  0.00    +0.063 C 
ENDROOT
BRANCH   3   8
ATOM      8  O   UNL     1      36.179 -17.245 -23.164  0.00  0.00    -0.429 OA
BRANCH   8  13
ATOM      9  O   UNL     1      37.175 -20.337 -19.600  0.00  0.00    -0.435 OA
ATOM     10  O   UNL     1      35.046 -21.439 -19.846  0.00  0.00    -0.435 OA
ATOM     11  C   UNL     1      36.419 -19.786 -20.588  0.00  0.00    +0.179 C 
ATOM     12  C   UNL     1      35.203 -20.415 -20.729  0.00  0.00    +0.177 C 
ATOM     13  C   UNL     1      35.867 -18.294 -22.353  0.00  0.00    +0.151 C 
ATOM     14  C   UNL     1      36.781 -18.721 -21.386  0.00  0.00    +0.078 C 
ATOM     15  C   UNL     1      34.282 -20.014 -21.675  0.00  0.00    +0.043 C 
ATOM     16  C   UNL     1      34.624 -18.937 -22.496  0.00  0.00    +0.041 C 
ATOM     17  C   UNL     1      36.298 -21.383 -19.134  0.00  0.00    +0.429 C 
ENDBRANCH   8  13
ENDBRANCH   3   8
BRANCH   6  18
ATOM     18  O   UNL     1      32.918 -14.231 -21.841  0.00  0.00    -0.375 OA
BRANCH  18  20
ATOM     19  C   UNL     1      32.126 -10.200 -22.424  0.00  0.00    +0.057 C 
ATOM     20  C   UNL     1      32.654 -12.893 -22.034  0.00  0.00    +0.161 C 
ATOM     21  C   UNL     1      32.966 -10.880 -23.306  0.00  0.00    +0.018 C 
ATOM     22  C   UNL     1      31.551 -10.874 -21.348  0.00  0.00    +0.018 C 
ATOM     23  C   UNL     1      33.232 -12.235 -23.110  0.00  0.00    +0.040 C 
ATOM     24  C   UNL     1      31.816 -12.229 -21.151  0.00  0.00    +0.040 C 
BRANCH  19  25
ATOM     25  N   UNL     1      31.862  -8.856 -22.619  0.00  0.00    -0.246 N 
ATOM     26  N   UNL     1      31.377  -6.952 -23.673  0.00  0.00    -0.224 NA
ATOM     27  C   UNL     1      31.828  -7.880 -21.654  0.00  0.00    +0.092 C 
ATOM     28  C   UNL     1      31.584  -8.242 -23.815  0.00  0.00    +0.172 C 
ATOM     29  C   UNL     1      31.528  -6.721 -22.329  0.00  0.00    +0.117 C 
ENDBRANCH  19  25
ENDBRANCH  18  20
ENDBRANCH   6  18
TORSDOF 5
ENDMDL
MODEL 9
REMARK VINA RESULT:     -11.6     10.302     16.409
REMARK  Name = 10157080
REMARK  5 active torsions:
REMARK  status: ('A' for Active; 'I' for Inactive)
REMARK    1  A    between atoms: C_3  and  O_8
REMARK    2  A    between atoms: C_6  and  O_18
REMARK    3  A    between atoms: O_8  and  C_13
REMARK    4  A    between atoms: O_18  and  C_20
REMARK    5  A    between atoms: C_19  and  N_25
REMARK                            x       y       z     vdW  Elec       q    Type
REMARK                         _______ _______ _______ _____ _____    ______ ____
ROOT
ATOM      1  N   UNL     1      33.095  -9.141 -22.982  0.00  0.00    -0.277 NA
ATOM      2  N   UNL     1      31.719  -8.965 -21.011  0.00  0.00    -0.319 NA
ATOM      3  C   UNL     1      33.693  -7.999 -22.605  0.00  0.00    +0.278 C 
ATOM      4  C   UNL     1      33.379  -7.285 -21.475  0.00  0.00    +0.156 C 
ATOM      5  C   UNL     1      32.369  -7.824 -20.704  0.00  0.00    +0.113 C 
ATOM      6  C   UNL     1      32.126  -9.563 -22.147  0.00  0.00    +0.317 C 
ATOM      7  C   UNL     1      31.949  -7.128 -19.453  0.00  0.00    +0.063 C 
ENDROOT
BRANCH   3   8
ATOM      8  O   UNL     1      34.698  -7.527 -23.431  0.00  0.00    -0.429 OA
BRANCH   8  13
ATOM      9  O   UNL     1      31.675  -4.298 -25.351  0.00  0.00    -0.435 OA
ATOM     10  O   UNL     1      33.236  -3.751 -27.104  0.00  0.00    -0.435 OA
ATOM     11  C   UNL     1      32.828  -5.014 -25.258  0.00  0.00    +0.179 C 
ATOM     12  C   UNL     1      33.720  -4.702 -26.259  0.00  0.00    +0.177 C 
ATOM     13  C   UNL     1      34.363  -6.591 -24.362  0.00  0.00    +0.151 C 
ATOM     14  C   UNL     1      33.121  -5.955 -24.293  0.00  0.00    +0.078 C 
ATOM     15  C   UNL     1      34.953  -5.314 -26.350  0.00  0.00    +0.043 C 
ATOM     16  C   UNL     1      35.275  -6.271 -25.385  0.00  0.00    +0.041 C 
ATOM     17  C   UNL     1      31.941  -3.500 -26.523  0.00  0.00    +0.429 C 
ENDBRANCH   8  13
ENDBRANCH   3   8
BRANCH   6  18
ATOM     18  O   UNL     1      31.482 -10.728 -22.494  0.00  0.00    -0.375 OA
BRANCH  18  20
ATOM     19  C   UNL     1      33.625 -14.262 -22.115  0.00  0.00    +0.057 C 
ATOM     20  C   UNL     1      32.193 -11.901 -22.369  0.00  0.00    +0.161 C 
ATOM     21  C   UNL     1      32.744 -13.870 -21.108  0.00  0.00    +0.018 C 
ATOM     22  C   UNL     1      33.786 -13.467 -23.250  0.00  0.00    +0.018 C 
ATOM     23  C   UNL     1      32.023 -12.682 -21.235  0.00  0.00    +0.040 C 
ATOM     24  C   UNL     1      33.066 -12.280 -23.378  0.00  0.00    +0.040 C 
BRANCH  19  25
ATOM     25  N   UNL     1      34.340 -15.439 -21.988  0.00  0.00    -0.246 N 
ATOM     26  N   UNL     1      35.324 -17.193 -21.027  0.00  0.00    -0.224 NA
ATOM     27  C   UNL     1      34.897 -16.173 -23.005  0.00  0.00    +0.092 C 
ATOM     28  C   UNL     1      34.627 -16.098 -20.819  0.00  0.00    +0.172 C 
ATOM     29  C   UNL     1      35.495 -17.245 -22.387  0.00  0.00    +0.117 C 
ENDBRANCH  19  25
ENDBRANCH  18  20
ENDBRANCH   6  18
TORSDOF 5
ENDMDL
