MODEL 1
REMARK VINA RESULT:     -13.4      0.000      0.000
REMARK  Name = 9889200
REMARK  5 active torsions:
REMARK  status: ('A' for Active; 'I' for Inactive)
REMARK    1  A    between atoms: C_1  and  C_21
REMARK    2  A    between atoms: C_4  and  O_7
REMARK    3  A    between atoms: O_7  and  C_8
REMARK    4  A    between atoms: C_8  and  C_12
REMARK    5  A    between atoms: C_21  and  C_26
REMARK                            x       y       z     vdW  Elec       q    Type
REMARK                         _______ _______ _______ _____ _____    ______ ____
ROOT
ATOM      1  C   UNL     1      35.654 -19.800 -20.914  0.00  0.00    -0.021 C 
ATOM      2  C   UNL     1      34.305 -20.136 -20.812  0.00  0.00    -0.001 C 
ATOM      3  C   UNL     1      36.619 -20.586 -20.284  0.00  0.00    -0.001 C 
ATOM      4  C   UNL     1      34.887 -22.035 -19.456  0.00  0.00    +0.139 C 
ATOM      5  C   UNL     1      33.919 -21.259 -20.078  0.00  0.00    +0.037 C 
ATOM      6  C   UNL     1      36.234 -21.709 -19.552  0.00  0.00    +0.037 C 
ENDROOT
BRANCH   4   7
ATOM      7  O   UNL     1      34.508 -23.142 -18.735  0.00  0.00    -0.466 OA
BRANCH   7   8
ATOM      8  C   UNL     1      33.581 -22.945 -17.690  0.00  0.00    +0.279 C 
BRANCH   8  12
ATOM      9  O   UNL     1      33.129 -24.287 -13.070  0.00  0.00    -0.274 OA
ATOM     10  N   UNL     1      33.325 -23.632 -15.309  0.00  0.00    -0.232 N 
ATOM     11  N   UNL     1      35.458 -23.646 -16.360  0.00  0.00    -0.391 NA
ATOM     12  C   UNL     1      34.178 -23.435 -16.392  0.00  0.00    +0.210 C 
ATOM     13  C   UNL     1      35.265 -24.332 -14.017  0.00  0.00    +0.151 C 
ATOM     14  C   UNL     1      36.028 -24.101 -15.165  0.00  0.00    +0.123 C 
ATOM     15  C   UNL     1      33.808 -24.087 -14.072  0.00  0.00    +0.241 C 
ATOM     16  C   UNL     1      31.891 -23.370 -15.426  0.00  0.00    +0.122 C 
ATOM     17  C   UNL     1      35.866 -24.787 -12.839  0.00  0.00    -0.010 C 
ATOM     18  C   UNL     1      37.407 -24.332 -15.117  0.00  0.00    +0.028 C 
ATOM     19  C   UNL     1      37.241 -25.013 -12.806  0.00  0.00    -0.004 C 
ATOM     20  C   UNL     1      38.011 -24.786 -13.944  0.00  0.00    +0.002 C 
ENDBRANCH   8  12
ENDBRANCH   7   8
ENDBRANCH   4   7
BRANCH   1  21
ATOM     21  C   UNL     1      36.065 -18.599 -21.696  0.00  0.00    +0.047 C 
BRANCH  21  26
ATOM     22  S   UNL     1      34.934 -18.457 -24.211  0.00  0.00    -0.048 S 
ATOM     23  O   UNL     1      35.008 -15.798 -21.414  0.00  0.00    -0.274 OA
ATOM     24  O   UNL     1      34.971 -16.510 -25.978  0.00  0.00    -0.263 OA
ATOM     25  N   UNL     1      34.981 -15.950 -23.722  0.00  0.00    -0.246 N 
ATOM     26  C   UNL     1      34.897 -17.976 -22.457  0.00  0.00    +0.137 C 
ATOM     27  C   UNL     1      34.969 -16.465 -22.442  0.00  0.00    +0.239 C 
ATOM     28  C   UNL     1      34.963 -16.805 -24.792  0.00  0.00    +0.279 C 
ATOM     29  H   UNL     1      35.000 -14.976 -23.864  0.00  0.00    +0.158 HD
ENDBRANCH  21  26
ENDBRANCH   1  21
TORSDOF 5
ENDMDL
MODEL 2
REMARK VINA RESULT:     -13.4      1.268      3.378
REMARK  Name = 9889200
REMARK  5 active torsions:
REMARK  status: ('A' for Active; 'I' for Inactive)
REMARK    1  A    between atoms: C_1  and  C_21
REMARK    2  A    between atoms: C_4  and  O_7
REMARK    3  A    between atoms: O_7  and  C_8
REMARK    4  A    between atoms: C_8  and  C_12
REMARK    5  A    between atoms: C_21  and  C_26
REMARK                            x       y       z     vdW  Elec       q    Type
REMARK                         _______ _______ _______ _____ _____    ______ ____
ROOT
ATOM      1  C   UNL     1      35.708 -19.938 -20.890  0.00  0.00    -0.021 C 
ATOM      2  C   UNL     1      34.357 -20.253 -20.752  0.00  0.00    -0.001 C 
ATOM      3  C   UNL     1      36.668 -20.656 -20.178  0.00  0.00    -0.001 C 
ATOM      4  C   UNL     1      34.929 -21.995 -19.195  0.00  0.00    +0.139 C 
ATOM      5  C   UNL     1      33.965 -21.287 -19.899  0.00  0.00    +0.037 C 
ATOM      6  C   UNL     1      36.277 -21.690 -19.327  0.00  0.00    +0.037 C 
ENDROOT
BRANCH   4   7
ATOM      7  O   UNL     1      34.543 -23.014 -18.358  0.00  0.00    -0.466 OA
BRANCH   7   8
ATOM      8  C   UNL     1      34.704 -22.806 -16.971  0.00  0.00    +0.279 C 
BRANCH   8  12
ATOM      9  O   UNL     1      32.807 -25.085 -13.157  0.00  0.00    -0.274 OA
ATOM     10  N   UNL     1      33.747 -23.983 -14.995  0.00  0.00    -0.232 N 
ATOM     11  N   UNL     1      32.359 -23.310 -16.805  0.00  0.00    -0.391 NA
ATOM     12  C   UNL     1      33.523 -23.391 -16.236  0.00  0.00    +0.210 C 
ATOM     13  C   UNL     1      31.364 -24.463 -14.888  0.00  0.00    +0.151 C 
ATOM     14  C   UNL     1      31.252 -23.848 -16.137  0.00  0.00    +0.123 C 
ATOM     15  C   UNL     1      32.697 -24.547 -14.254  0.00  0.00    +0.241 C 
ATOM     16  C   UNL     1      35.092 -24.035 -14.422  0.00  0.00    +0.122 C 
ATOM     17  C   UNL     1      30.238 -24.991 -14.247  0.00  0.00    -0.010 C 
ATOM     18  C   UNL     1      29.992 -23.767 -16.740  0.00  0.00    +0.028 C 
ATOM     19  C   UNL     1      28.989 -24.902 -14.859  0.00  0.00    -0.004 C 
ATOM     20  C   UNL     1      28.866 -24.291 -16.105  0.00  0.00    +0.002 C 
ENDBRANCH   8  12
ENDBRANCH   7   8
ENDBRANCH   4   7
BRANCH   1  21
ATOM     21  C   UNL     1      36.126 -18.833 -21.799  0.00  0.00    +0.047 C 
BRANCH  21  26
ATOM     22  S   UNL     1      34.921 -18.576 -24.270  0.00  0.00    -0.048 S 
ATOM     23  O   UNL     1      35.082 -16.048 -21.358  0.00  0.00    -0.274 OA
ATOM     24  O   UNL     1      34.909 -16.550 -25.947  0.00  0.00    -0.263 OA
ATOM     25  N   UNL     1      34.986 -16.094 -23.669  0.00  0.00    -0.246 N 
ATOM     26  C   UNL     1      34.937 -18.176 -22.496  0.00  0.00    +0.137 C 
ATOM     27  C   UNL     1      35.012 -16.668 -22.415  0.00  0.00    +0.239 C 
ATOM     28  C   UNL     1      34.936 -16.900 -24.776  0.00  0.00    +0.279 C 
ATOM     29  H   UNL     1      35.003 -15.114 -23.767  0.00  0.00    +0.158 HD
ENDBRANCH  21  26
ENDBRANCH   1  21
TORSDOF 5
ENDMDL
MODEL 3
REMARK VINA RESULT:     -13.2      1.304      1.743
REMARK  Name = 9889200
REMARK  5 active torsions:
REMARK  status: ('A' for Active; 'I' for Inactive)
REMARK    1  A    between atoms: C_1  and  C_21
REMARK    2  A    between atoms: C_4  and  O_7
REMARK    3  A    between atoms: O_7  and  C_8
REMARK    4  A    between atoms: C_8  and  C_12
REMARK    5  A    between atoms: C_21  and  C_26
REMARK                            x       y       z     vdW  Elec       q    Type
REMARK                         _______ _______ _______ _____ _____    ______ ____
ROOT
ATOM      1  C   UNL     1      34.406 -20.255 -20.987  0.00  0.00    -0.021 C 
ATOM      2  C   UNL     1      33.418 -20.903 -20.246  0.00  0.00    -0.001 C 
ATOM      3  C   UNL     1      35.752 -20.472 -20.696  0.00  0.00    -0.001 C 
ATOM      4  C   UNL     1      35.120 -21.977 -18.930  0.00  0.00    +0.139 C 
ATOM      5  C   UNL     1      33.777 -21.769 -19.212  0.00  0.00    +0.037 C 
ATOM      6  C   UNL     1      36.111 -21.338 -19.663  0.00  0.00    +0.037 C 
ENDROOT
BRANCH   4   7
ATOM      7  O   UNL     1      35.473 -22.831 -17.913  0.00  0.00    -0.466 OA
BRANCH   7   8
ATOM      8  C   UNL     1      34.478 -23.154 -16.966  0.00  0.00    +0.279 C 
BRANCH   8  12
ATOM      9  O   UNL     1      34.285 -24.548 -12.343  0.00  0.00    -0.274 OA
ATOM     10  N   UNL     1      34.356 -23.865 -14.581  0.00  0.00    -0.232 N 
ATOM     11  N   UNL     1      36.378 -24.073 -15.815  0.00  0.00    -0.391 NA
ATOM     12  C   UNL     1      35.129 -23.732 -15.732  0.00  0.00    +0.210 C 
ATOM     13  C   UNL     1      36.316 -24.790 -13.474  0.00  0.00    +0.151 C 
ATOM     14  C   UNL     1      36.998 -24.611 -14.680  0.00  0.00    +0.123 C 
ATOM     15  C   UNL     1      34.893 -24.395 -13.398  0.00  0.00    +0.241 C 
ATOM     16  C   UNL     1      32.952 -23.456 -14.570  0.00  0.00    +0.122 C 
ATOM     17  C   UNL     1      36.964 -25.330 -12.358  0.00  0.00    -0.010 C 
ATOM     18  C   UNL     1      38.345 -24.983 -14.756  0.00  0.00    +0.028 C 
ATOM     19  C   UNL     1      38.306 -25.697 -12.449  0.00  0.00    -0.004 C 
ATOM     20  C   UNL     1      38.996 -25.523 -13.647  0.00  0.00    +0.002 C 
ENDBRANCH   8  12
ENDBRANCH   7   8
ENDBRANCH   4   7
BRANCH   1  21
ATOM     21  C   UNL     1      34.022 -19.329 -22.091  0.00  0.00    +0.047 C 
BRANCH  21  26
ATOM     22  S   UNL     1      35.168 -16.835 -21.791  0.00  0.00    -0.048 S 
ATOM     23  O   UNL     1      35.091 -19.128 -24.894  0.00  0.00    -0.274 OA
ATOM     24  O   UNL     1      35.150 -14.757 -23.402  0.00  0.00    -0.263 OA
ATOM     25  N   UNL     1      35.131 -16.881 -24.344  0.00  0.00    -0.246 N 
ATOM     26  C   UNL     1      35.198 -18.479 -22.567  0.00  0.00    +0.137 C 
ATOM     27  C   UNL     1      35.133 -18.231 -24.058  0.00  0.00    +0.239 C 
ATOM     28  C   UNL     1      35.150 -15.976 -23.316  0.00  0.00    +0.279 C 
ATOM     29  H   UNL     1      35.117 -16.572 -25.279  0.00  0.00    +0.158 HD
ENDBRANCH  21  26
ENDBRANCH   1  21
TORSDOF 5
ENDMDL
MODEL 4
REMARK VINA RESULT:     -12.7      3.064     10.319
REMARK  Name = 9889200
REMARK  5 active torsions:
REMARK  status: ('A' for Active; 'I' for Inactive)
REMARK    1  A    between atoms: C_1  and  C_21
REMARK    2  A    between atoms: C_4  and  O_7
REMARK    3  A    between atoms: O_7  and  C_8
REMARK    4  A    between atoms: C_8  and  C_12
REMARK    5  A    between atoms: C_21  and  C_26
REMARK                            x       y       z     vdW  Elec       q    Type
REMARK                         _______ _______ _______ _____ _____    ______ ____
ROOT
ATOM      1  C   UNL     1      34.101 -22.215 -19.122  0.00  0.00    -0.021 C 
ATOM      2  C   UNL     1      33.059 -21.486 -19.695  0.00  0.00    -0.001 C 
ATOM      3  C   UNL     1      35.423 -21.915 -19.447  0.00  0.00    -0.001 C 
ATOM      4  C   UNL     1      34.660 -20.167 -20.911  0.00  0.00    +0.139 C 
ATOM      5  C   UNL     1      33.340 -20.457 -20.595  0.00  0.00    +0.037 C 
ATOM      6  C   UNL     1      35.705 -20.886 -20.346  0.00  0.00    +0.037 C 
ENDROOT
BRANCH   4   7
ATOM      7  O   UNL     1      34.936 -19.152 -21.796  0.00  0.00    -0.466 OA
BRANCH   7   8
ATOM      8  C   UNL     1      35.541 -17.988 -21.275  0.00  0.00    +0.279 C 
BRANCH   8  12
ATOM      9  O   UNL     1      34.125 -15.149 -24.919  0.00  0.00    -0.274 OA
ATOM     10  N   UNL     1      34.823 -16.538 -23.169  0.00  0.00    -0.232 N 
ATOM     11  N   UNL     1      34.225 -16.006 -20.929  0.00  0.00    -0.391 NA
ATOM     12  C   UNL     1      34.815 -16.771 -21.795  0.00  0.00    +0.210 C 
ATOM     13  C   UNL     1      33.490 -14.545 -22.752  0.00  0.00    +0.151 C 
ATOM     14  C   UNL     1      33.547 -14.872 -21.395  0.00  0.00    +0.123 C 
ATOM     15  C   UNL     1      34.169 -15.427 -23.724  0.00  0.00    +0.241 C 
ATOM     16  C   UNL     1      35.514 -17.449 -24.080  0.00  0.00    +0.122 C 
ATOM     17  C   UNL     1      32.804 -13.405 -23.185  0.00  0.00    -0.010 C 
ATOM     18  C   UNL     1      32.906 -14.040 -20.471  0.00  0.00    +0.028 C 
ATOM     19  C   UNL     1      32.169 -12.585 -22.253  0.00  0.00    -0.004 C 
ATOM     20  C   UNL     1      32.220 -12.902 -20.897  0.00  0.00    +0.002 C 
ENDBRANCH   8  12
ENDBRANCH   7   8
ENDBRANCH   4   7
BRANCH   1  21
ATOM     21  C   UNL     1      33.801 -23.315 -18.162  0.00  0.00    +0.047 C 
BRANCH  21  26
ATOM     22  S   UNL     1      34.318 -23.581 -15.463  0.00  0.00    -0.048 S 
ATOM     23  O   UNL     1      30.992 -22.764 -17.242  0.00  0.00    -0.274 OA
ATOM     24  O   UNL     1      32.943 -24.807 -13.587  0.00  0.00    -0.263 OA
ATOM     25  N   UNL     1      31.778 -23.827 -15.343  0.00  0.00    -0.246 N 
ATOM     26  C   UNL     1      33.368 -22.789 -16.796  0.00  0.00    +0.137 C 
ATOM     27  C   UNL     1      31.917 -23.109 -16.514  0.00  0.00    +0.239 C 
ATOM     28  C   UNL     1      32.897 -24.177 -14.633  0.00  0.00    +0.279 C 
ATOM     29  H   UNL     1      30.884 -24.083 -15.022  0.00  0.00    +0.158 HD
ENDBRANCH  21  26
ENDBRANCH   1  21
TORSDOF 5
ENDMDL
MODEL 5
REMARK VINA RESULT:     -12.6      3.512     10.252
REMARK  Name = 9889200
REMARK  5 active torsions:
REMARK  status: ('A' for Active; 'I' for Inactive)
REMARK    1  A    between atoms: C_1  and  C_21
REMARK    2  A    between atoms: C_4  and  O_7
REMARK    3  A    between atoms: O_7  and  C_8
REMARK    4  A    between atoms: C_8  and  C_12
REMARK    5  A    between atoms: C_21  and  C_26
REMARK                            x       y       z     vdW  Elec       q    Type
REMARK                         _______ _______ _______ _____ _____    ______ ____
ROOT
ATOM      1  C   UNL     1      33.943 -22.653 -18.337  0.00  0.00    -0.021 C 
ATOM      2  C   UNL     1      35.321 -22.439 -18.301  0.00  0.00    -0.001 C 
ATOM      3  C   UNL     1      33.145 -21.915 -19.210  0.00  0.00    -0.001 C 
ATOM      4  C   UNL     1      35.097 -20.756 -20.003  0.00  0.00    +0.139 C 
ATOM      5  C   UNL     1      35.901 -21.485 -19.138  0.00  0.00    +0.037 C 
ATOM      6  C   UNL     1      33.725 -20.962 -20.048  0.00  0.00    +0.037 C 
ENDROOT
BRANCH   4   7
ATOM      7  O   UNL     1      35.669 -19.818 -20.829  0.00  0.00    -0.466 OA
BRANCH   7   8
ATOM      8  C   UNL     1      35.329 -19.870 -22.198  0.00  0.00    +0.279 C 
BRANCH   8  12
ATOM      9  O   UNL     1      34.655 -16.747 -25.823  0.00  0.00    -0.274 OA
ATOM     10  N   UNL     1      34.985 -18.277 -24.082  0.00  0.00    -0.232 N 
ATOM     11  N   UNL     1      34.972 -17.521 -21.827  0.00  0.00    -0.391 NA
ATOM     12  C   UNL     1      35.081 -18.470 -22.706  0.00  0.00    +0.210 C 
ATOM     13  C   UNL     1      34.627 -15.911 -23.640  0.00  0.00    +0.151 C 
ATOM     14  C   UNL     1      34.742 -16.217 -22.282  0.00  0.00    +0.123 C 
ATOM     15  C   UNL     1      34.754 -17.005 -24.627  0.00  0.00    +0.241 C 
ATOM     16  C   UNL     1      35.120 -19.402 -25.008  0.00  0.00    +0.122 C 
ATOM     17  C   UNL     1      34.397 -14.597 -24.061  0.00  0.00    -0.010 C 
ATOM     18  C   UNL     1      34.622 -15.185 -21.344  0.00  0.00    +0.028 C 
ATOM     19  C   UNL     1      34.279 -13.579 -23.116  0.00  0.00    -0.004 C 
ATOM     20  C   UNL     1      34.392 -13.872 -21.759  0.00  0.00    +0.002 C 
ENDBRANCH   8  12
ENDBRANCH   7   8
ENDBRANCH   4   7
BRANCH   1  21
ATOM     21  C   UNL     1      33.323 -23.672 -17.441  0.00  0.00    +0.047 C 
BRANCH  21  26
ATOM     22  S   UNL     1      33.250 -23.935 -14.694  0.00  0.00    -0.048 S 
ATOM     23  O   UNL     1      30.508 -22.673 -17.099  0.00  0.00    -0.274 OA
ATOM     24  O   UNL     1      31.359 -24.883 -13.132  0.00  0.00    -0.263 OA
ATOM     25  N   UNL     1      30.730 -23.787 -15.084  0.00  0.00    -0.246 N 
ATOM     26  C   UNL     1      32.716 -23.046 -16.188  0.00  0.00    +0.137 C 
ATOM     27  C   UNL     1      31.206 -23.134 -16.201  0.00  0.00    +0.239 C 
ATOM     28  C   UNL     1      31.618 -24.283 -14.165  0.00  0.00    +0.279 C 
ATOM     29  H   UNL     1      29.761 -23.895 -14.947  0.00  0.00    +0.158 HD
ENDBRANCH  21  26
ENDBRANCH   1  21
TORSDOF 5
ENDMDL
MODEL 6
REMARK VINA RESULT:     -12.5      7.162     11.495
REMARK  Name = 9889200
REMARK  5 active torsions:
REMARK  status: ('A' for Active; 'I' for Inactive)
REMARK    1  A    between atoms: C_1  and  C_21
REMARK    2  A    between atoms: C_4  and  O_7
REMARK    3  A    between atoms: O_7  and  C_8
REMARK    4  A    between atoms: C_8  and  C_12
REMARK    5  A    between atoms: C_21  and  C_26
REMARK                            x       y       z     vdW  Elec       q    Type
REMARK                         _______ _______ _______ _____ _____    ______ ____
ROOT
ATOM      1  C   UNL     1      31.692  -9.399 -22.887  0.00  0.00    -0.021 C 
ATOM      2  C   UNL     1      31.060 -10.325 -22.059  0.00  0.00    -0.001 C 
ATOM      3  C   UNL     1      32.821  -9.771 -23.617  0.00  0.00    -0.001 C 
ATOM      4  C   UNL     1      32.682 -11.985 -22.689  0.00  0.00    +0.139 C 
ATOM      5  C   UNL     1      31.558 -11.625 -21.959  0.00  0.00    +0.037 C 
ATOM      6  C   UNL     1      33.318 -11.070 -23.518  0.00  0.00    +0.037 C 
ENDROOT
BRANCH   4   7
ATOM      7  O   UNL     1      33.171 -13.266 -22.592  0.00  0.00    -0.466 OA
BRANCH   7   8
ATOM      8  C   UNL     1      34.401 -13.537 -23.228  0.00  0.00    +0.279 C 
BRANCH   8  12
ATOM      9  O   UNL     1      34.305 -17.574 -25.881  0.00  0.00    -0.274 OA
ATOM     10  N   UNL     1      34.344 -15.606 -24.614  0.00  0.00    -0.232 N 
ATOM     11  N   UNL     1      34.929 -15.696 -22.311  0.00  0.00    -0.391 NA
ATOM     12  C   UNL     1      34.574 -15.030 -23.367  0.00  0.00    +0.210 C 
ATOM     13  C   UNL     1      34.891 -17.762 -23.626  0.00  0.00    +0.151 C 
ATOM     14  C   UNL     1      35.094 -17.082 -22.422  0.00  0.00    +0.123 C 
ATOM     15  C   UNL     1      34.487 -16.987 -24.819  0.00  0.00    +0.241 C 
ATOM     16  C   UNL     1      33.946 -14.785 -25.757  0.00  0.00    +0.122 C 
ATOM     17  C   UNL     1      35.065 -19.148 -23.703  0.00  0.00    -0.010 C 
ATOM     18  C   UNL     1      35.476 -17.811 -21.291  0.00  0.00    +0.028 C 
ATOM     19  C   UNL     1      35.446 -19.861 -22.568  0.00  0.00    -0.004 C 
ATOM     20  C   UNL     1      35.652 -19.194 -21.363  0.00  0.00    +0.002 C 
ENDBRANCH   8  12
ENDBRANCH   7   8
ENDBRANCH   4   7
BRANCH   1  21
ATOM     21  C   UNL     1      31.161  -8.009 -22.993  0.00  0.00    +0.047 C 
BRANCH  21  26
ATOM     22  S   UNL     1      32.922  -7.537 -20.919  0.00  0.00    -0.048 S 
ATOM     23  O   UNL     1      30.791  -5.026 -22.932  0.00  0.00    -0.274 OA
ATOM     24  O   UNL     1      32.692  -5.961 -18.826  0.00  0.00    -0.263 OA
ATOM     25  N   UNL     1      31.673  -5.311 -20.812  0.00  0.00    -0.246 N 
ATOM     26  C   UNL     1      32.149  -6.971 -22.465  0.00  0.00    +0.137 C 
ATOM     27  C   UNL     1      31.456  -5.670 -22.126  0.00  0.00    +0.239 C 
ATOM     28  C   UNL     1      32.412  -6.134 -20.004  0.00  0.00    +0.279 C 
ATOM     29  H   UNL     1      31.301  -4.470 -20.460  0.00  0.00    +0.158 HD
ENDBRANCH  21  26
ENDBRANCH   1  21
TORSDOF 5
ENDMDL
MODEL 7
REMARK VINA RESULT:     -12.5      1.555      3.227
REMARK  Name = 9889200
REMARK  5 active torsions:
REMARK  status: ('A' for Active; 'I' for Inactive)
REMARK    1  A    between atoms: C_1  and  C_21
REMARK    2  A    between atoms: C_4  and  O_7
REMARK    3  A    between atoms: O_7  and  C_8
REMARK    4  A    between atoms: C_8  and  C_12
REMARK    5  A    between atoms: C_21  and  C_26
REMARK                            x       y       z     vdW  Elec       q    Type
REMARK                         _______ _______ _______ _____ _____    ______ ____
ROOT
ATOM      1  C   UNL     1      34.458 -20.203 -20.933  0.00  0.00    -0.021 C 
ATOM      2  C   UNL     1      33.473 -20.899 -20.233  0.00  0.00    -0.001 C 
ATOM      3  C   UNL     1      35.804 -20.416 -20.641  0.00  0.00    -0.001 C 
ATOM      4  C   UNL     1      35.179 -22.013 -18.955  0.00  0.00    +0.139 C 
ATOM      5  C   UNL     1      33.835 -21.808 -19.238  0.00  0.00    +0.037 C 
ATOM      6  C   UNL     1      36.167 -21.326 -19.648  0.00  0.00    +0.037 C 
ENDROOT
BRANCH   4   7
ATOM      7  O   UNL     1      35.536 -22.910 -17.977  0.00  0.00    -0.466 OA
BRANCH   7   8
ATOM      8  C   UNL     1      35.622 -22.423 -16.655  0.00  0.00    +0.279 C 
BRANCH   8  12
ATOM      9  O   UNL     1      34.289 -24.648 -12.579  0.00  0.00    -0.274 OA
ATOM     10  N   UNL     1      34.957 -23.569 -14.546  0.00  0.00    -0.232 N 
ATOM     11  N   UNL     1      33.381 -23.214 -16.291  0.00  0.00    -0.391 NA
ATOM     12  C   UNL     1      34.578 -23.102 -15.802  0.00  0.00    +0.210 C 
ATOM     13  C   UNL     1      32.671 -24.345 -14.238  0.00  0.00    +0.151 C 
ATOM     14  C   UNL     1      32.400 -23.842 -15.513  0.00  0.00    +0.123 C 
ATOM     15  C   UNL     1      34.040 -24.209 -13.698  0.00  0.00    +0.241 C 
ATOM     16  C   UNL     1      36.329 -23.404 -14.067  0.00  0.00    +0.122 C 
ATOM     17  C   UNL     1      31.668 -24.967 -13.487  0.00  0.00    -0.010 C 
ATOM     18  C   UNL     1      31.105 -23.968 -16.029  0.00  0.00    +0.028 C 
ATOM     19  C   UNL     1      30.383 -25.085 -14.013  0.00  0.00    -0.004 C 
ATOM     20  C   UNL     1      30.101 -24.587 -15.283  0.00  0.00    +0.002 C 
ENDBRANCH   8  12
ENDBRANCH   7   8
ENDBRANCH   4   7
BRANCH   1  21
ATOM     21  C   UNL     1      34.070 -19.230 -21.995  0.00  0.00    +0.047 C 
BRANCH  21  26
ATOM     22  S   UNL     1      35.103 -16.679 -21.776  0.00  0.00    -0.048 S 
ATOM     23  O   UNL     1      35.328 -19.158 -24.725  0.00  0.00    -0.274 OA
ATOM     24  O   UNL     1      35.125 -14.705 -23.513  0.00  0.00    -0.263 OA
ATOM     25  N   UNL     1      35.248 -16.883 -24.318  0.00  0.00    -0.246 N 
ATOM     26  C   UNL     1      35.246 -18.365 -22.443  0.00  0.00    +0.137 C 
ATOM     27  C   UNL     1      35.278 -18.211 -23.947  0.00  0.00    +0.239 C 
ATOM     28  C   UNL     1      35.163 -15.916 -23.350  0.00  0.00    +0.279 C 
ATOM     29  H   UNL     1      35.290 -16.632 -25.269  0.00  0.00    +0.158 HD
ENDBRANCH  21  26
ENDBRANCH   1  21
TORSDOF 5
ENDMDL
MODEL 8
REMARK VINA RESULT:     -12.4      2.952     10.395
REMARK  Name = 9889200
REMARK  5 active torsions:
REMARK  status: ('A' for Active; 'I' for Inactive)
REMARK    1  A    between atoms: C_1  and  C_21
REMARK    2  A    between atoms: C_4  and  O_7
REMARK    3  A    between atoms: O_7  and  C_8
REMARK    4  A    between atoms: C_8  and  C_12
REMARK    5  A    between atoms: C_21  and  C_26
REMARK                            x       y       z     vdW  Elec       q    Type
REMARK                         _______ _______ _______ _____ _____    ______ ____
ROOT
ATOM      1  C   UNL     1      34.873 -21.891 -19.101  0.00  0.00    -0.021 C 
ATOM      2  C   UNL     1      36.017 -21.379 -19.713  0.00  0.00    -0.001 C 
ATOM      3  C   UNL     1      33.611 -21.453 -19.502  0.00  0.00    -0.001 C 
ATOM      4  C   UNL     1      34.638 -19.997 -21.117  0.00  0.00    +0.139 C 
ATOM      5  C   UNL     1      35.899 -20.426 -20.726  0.00  0.00    +0.037 C 
ATOM      6  C   UNL     1      33.493 -20.502 -20.515  0.00  0.00    +0.037 C 
ENDROOT
BRANCH   4   7
ATOM      7  O   UNL     1      34.521 -19.060 -22.116  0.00  0.00    -0.466 OA
BRANCH   7   8
ATOM      8  C   UNL     1      35.431 -17.982 -22.099  0.00  0.00    +0.279 C 
BRANCH   8  12
ATOM      9  O   UNL     1      33.800 -14.731 -25.280  0.00  0.00    -0.274 OA
ATOM     10  N   UNL     1      34.600 -16.318 -23.756  0.00  0.00    -0.232 N 
ATOM     11  N   UNL     1      34.195 -16.031 -21.430  0.00  0.00    -0.391 NA
ATOM     12  C   UNL     1      34.696 -16.702 -22.421  0.00  0.00    +0.210 C 
ATOM     13  C   UNL     1      33.354 -14.363 -23.015  0.00  0.00    +0.151 C 
ATOM     14  C   UNL     1      33.511 -14.841 -21.711  0.00  0.00    +0.123 C 
ATOM     15  C   UNL     1      33.932 -15.142 -24.131  0.00  0.00    +0.241 C 
ATOM     16  C   UNL     1      35.194 -17.132 -24.816  0.00  0.00    +0.122 C 
ATOM     17  C   UNL     1      32.665 -13.171 -23.261  0.00  0.00    -0.010 C 
ATOM     18  C   UNL     1      32.966 -14.107 -20.652  0.00  0.00    +0.028 C 
ATOM     19  C   UNL     1      32.126 -12.451 -22.196  0.00  0.00    -0.004 C 
ATOM     20  C   UNL     1      32.277 -12.918 -20.892  0.00  0.00    +0.002 C 
ENDBRANCH   8  12
ENDBRANCH   7   8
ENDBRANCH   4   7
BRANCH   1  21
ATOM     21  C   UNL     1      35.000 -22.908 -18.017  0.00  0.00    +0.047 C 
BRANCH  21  26
ATOM     22  S   UNL     1      37.268 -22.427 -16.518  0.00  0.00    -0.048 S 
ATOM     23  O   UNL     1      33.670 -23.166 -15.333  0.00  0.00    -0.274 OA
ATOM     24  O   UNL     1      38.161 -23.638 -14.361  0.00  0.00    -0.263 OA
ATOM     25  N   UNL     1      35.862 -23.489 -14.668  0.00  0.00    -0.246 N 
ATOM     26  C   UNL     1      35.463 -22.292 -16.699  0.00  0.00    +0.137 C 
ATOM     27  C   UNL     1      34.875 -23.021 -15.511  0.00  0.00    +0.239 C 
ATOM     28  C   UNL     1      37.177 -23.287 -14.995  0.00  0.00    +0.279 C 
ATOM     29  H   UNL     1      35.622 -23.962 -13.839  0.00  0.00    +0.158 HD
ENDBRANCH  21  26
ENDBRANCH   1  21
TORSDOF 5
ENDMDL
MODEL 9
REMARK VINA RESULT:     -12.3      7.703     11.939
REMARK  Name = 9889200
REMARK  5 active torsions:
REMARK  status: ('A' for Active; 'I' for Inactive)
REMARK    1  A    between atoms: C_1  and  C_21
REMARK    2  A    between atoms: C_4  and  O_7
REMARK    3  A    between atoms: O_7  and  C_8
REMARK    4  A    between atoms: C_8  and  C_12
REMARK    5  A    between atoms: C_21  and  C_26
REMARK                            x       y       z     vdW  Elec       q    Type
REMARK                         _______ _______ _______ _____ _____    ______ ____
ROOT
ATOM      1  C   UNL     1      32.286  -8.863 -22.023  0.00  0.00    -0.021 C 
ATOM      2  C   UNL     1      33.023  -9.379 -23.088  0.00  0.00    -0.001 C 
ATOM      3  C   UNL     1      31.598  -9.723 -21.169  0.00  0.00    -0.001 C 
ATOM      4  C   UNL     1      32.382 -11.605 -22.445  0.00  0.00    +0.139 C 
ATOM      5  C   UNL     1      33.071 -10.757 -23.301  0.00  0.00    +0.037 C 
ATOM      6  C   UNL     1      31.646 -11.101 -21.380  0.00  0.00    +0.037 C 
ENDROOT
BRANCH   4   7
ATOM      7  O   UNL     1      32.431 -12.963 -22.653  0.00  0.00    -0.466 OA
BRANCH   7   8
ATOM      8  C   UNL     1      32.766 -13.405 -23.950  0.00  0.00    +0.279 C 
BRANCH   8  12
ATOM      9  O   UNL     1      34.896 -17.225 -26.006  0.00  0.00    -0.274 OA
ATOM     10  N   UNL     1      33.857 -15.367 -25.031  0.00  0.00    -0.232 N 
ATOM     11  N   UNL     1      33.916 -15.085 -22.670  0.00  0.00    -0.391 NA
ATOM     12  C   UNL     1      33.558 -14.687 -23.852  0.00  0.00    +0.210 C 
ATOM     13  C   UNL     1      35.006 -17.033 -23.679  0.00  0.00    +0.151 C 
ATOM     14  C   UNL     1      34.651 -16.273 -22.561  0.00  0.00    +0.123 C 
ATOM     15  C   UNL     1      34.589 -16.564 -25.017  0.00  0.00    +0.241 C 
ATOM     16  C   UNL     1      33.415 -14.852 -26.326  0.00  0.00    +0.122 C 
ATOM     17  C   UNL     1      35.741 -18.214 -23.536  0.00  0.00    -0.010 C 
ATOM     18  C   UNL     1      35.043 -16.712 -21.292  0.00  0.00    +0.028 C 
ATOM     19  C   UNL     1      36.125 -18.640 -22.265  0.00  0.00    -0.004 C 
ATOM     20  C   UNL     1      35.777 -17.890 -21.144  0.00  0.00    +0.002 C 
ENDBRANCH   8  12
ENDBRANCH   7   8
ENDBRANCH   4   7
BRANCH   1  21
ATOM     21  C   UNL     1      32.233  -7.390 -21.797  0.00  0.00    +0.047 C 
BRANCH  21  26
ATOM     22  S   UNL     1      32.413  -6.210 -24.287  0.00  0.00    -0.048 S 
ATOM     23  O   UNL     1      30.115  -5.310 -21.320  0.00  0.00    -0.274 OA
ATOM     24  O   UNL     1      32.437  -3.668 -24.960  0.00  0.00    -0.263 OA
ATOM     25  N   UNL     1      31.197  -4.303 -23.099  0.00  0.00    -0.246 N 
ATOM     26  C   UNL     1      31.395  -6.672 -22.853  0.00  0.00    +0.137 C 
ATOM     27  C   UNL     1      30.823  -5.377 -22.319  0.00  0.00    +0.239 C 
ATOM     28  C   UNL     1      32.018  -4.508 -24.177  0.00  0.00    +0.279 C 
ATOM     29  H   UNL     1      30.875  -3.398 -22.884  0.00  0.00    +0.158 HD
ENDBRANCH  21  26
ENDBRANCH   1  21
TORSDOF 5
ENDMDL
