MODEL 1
REMARK VINA RESULT:     -13.0      0.000      0.000
REMARK  Name = 24779724
REMARK  3 active torsions:
REMARK  status: ('A' for Active; 'I' for Inactive)
REMARK    1  A    between atoms: C_5  and  C_12
REMARK    2  A    between atoms: C_7  and  S_16
REMARK    3  A    between atoms: S_16  and  C_19
REMARK                            x       y       z     vdW  Elec       q    Type
REMARK                         _______ _______ _______ _____ _____    ______ ____
ROOT
ATOM      1  N   UNL     1      34.674 -21.204 -19.513  0.00  0.00    -0.186 N 
ATOM      2  N   UNL     1      35.713 -21.520 -18.700  0.00  0.00    -0.162 NA
ATOM      3  N   UNL     1      32.667 -21.116 -20.399  0.00  0.00    -0.126 NA
ATOM      4  N   UNL     1      33.505 -20.301 -21.132  0.00  0.00    -0.120 NA
ATOM      5  C   UNL     1      35.397 -22.343 -17.740  0.00  0.00    +0.104 C 
ATOM      6  C   UNL     1      33.378 -21.653 -19.430  0.00  0.00    +0.187 A 
ATOM      7  C   UNL     1      34.700 -20.366 -20.591  0.00  0.00    +0.217 A 
ATOM      8  C   UNL     1      34.031 -22.927 -17.538  0.00  0.00    +0.024 C 
ATOM      9  C   UNL     1      33.070 -22.556 -18.393  0.00  0.00    +0.042 C 
ENDROOT
BRANCH   5  12
ATOM     10  N   UNL     1      37.500 -23.724 -15.121  0.00  0.00    -0.208 N 
ATOM     11  N   UNL     1      38.450 -22.965 -15.694  0.00  0.00    -0.176 NA
ATOM     12  C   UNL     1      36.448 -22.761 -16.777  0.00  0.00    +0.056 C 
ATOM     13  C   UNL     1      36.283 -23.637 -15.732  0.00  0.00    +0.087 C 
ATOM     14  C   UNL     1      37.802 -22.380 -16.705  0.00  0.00    +0.121 C 
ATOM     15  C   UNL     1      37.824 -24.528 -13.967  0.00  0.00    +0.140 C 
ENDBRANCH   5  12
BRANCH   7  16
ATOM     16  S   UNL     1      36.169 -19.509 -21.138  0.00  0.00    -0.051 S 
BRANCH  16  19
ATOM     17  N   UNL     1      34.106 -16.615 -25.908  0.00  0.00    -0.248 NA
ATOM     18  C   UNL     1      34.764 -16.581 -23.591  0.00  0.00    -0.003 C 
ATOM     19  C   UNL     1      35.551 -18.633 -22.561  0.00  0.00    +0.011 C 
ATOM     20  C   UNL     1      34.572 -17.251 -24.818  0.00  0.00    +0.060 C 
ATOM     21  C   UNL     1      35.252 -17.277 -22.472  0.00  0.00    +0.060 C 
ATOM     22  C   UNL     1      35.364 -19.299 -23.765  0.00  0.00    -0.017 C 
ATOM     23  C   UNL     1      34.879 -18.608 -24.878  0.00  0.00    +0.072 C 
ATOM     24  C   UNL     1      34.455 -15.216 -23.530  0.00  0.00    -0.001 C 
ATOM     25  C   UNL     1      33.975 -14.558 -24.653  0.00  0.00    +0.020 C 
ATOM     26  C   UNL     1      33.820 -15.297 -25.808  0.00  0.00    +0.098 C 
ENDBRANCH  16  19
ENDBRANCH   7  16
TORSDOF 3
ENDMDL
MODEL 2
REMARK VINA RESULT:     -12.6      1.161      1.828
REMARK  Name = 24779724
REMARK  3 active torsions:
REMARK  status: ('A' for Active; 'I' for Inactive)
REMARK    1  A    between atoms: C_5  and  C_12
REMARK    2  A    between atoms: C_7  and  S_16
REMARK    3  A    between atoms: S_16  and  C_19
REMARK                            x       y       z     vdW  Elec       q    Type
REMARK                         _______ _______ _______ _____ _____    ______ ____
ROOT
ATOM      1  N   UNL     1      34.697 -21.991 -18.724  0.00  0.00    -0.186 N 
ATOM      2  N   UNL     1      35.703 -22.372 -17.899  0.00  0.00    -0.162 NA
ATOM      3  N   UNL     1      32.699 -21.723 -19.597  0.00  0.00    -0.126 NA
ATOM      4  N   UNL     1      33.617 -21.068 -20.393  0.00  0.00    -0.120 NA
ATOM      5  C   UNL     1      35.308 -23.082 -16.880  0.00  0.00    +0.104 C 
ATOM      6  C   UNL     1      33.357 -22.273 -18.598  0.00  0.00    +0.187 A 
ATOM      7  C   UNL     1      34.805 -21.239 -19.858  0.00  0.00    +0.217 A 
ATOM      8  C   UNL     1      33.885 -23.482 -16.626  0.00  0.00    +0.024 C 
ATOM      9  C   UNL     1      32.961 -23.058 -17.497  0.00  0.00    +0.042 C 
ENDROOT
BRANCH   5  12
ATOM     10  N   UNL     1      37.336 -24.690 -14.333  0.00  0.00    -0.208 N 
ATOM     11  N   UNL     1      38.230 -23.743 -14.664  0.00  0.00    -0.176 NA
ATOM     12  C   UNL     1      36.317 -23.557 -15.899  0.00  0.00    +0.056 C 
ATOM     13  C   UNL     1      36.173 -24.622 -15.043  0.00  0.00    +0.087 C 
ATOM     14  C   UNL     1      37.603 -23.054 -15.621  0.00  0.00    +0.121 C 
ATOM     15  C   UNL     1      37.658 -25.652 -13.306  0.00  0.00    +0.140 C 
ENDBRANCH   5  12
BRANCH   7  16
ATOM     16  S   UNL     1      36.356 -20.606 -20.478  0.00  0.00    -0.051 S 
BRANCH  16  19
ATOM     17  N   UNL     1      34.527 -15.894 -23.614  0.00  0.00    -0.248 NA
ATOM     18  C   UNL     1      34.988 -18.256 -23.506  0.00  0.00    -0.003 C 
ATOM     19  C   UNL     1      35.806 -19.202 -21.425  0.00  0.00    +0.011 C 
ATOM     20  C   UNL     1      34.937 -16.973 -22.922  0.00  0.00    +0.060 C 
ATOM     21  C   UNL     1      35.421 -19.361 -22.754  0.00  0.00    +0.060 C 
ATOM     22  C   UNL     1      35.759 -17.941 -20.845  0.00  0.00    -0.017 C 
ATOM     23  C   UNL     1      35.327 -16.843 -21.592  0.00  0.00    +0.072 C 
ATOM     24  C   UNL     1      34.595 -18.388 -24.844  0.00  0.00    -0.001 C 
ATOM     25  C   UNL     1      34.171 -17.278 -25.560  0.00  0.00    +0.020 C 
ATOM     26  C   UNL     1      34.156 -16.064 -24.904  0.00  0.00    +0.098 C 
ENDBRANCH  16  19
ENDBRANCH   7  16
TORSDOF 3
ENDMDL
MODEL 3
REMARK VINA RESULT:     -12.2      5.744     11.597
REMARK  Name = 24779724
REMARK  3 active torsions:
REMARK  status: ('A' for Active; 'I' for Inactive)
REMARK    1  A    between atoms: C_5  and  C_12
REMARK    2  A    between atoms: C_7  and  S_16
REMARK    3  A    between atoms: S_16  and  C_19
REMARK                            x       y       z     vdW  Elec       q    Type
REMARK                         _______ _______ _______ _____ _____    ______ ____
ROOT
ATOM      1  N   UNL     1      32.569 -11.644 -22.559  0.00  0.00    -0.186 N 
ATOM      2  N   UNL     1      32.740 -10.449 -23.177  0.00  0.00    -0.162 NA
ATOM      3  N   UNL     1      31.993 -13.173 -21.091  0.00  0.00    -0.126 NA
ATOM      4  N   UNL     1      32.620 -13.797 -22.151  0.00  0.00    -0.120 NA
ATOM      5  C   UNL     1      32.259  -9.438 -22.510  0.00  0.00    +0.104 C 
ATOM      6  C   UNL     1      31.967 -11.882 -21.346  0.00  0.00    +0.187 A 
ATOM      7  C   UNL     1      32.959 -12.869 -23.018  0.00  0.00    +0.217 A 
ATOM      8  C   UNL     1      31.595  -9.545 -21.170  0.00  0.00    +0.024 C 
ATOM      9  C   UNL     1      31.473 -10.768 -20.639  0.00  0.00    +0.042 C 
ENDROOT
BRANCH   5  12
ATOM     10  N   UNL     1      31.912  -6.088 -23.869  0.00  0.00    -0.208 N 
ATOM     11  N   UNL     1      33.251  -6.150 -23.957  0.00  0.00    -0.176 NA
ATOM     12  C   UNL     1      32.380  -8.074 -23.085  0.00  0.00    +0.056 C 
ATOM     13  C   UNL     1      31.341  -7.216 -23.353  0.00  0.00    +0.087 C 
ATOM     14  C   UNL     1      33.532  -7.364 -23.476  0.00  0.00    +0.121 C 
ATOM     15  C   UNL     1      31.218  -4.899 -24.303  0.00  0.00    +0.140 C 
ENDBRANCH   5  12
BRANCH   7  16
ATOM     16  S   UNL     1      33.799 -13.118 -24.574  0.00  0.00    -0.051 S 
BRANCH  16  19
ATOM     17  N   UNL     1      34.719 -18.995 -24.503  0.00  0.00    -0.248 NA
ATOM     18  C   UNL     1      34.938 -16.851 -23.423  0.00  0.00    -0.003 C 
ATOM     19  C   UNL     1      34.079 -14.876 -24.542  0.00  0.00    +0.011 C 
ATOM     20  C   UNL     1      34.520 -17.663 -24.499  0.00  0.00    +0.060 C 
ATOM     21  C   UNL     1      34.715 -15.465 -23.453  0.00  0.00    +0.060 C 
ATOM     22  C   UNL     1      33.665 -15.670 -25.605  0.00  0.00    -0.017 C 
ATOM     23  C   UNL     1      33.887 -17.048 -25.576  0.00  0.00    +0.072 C 
ATOM     24  C   UNL     1      35.575 -17.470 -22.340  0.00  0.00    -0.001 C 
ATOM     25  C   UNL     1      35.781 -18.842 -22.341  0.00  0.00    +0.020 C 
ATOM     26  C   UNL     1      35.338 -19.552 -23.438  0.00  0.00    +0.098 C 
ENDBRANCH  16  19
ENDBRANCH   7  16
TORSDOF 3
ENDMDL
MODEL 4
REMARK VINA RESULT:     -12.0      2.687      9.300
REMARK  Name = 24779724
REMARK  3 active torsions:
REMARK  status: ('A' for Active; 'I' for Inactive)
REMARK    1  A    between atoms: C_5  and  C_12
REMARK    2  A    between atoms: C_7  and  S_16
REMARK    3  A    between atoms: S_16  and  C_19
REMARK                            x       y       z     vdW  Elec       q    Type
REMARK                         _______ _______ _______ _____ _____    ______ ____
ROOT
ATOM      1  N   UNL     1      34.699 -16.709 -24.106  0.00  0.00    -0.186 N 
ATOM      2  N   UNL     1      34.527 -15.460 -23.607  0.00  0.00    -0.162 NA
ATOM      3  N   UNL     1      34.545 -18.486 -25.387  0.00  0.00    -0.126 NA
ATOM      4  N   UNL     1      35.407 -18.769 -24.348  0.00  0.00    -0.120 NA
ATOM      5  C   UNL     1      33.719 -14.718 -24.312  0.00  0.00    +0.104 C 
ATOM      6  C   UNL     1      34.126 -17.248 -25.234  0.00  0.00    +0.187 A 
ATOM      7  C   UNL     1      35.487 -17.698 -23.591  0.00  0.00    +0.217 A 
ATOM      8  C   UNL     1      33.010 -15.177 -25.550  0.00  0.00    +0.024 C 
ATOM      9  C   UNL     1      33.244 -16.429 -25.966  0.00  0.00    +0.042 C 
ENDROOT
BRANCH   5  12
ATOM     10  N   UNL     1      32.627 -11.581 -22.845  0.00  0.00    -0.208 N 
ATOM     11  N   UNL     1      33.549 -11.052 -23.668  0.00  0.00    -0.176 NA
ATOM     12  C   UNL     1      33.452 -13.325 -23.871  0.00  0.00    +0.056 C 
ATOM     13  C   UNL     1      32.530 -12.939 -22.929  0.00  0.00    +0.087 C 
ATOM     14  C   UNL     1      34.050 -12.122 -24.291  0.00  0.00    +0.121 C 
ATOM     15  C   UNL     1      31.854 -10.718 -21.985  0.00  0.00    +0.140 C 
ENDBRANCH   5  12
BRANCH   7  16
ATOM     16  S   UNL     1      36.462 -17.509 -22.107  0.00  0.00    -0.051 S 
BRANCH  16  19
ATOM     17  N   UNL     1      35.085 -22.476 -19.137  0.00  0.00    -0.248 NA
ATOM     18  C   UNL     1      34.366 -20.491 -20.299  0.00  0.00    -0.003 C 
ATOM     19  C   UNL     1      36.039 -18.994 -21.220  0.00  0.00    +0.011 C 
ATOM     20  C   UNL     1      35.375 -21.348 -19.812  0.00  0.00    +0.060 C 
ATOM     21  C   UNL     1      34.705 -19.321 -20.999  0.00  0.00    +0.060 C 
ATOM     22  C   UNL     1      37.038 -19.833 -20.743  0.00  0.00    -0.017 C 
ATOM     23  C   UNL     1      36.702 -20.996 -20.047  0.00  0.00    +0.072 C 
ATOM     24  C   UNL     1      33.031 -20.845 -20.062  0.00  0.00    -0.001 C 
ATOM     25  C   UNL     1      32.728 -22.007 -19.367  0.00  0.00    +0.020 C 
ATOM     26  C   UNL     1      33.784 -22.781 -18.930  0.00  0.00    +0.098 C 
ENDBRANCH  16  19
ENDBRANCH   7  16
TORSDOF 3
ENDMDL
MODEL 5
REMARK VINA RESULT:     -11.9      5.939     12.013
REMARK  Name = 24779724
REMARK  3 active torsions:
REMARK  status: ('A' for Active; 'I' for Inactive)
REMARK    1  A    between atoms: C_5  and  C_12
REMARK    2  A    between atoms: C_7  and  S_16
REMARK    3  A    between atoms: S_16  and  C_19
REMARK                            x       y       z     vdW  Elec       q    Type
REMARK                         _______ _______ _______ _____ _____    ______ ____
ROOT
ATOM      1  N   UNL     1      32.651 -11.067 -22.688  0.00  0.00    -0.186 N 
ATOM      2  N   UNL     1      33.099 -10.020 -23.424  0.00  0.00    -0.162 NA
ATOM      3  N   UNL     1      31.676 -12.250 -21.115  0.00  0.00    -0.126 NA
ATOM      4  N   UNL     1      32.251 -13.117 -22.022  0.00  0.00    -0.120 NA
ATOM      5  C   UNL     1      32.773  -8.857 -22.935  0.00  0.00    +0.104 C 
ATOM      6  C   UNL     1      31.922 -11.023 -21.523  0.00  0.00    +0.187 A 
ATOM      7  C   UNL     1      32.830 -12.394 -22.954  0.00  0.00    +0.217 A 
ATOM      8  C   UNL     1      31.998  -8.656 -21.667  0.00  0.00    +0.024 C 
ATOM      9  C   UNL     1      31.599  -9.752 -21.009  0.00  0.00    +0.042 C 
ENDROOT
BRANCH   5  12
ATOM     10  N   UNL     1      33.191  -5.708 -24.696  0.00  0.00    -0.208 N 
ATOM     11  N   UNL     1      34.492  -6.045 -24.675  0.00  0.00    -0.176 NA
ATOM     12  C   UNL     1      33.200  -7.629 -23.654  0.00  0.00    +0.056 C 
ATOM     13  C   UNL     1      32.376  -6.624 -24.098  0.00  0.00    +0.087 C 
ATOM     14  C   UNL     1      34.492  -7.218 -24.037  0.00  0.00    +0.121 C 
ATOM     15  C   UNL     1      32.780  -4.472 -25.316  0.00  0.00    +0.140 C 
ENDBRANCH   5  12
BRANCH   7  16
ATOM     16  S   UNL     1      33.725 -13.003 -24.375  0.00  0.00    -0.051 S 
BRANCH  16  19
ATOM     17  N   UNL     1      35.345 -18.401 -22.470  0.00  0.00    -0.248 NA
ATOM     18  C   UNL     1      34.489 -16.998 -24.232  0.00  0.00    -0.003 C 
ATOM     19  C   UNL     1      34.208 -14.623 -23.815  0.00  0.00    +0.011 C 
ATOM     20  C   UNL     1      34.974 -17.188 -22.921  0.00  0.00    +0.060 C 
ATOM     21  C   UNL     1      34.110 -15.718 -24.669  0.00  0.00    +0.060 C 
ATOM     22  C   UNL     1      34.684 -14.804 -22.522  0.00  0.00    -0.017 C 
ATOM     23  C   UNL     1      35.061 -16.076 -22.087  0.00  0.00    +0.072 C 
ATOM     24  C   UNL     1      34.401 -18.117 -25.071  0.00  0.00    -0.001 C 
ATOM     25  C   UNL     1      34.783 -19.368 -24.610  0.00  0.00    +0.020 C 
ATOM     26  C   UNL     1      35.245 -19.455 -23.312  0.00  0.00    +0.098 C 
ENDBRANCH  16  19
ENDBRANCH   7  16
TORSDOF 3
ENDMDL
MODEL 6
REMARK VINA RESULT:     -11.6      3.206      4.644
REMARK  Name = 24779724
REMARK  3 active torsions:
REMARK  status: ('A' for Active; 'I' for Inactive)
REMARK    1  A    between atoms: C_5  and  C_12
REMARK    2  A    between atoms: C_7  and  S_16
REMARK    3  A    between atoms: S_16  and  C_19
REMARK                            x       y       z     vdW  Elec       q    Type
REMARK                         _______ _______ _______ _____ _____    ______ ____
ROOT
ATOM      1  N   UNL     1      33.896 -23.835 -16.311  0.00  0.00    -0.186 N 
ATOM      2  N   UNL     1      35.068 -24.516 -16.255  0.00  0.00    -0.162 NA
ATOM      3  N   UNL     1      32.086 -22.739 -15.722  0.00  0.00    -0.126 NA
ATOM      4  N   UNL     1      32.113 -22.833 -17.098  0.00  0.00    -0.120 NA
ATOM      5  C   UNL     1      35.512 -24.698 -15.043  0.00  0.00    +0.104 C 
ATOM      6  C   UNL     1      33.160 -23.344 -15.259  0.00  0.00    +0.187 A 
ATOM      7  C   UNL     1      33.200 -23.492 -17.434  0.00  0.00    +0.217 A 
ATOM      8  C   UNL     1      34.809 -24.235 -13.803  0.00  0.00    +0.024 C 
ATOM      9  C   UNL     1      33.656 -23.571 -13.960  0.00  0.00    +0.042 C 
ENDROOT
BRANCH   5  12
ATOM     10  N   UNL     1      38.892 -25.895 -14.469  0.00  0.00    -0.208 N 
ATOM     11  N   UNL     1      38.338 -27.101 -14.680  0.00  0.00    -0.176 NA
ATOM     12  C   UNL     1      36.792 -25.427 -14.848  0.00  0.00    +0.056 C 
ATOM     13  C   UNL     1      38.009 -24.859 -14.559  0.00  0.00    +0.087 C 
ATOM     14  C   UNL     1      37.055 -26.809 -14.910  0.00  0.00    +0.121 C 
ATOM     15  C   UNL     1      40.303 -25.795 -14.180  0.00  0.00    +0.140 C 
ENDBRANCH   5  12
BRANCH   7  16
ATOM     16  S   UNL     1      33.733 -23.899 -19.089  0.00  0.00    -0.051 S 
BRANCH  16  19
ATOM     17  N   UNL     1      34.817 -18.492 -21.318  0.00  0.00    -0.248 NA
ATOM     18  C   UNL     1      35.650 -20.561 -20.406  0.00  0.00    -0.003 C 
ATOM     19  C   UNL     1      34.068 -22.283 -19.756  0.00  0.00    +0.011 C 
ATOM     20  C   UNL     1      34.594 -19.719 -20.812  0.00  0.00    +0.060 C 
ATOM     21  C   UNL     1      35.380 -21.835 -19.881  0.00  0.00    +0.060 C 
ATOM     22  C   UNL     1      33.023 -21.459 -20.153  0.00  0.00    -0.017 C 
ATOM     23  C   UNL     1      33.291 -20.191 -20.675  0.00  0.00    +0.072 C 
ATOM     24  C   UNL     1      36.961 -20.085 -20.543  0.00  0.00    -0.001 C 
ATOM     25  C   UNL     1      37.195 -18.821 -21.065  0.00  0.00    +0.020 C 
ATOM     26  C   UNL     1      36.097 -18.071 -21.434  0.00  0.00    +0.098 C 
ENDBRANCH  16  19
ENDBRANCH   7  16
TORSDOF 3
ENDMDL
MODEL 7
REMARK VINA RESULT:     -11.6      4.646      7.753
REMARK  Name = 24779724
REMARK  3 active torsions:
REMARK  status: ('A' for Active; 'I' for Inactive)
REMARK    1  A    between atoms: C_5  and  C_12
REMARK    2  A    between atoms: C_7  and  S_16
REMARK    3  A    between atoms: S_16  and  C_19
REMARK                            x       y       z     vdW  Elec       q    Type
REMARK                         _______ _______ _______ _____ _____    ______ ____
ROOT
ATOM      1  N   UNL     1      33.834 -15.260 -22.945  0.00  0.00    -0.186 N 
ATOM      2  N   UNL     1      34.255 -16.221 -22.086  0.00  0.00    -0.162 NA
ATOM      3  N   UNL     1      33.500 -14.098 -24.779  0.00  0.00    -0.126 NA
ATOM      4  N   UNL     1      32.857 -13.465 -23.735  0.00  0.00    -0.120 NA
ATOM      5  C   UNL     1      34.971 -17.153 -22.649  0.00  0.00    +0.104 C 
ATOM      6  C   UNL     1      34.084 -15.175 -24.295  0.00  0.00    +0.187 A 
ATOM      7  C   UNL     1      33.068 -14.171 -22.647  0.00  0.00    +0.217 A 
ATOM      8  C   UNL     1      35.337 -17.180 -24.102  0.00  0.00    +0.024 C 
ATOM      9  C   UNL     1      34.875 -16.187 -24.872  0.00  0.00    +0.042 C 
ENDROOT
BRANCH   5  12
ATOM     10  N   UNL     1      35.629 -20.099 -20.630  0.00  0.00    -0.208 N 
ATOM     11  N   UNL     1      36.880 -19.608 -20.595  0.00  0.00    -0.176 NA
ATOM     12  C   UNL     1      35.487 -18.268 -21.813  0.00  0.00    +0.056 C 
ATOM     13  C   UNL     1      34.757 -19.333 -21.347  0.00  0.00    +0.087 C 
ATOM     14  C   UNL     1      36.787 -18.490 -21.319  0.00  0.00    +0.121 C 
ATOM     15  C   UNL     1      35.323 -21.332 -19.945  0.00  0.00    +0.140 C 
ENDBRANCH   5  12
BRANCH   7  16
ATOM     16  S   UNL     1      32.465 -13.808 -21.006  0.00  0.00    -0.051 S 
BRANCH  16  19
ATOM     17  N   UNL     1      31.776  -7.904 -21.257  0.00  0.00    -0.248 NA
ATOM     18  C   UNL     1      32.122  -9.999 -22.397  0.00  0.00    -0.003 C 
ATOM     19  C   UNL     1      32.259 -12.041 -21.092  0.00  0.00    +0.011 C 
ATOM     20  C   UNL     1      31.933  -9.241 -21.223  0.00  0.00    +0.060 C 
ATOM     21  C   UNL     1      32.283 -11.393 -22.324  0.00  0.00    +0.060 C 
ATOM     22  C   UNL     1      32.074 -11.300 -19.932  0.00  0.00    -0.017 C 
ATOM     23  C   UNL     1      31.914  -9.915 -20.004  0.00  0.00    +0.072 C 
ATOM     24  C   UNL     1      32.142  -9.321 -23.623  0.00  0.00    -0.001 C 
ATOM     25  C   UNL     1      31.980  -7.944 -23.663  0.00  0.00    +0.020 C 
ATOM     26  C   UNL     1      31.802  -7.288 -22.461  0.00  0.00    +0.098 C 
ENDBRANCH  16  19
ENDBRANCH   7  16
TORSDOF 3
ENDMDL
MODEL 8
REMARK VINA RESULT:     -11.5      3.773      6.534
REMARK  Name = 24779724
REMARK  3 active torsions:
REMARK  status: ('A' for Active; 'I' for Inactive)
REMARK    1  A    between atoms: C_5  and  C_12
REMARK    2  A    between atoms: C_7  and  S_16
REMARK    3  A    between atoms: S_16  and  C_19
REMARK                            x       y       z     vdW  Elec       q    Type
REMARK                         _______ _______ _______ _____ _____    ______ ____
ROOT
ATOM      1  N   UNL     1      32.969 -23.355 -16.479  0.00  0.00    -0.186 N 
ATOM      2  N   UNL     1      31.679 -23.331 -16.895  0.00  0.00    -0.162 NA
ATOM      3  N   UNL     1      34.756 -23.252 -15.205  0.00  0.00    -0.126 NA
ATOM      4  N   UNL     1      35.153 -23.545 -16.494  0.00  0.00    -0.120 NA
ATOM      5  C   UNL     1      30.824 -23.077 -15.945  0.00  0.00    +0.104 C 
ATOM      6  C   UNL     1      33.444 -23.141 -15.206  0.00  0.00    +0.187 A 
ATOM      7  C   UNL     1      34.074 -23.601 -17.242  0.00  0.00    +0.217 A 
ATOM      8  C   UNL     1      31.198 -22.806 -14.518  0.00  0.00    +0.024 C 
ATOM      9  C   UNL     1      32.499 -22.850 -14.203  0.00  0.00    +0.042 C 
ENDROOT
BRANCH   5  12
ATOM     10  N   UNL     1      27.251 -22.522 -16.276  0.00  0.00    -0.208 N 
ATOM     11  N   UNL     1      27.353 -23.441 -17.252  0.00  0.00    -0.176 NA
ATOM     12  C   UNL     1      29.376 -23.029 -16.273  0.00  0.00    +0.056 C 
ATOM     13  C   UNL     1      28.435 -22.240 -15.658  0.00  0.00    +0.087 C 
ATOM     14  C   UNL     1      28.653 -23.746 -17.246  0.00  0.00    +0.121 C 
ATOM     15  C   UNL     1      25.967 -21.937 -15.974  0.00  0.00    +0.140 C 
ENDBRANCH   5  12
BRANCH   7  16
ATOM     16  S   UNL     1      34.006 -23.945 -18.993  0.00  0.00    -0.051 S 
BRANCH  16  19
ATOM     17  N   UNL     1      34.813 -18.513 -21.281  0.00  0.00    -0.248 NA
ATOM     18  C   UNL     1      35.754 -20.554 -20.410  0.00  0.00    -0.003 C 
ATOM     19  C   UNL     1      34.259 -22.321 -19.678  0.00  0.00    +0.011 C 
ATOM     20  C   UNL     1      34.653 -19.745 -20.763  0.00  0.00    +0.060 C 
ATOM     21  C   UNL     1      35.549 -21.835 -19.871  0.00  0.00    +0.060 C 
ATOM     22  C   UNL     1      33.171 -21.529 -20.022  0.00  0.00    -0.017 C 
ATOM     23  C   UNL     1      33.374 -20.256 -20.559  0.00  0.00    +0.072 C 
ATOM     24  C   UNL     1      37.041 -20.040 -20.616  0.00  0.00    -0.001 C 
ATOM     25  C   UNL     1      37.210 -18.771 -21.150  0.00  0.00    +0.020 C 
ATOM     26  C   UNL     1      36.073 -18.055 -21.463  0.00  0.00    +0.098 C 
ENDBRANCH  16  19
ENDBRANCH   7  16
TORSDOF 3
ENDMDL
MODEL 9
REMARK VINA RESULT:     -11.4      2.293      9.332
REMARK  Name = 24779724
REMARK  3 active torsions:
REMARK  status: ('A' for Active; 'I' for Inactive)
REMARK    1  A    between atoms: C_5  and  C_12
REMARK    2  A    between atoms: C_7  and  S_16
REMARK    3  A    between atoms: S_16  and  C_19
REMARK                            x       y       z     vdW  Elec       q    Type
REMARK                         _______ _______ _______ _____ _____    ______ ____
ROOT
ATOM      1  N   UNL     1      35.473 -20.235 -20.706  0.00  0.00    -0.186 N 
ATOM      2  N   UNL     1      34.799 -19.688 -21.748  0.00  0.00    -0.162 NA
ATOM      3  N   UNL     1      37.057 -20.708 -19.260  0.00  0.00    -0.126 NA
ATOM      4  N   UNL     1      35.937 -21.449 -18.941  0.00  0.00    -0.120 NA
ATOM      5  C   UNL     1      35.498 -18.825 -22.431  0.00  0.00    +0.104 C 
ATOM      6  C   UNL     1      36.769 -19.983 -20.320  0.00  0.00    +0.187 A 
ATOM      7  C   UNL     1      35.001 -21.155 -19.815  0.00  0.00    +0.217 A 
ATOM      8  C   UNL     1      36.924 -18.466 -22.138  0.00  0.00    +0.024 C 
ATOM      9  C   UNL     1      37.505 -19.060 -21.088  0.00  0.00    +0.042 C 
ENDROOT
BRANCH   5  12
ATOM     10  N   UNL     1      34.145 -16.632 -24.990  0.00  0.00    -0.208 N 
ATOM     11  N   UNL     1      33.769 -17.787 -25.565  0.00  0.00    -0.176 NA
ATOM     12  C   UNL     1      34.868 -18.151 -23.596  0.00  0.00    +0.056 C 
ATOM     13  C   UNL     1      34.807 -16.795 -23.808  0.00  0.00    +0.087 C 
ATOM     14  C   UNL     1      34.213 -18.711 -24.710  0.00  0.00    +0.121 C 
ATOM     15  C   UNL     1      33.836 -15.377 -25.632  0.00  0.00    +0.140 C 
ENDBRANCH   5  12
BRANCH   7  16
ATOM     16  S   UNL     1      33.347 -21.827 -19.874  0.00  0.00    -0.051 S 
BRANCH  16  19
ATOM     17  N   UNL     1      32.900 -24.213 -14.443  0.00  0.00    -0.248 NA
ATOM     18  C   UNL     1      31.849 -23.128 -16.321  0.00  0.00    -0.003 C 
ATOM     19  C   UNL     1      33.202 -22.539 -18.248  0.00  0.00    +0.011 C 
ATOM     20  C   UNL     1      32.979 -23.669 -15.672  0.00  0.00    +0.060 C 
ATOM     21  C   UNL     1      31.969 -22.568 -17.604  0.00  0.00    +0.060 C 
ATOM     22  C   UNL     1      34.319 -23.070 -17.615  0.00  0.00    -0.017 C 
ATOM     23  C   UNL     1      34.200 -23.627 -16.340  0.00  0.00    +0.072 C 
ATOM     24  C   UNL     1      30.620 -23.170 -15.649  0.00  0.00    -0.001 C 
ATOM     25  C   UNL     1      30.535 -23.731 -14.383  0.00  0.00    +0.020 C 
ATOM     26  C   UNL     1      31.695 -24.234 -13.829  0.00  0.00    +0.098 C 
ENDBRANCH  16  19
ENDBRANCH   7  16
TORSDOF 3
ENDMDL
