MODEL 1
REMARK VINA RESULT:     -12.9      0.000      0.000
REMARK  Name = 24779675
REMARK  4 active torsions:
REMARK  status: ('A' for Active; 'I' for Inactive)
REMARK    1  A    between atoms: N_1  and  C_22
REMARK    2  A    between atoms: N_5  and  C_14
REMARK    3  A    between atoms: C_10  and  C_21
REMARK    4  A    between atoms: C_22  and  C_23
REMARK                            x       y       z     vdW  Elec       q    Type
REMARK                         _______ _______ _______ _____ _____    ______ ____
ROOT
ATOM      1  N   UNL     1      34.204 -22.916 -17.710  0.00  0.00    -0.259 N 
ATOM      2  N   UNL     1      32.361 -23.459 -16.449  0.00  0.00    -0.314 NA
ATOM      3  N   UNL     1      34.554 -23.965 -15.650  0.00  0.00    -0.295 NA
ATOM      4  N   UNL     1      32.731 -24.514 -14.379  0.00  0.00    -0.123 N 
ATOM      5  N   UNL     1      34.884 -25.029 -13.557  0.00  0.00    -0.274 N 
ATOM      6  N   UNL     1      32.124 -25.028 -13.294  0.00  0.00    -0.170 NA
ATOM      7  C   UNL     1      33.668 -23.450 -16.593  0.00  0.00    +0.203 C 
ATOM      8  C   UNL     1      31.874 -24.005 -15.311  0.00  0.00    +0.219 C 
ATOM      9  C   UNL     1      34.106 -24.495 -14.549  0.00  0.00    +0.279 C 
ATOM     10  C   UNL     1      30.612 -24.199 -14.797  0.00  0.00    +0.203 C 
ATOM     11  C   UNL     1      30.828 -24.832 -13.556  0.00  0.00    +0.116 C 
ATOM     12  H   UNL     1      35.183 -22.915 -17.805  0.00  0.00    +0.160 HD
ATOM     13  H   UNL     1      34.410 -25.397 -12.776  0.00  0.00    +0.156 HD
ENDROOT
BRANCH   5  14
ATOM     14  C   UNL     1      36.277 -25.106 -13.535  0.00  0.00    +0.051 C 
ATOM     15  C   UNL     1      36.943 -25.948 -14.426  0.00  0.00    +0.015 C 
ATOM     16  C   UNL     1      37.004 -24.342 -12.621  0.00  0.00    +0.015 C 
ATOM     17  C   UNL     1      38.336 -26.027 -14.404  0.00  0.00    +0.001 C 
ATOM     18  C   UNL     1      38.397 -24.420 -12.600  0.00  0.00    +0.001 C 
ATOM     19  C   UNL     1      39.063 -25.263 -13.490  0.00  0.00    +0.000 C 
ENDBRANCH   5  14
BRANCH  10  21
ATOM     20  N   UNL     1      28.375 -23.538 -15.901  0.00  0.00    -0.195 NA
ATOM     21  C   UNL     1      29.381 -23.835 -15.404  0.00  0.00    +0.087 C 
ENDBRANCH  10  21
BRANCH   1  22
ATOM     22  C   UNL     1      33.412 -22.348 -18.770  0.00  0.00    +0.099 C 
BRANCH  22  23
ATOM     23  C   UNL     1      34.331 -21.763 -19.841  0.00  0.00    +0.020 C 
ATOM     24  C   UNL     1      33.721 -20.490 -20.442  0.00  0.00    +0.002 C 
ATOM     25  C   UNL     1      35.725 -21.482 -19.266  0.00  0.00    +0.002 C 
ATOM     26  C   UNL     1      34.645 -19.856 -21.479  0.00  0.00    +0.000 C 
ATOM     27  C   UNL     1      36.646 -20.846 -20.305  0.00  0.00    +0.000 C 
ATOM     28  C   UNL     1      36.032 -19.586 -20.907  0.00  0.00    +0.000 C 
ENDBRANCH  22  23
ENDBRANCH   1  22
TORSDOF 4
ENDMDL
MODEL 2
REMARK VINA RESULT:     -11.7      1.636      5.725
REMARK  Name = 24779675
REMARK  4 active torsions:
REMARK  status: ('A' for Active; 'I' for Inactive)
REMARK    1  A    between atoms: N_1  and  C_22
REMARK    2  A    between atoms: N_5  and  C_14
REMARK    3  A    between atoms: C_10  and  C_21
REMARK    4  A    between atoms: C_22  and  C_23
REMARK                            x       y       z     vdW  Elec       q    Type
REMARK                         _______ _______ _______ _____ _____    ______ ____
ROOT
ATOM      1  N   UNL     1      33.972 -22.591 -18.931  0.00  0.00    -0.259 N 
ATOM      2  N   UNL     1      35.144 -23.233 -17.062  0.00  0.00    -0.314 NA
ATOM      3  N   UNL     1      32.757 -23.158 -17.014  0.00  0.00    -0.295 NA
ATOM      4  N   UNL     1      33.907 -23.801 -15.142  0.00  0.00    -0.123 N 
ATOM      5  N   UNL     1      31.548 -23.738 -15.059  0.00  0.00    -0.274 N 
ATOM      6  N   UNL     1      34.005 -24.213 -13.866  0.00  0.00    -0.170 NA
ATOM      7  C   UNL     1      33.988 -23.003 -17.646  0.00  0.00    +0.203 C 
ATOM      8  C   UNL     1      35.107 -23.645 -15.774  0.00  0.00    +0.219 C 
ATOM      9  C   UNL     1      32.699 -23.552 -15.775  0.00  0.00    +0.279 C 
ATOM     10  C   UNL     1      36.060 -23.983 -14.840  0.00  0.00    +0.203 C 
ATOM     11  C   UNL     1      35.324 -24.323 -13.687  0.00  0.00    +0.116 C 
ATOM     12  H   UNL     1      33.101 -22.422 -19.356  0.00  0.00    +0.160 HD
ATOM     13  H   UNL     1      31.653 -24.040 -14.128  0.00  0.00    +0.156 HD
ENDROOT
BRANCH   5  14
ATOM     14  C   UNL     1      30.241 -23.545 -15.509  0.00  0.00    +0.051 C 
ATOM     15  C   UNL     1      29.611 -24.533 -16.267  0.00  0.00    +0.015 C 
ATOM     16  C   UNL     1      29.564 -22.364 -15.202  0.00  0.00    +0.015 C 
ATOM     17  C   UNL     1      28.305 -24.340 -16.719  0.00  0.00    +0.001 C 
ATOM     18  C   UNL     1      28.258 -22.172 -15.653  0.00  0.00    +0.001 C 
ATOM     19  C   UNL     1      27.629 -23.159 -16.411  0.00  0.00    +0.000 C 
ENDBRANCH   5  14
BRANCH  10  21
ATOM     20  N   UNL     1      38.620 -23.974 -15.172  0.00  0.00    -0.195 NA
ATOM     21  C   UNL     1      37.469 -23.978 -15.023  0.00  0.00    +0.087 C 
ENDBRANCH  10  21
BRANCH   1  22
ATOM     22  C   UNL     1      35.165 -22.387 -19.709  0.00  0.00    +0.099 C 
BRANCH  22  23
ATOM     23  C   UNL     1      35.375 -20.893 -19.947  0.00  0.00    +0.020 C 
ATOM     24  C   UNL     1      36.815 -20.613 -20.397  0.00  0.00    +0.002 C 
ATOM     25  C   UNL     1      34.368 -20.361 -20.976  0.00  0.00    +0.002 C 
ATOM     26  C   UNL     1      37.036 -19.132 -20.693  0.00  0.00    +0.000 C 
ATOM     27  C   UNL     1      34.593 -18.880 -21.271  0.00  0.00    +0.000 C 
ATOM     28  C   UNL     1      36.028 -18.604 -21.710  0.00  0.00    +0.000 C 
ENDBRANCH  22  23
ENDBRANCH   1  22
TORSDOF 4
ENDMDL
MODEL 3
REMARK VINA RESULT:     -11.7      1.427      5.487
REMARK  Name = 24779675
REMARK  4 active torsions:
REMARK  status: ('A' for Active; 'I' for Inactive)
REMARK    1  A    between atoms: N_1  and  C_22
REMARK    2  A    between atoms: N_5  and  C_14
REMARK    3  A    between atoms: C_10  and  C_21
REMARK    4  A    between atoms: C_22  and  C_23
REMARK                            x       y       z     vdW  Elec       q    Type
REMARK                         _______ _______ _______ _____ _____    ______ ____
ROOT
ATOM      1  N   UNL     1      34.896 -22.383 -18.085  0.00  0.00    -0.259 N 
ATOM      2  N   UNL     1      36.041 -23.378 -16.358  0.00  0.00    -0.314 NA
ATOM      3  N   UNL     1      33.653 -23.320 -16.339  0.00  0.00    -0.295 NA
ATOM      4  N   UNL     1      34.776 -24.316 -14.610  0.00  0.00    -0.123 N 
ATOM      5  N   UNL     1      32.415 -24.278 -14.559  0.00  0.00    -0.274 N 
ATOM      6  N   UNL     1      34.854 -24.971 -13.439  0.00  0.00    -0.170 NA
ATOM      7  C   UNL     1      34.894 -23.040 -16.906  0.00  0.00    +0.203 C 
ATOM      8  C   UNL     1      35.985 -24.035 -15.177  0.00  0.00    +0.219 C 
ATOM      9  C   UNL     1      33.577 -23.951 -15.203  0.00  0.00    +0.279 C 
ATOM     10  C   UNL     1      36.925 -24.547 -14.312  0.00  0.00    +0.203 C 
ATOM     11  C   UNL     1      36.172 -25.110 -13.262  0.00  0.00    +0.116 C 
ATOM     12  H   UNL     1      34.032 -22.137 -18.484  0.00  0.00    +0.160 HD
ATOM     13  H   UNL     1      32.506 -24.757 -13.704  0.00  0.00    +0.156 HD
ENDROOT
BRANCH   5  14
ATOM     14  C   UNL     1      31.115 -24.004 -14.985  0.00  0.00    +0.051 C 
ATOM     15  C   UNL     1      30.285 -25.043 -15.408  0.00  0.00    +0.015 C 
ATOM     16  C   UNL     1      30.644 -22.690 -14.990  0.00  0.00    +0.015 C 
ATOM     17  C   UNL     1      28.986 -24.770 -15.836  0.00  0.00    +0.001 C 
ATOM     18  C   UNL     1      29.344 -22.418 -15.417  0.00  0.00    +0.001 C 
ATOM     19  C   UNL     1      28.516 -23.457 -15.840  0.00  0.00    +0.000 C 
ENDBRANCH   5  14
BRANCH  10  21
ATOM     20  N   UNL     1      39.489 -24.465 -14.592  0.00  0.00    -0.195 NA
ATOM     21  C   UNL     1      38.336 -24.502 -14.465  0.00  0.00    +0.087 C 
ENDBRANCH  10  21
BRANCH   1  22
ATOM     22  C   UNL     1      36.102 -22.026 -18.786  0.00  0.00    +0.099 C 
BRANCH  22  23
ATOM     23  C   UNL     1      35.748 -21.266 -20.063  0.00  0.00    +0.020 C 
ATOM     24  C   UNL     1      34.284 -20.806 -20.030  0.00  0.00    +0.002 C 
ATOM     25  C   UNL     1      36.691 -20.072 -20.262  0.00  0.00    +0.002 C 
ATOM     26  C   UNL     1      33.919 -19.996 -21.273  0.00  0.00    +0.000 C 
ATOM     27  C   UNL     1      36.322 -19.263 -21.504  0.00  0.00    +0.000 C 
ATOM     28  C   UNL     1      34.864 -18.816 -21.473  0.00  0.00    +0.000 C 
ENDBRANCH  22  23
ENDBRANCH   1  22
TORSDOF 4
ENDMDL
MODEL 4
REMARK VINA RESULT:     -11.4      1.689      7.095
REMARK  Name = 24779675
REMARK  4 active torsions:
REMARK  status: ('A' for Active; 'I' for Inactive)
REMARK    1  A    between atoms: N_1  and  C_22
REMARK    2  A    between atoms: N_5  and  C_14
REMARK    3  A    between atoms: C_10  and  C_21
REMARK    4  A    between atoms: C_22  and  C_23
REMARK                            x       y       z     vdW  Elec       q    Type
REMARK                         _______ _______ _______ _____ _____    ______ ____
ROOT
ATOM      1  N   UNL     1      33.017 -23.157 -15.067  0.00  0.00    -0.259 N 
ATOM      2  N   UNL     1      35.053 -23.956 -14.364  0.00  0.00    -0.314 NA
ATOM      3  N   UNL     1      34.884 -22.738 -16.412  0.00  0.00    -0.295 NA
ATOM      4  N   UNL     1      36.922 -23.525 -15.728  0.00  0.00    -0.123 N 
ATOM      5  N   UNL     1      36.791 -22.325 -17.758  0.00  0.00    -0.274 N 
ATOM      6  N   UNL     1      38.248 -23.710 -15.849  0.00  0.00    -0.170 NA
ATOM      7  C   UNL     1      34.345 -23.302 -15.258  0.00  0.00    +0.203 C 
ATOM      8  C   UNL     1      36.380 -24.072 -14.601  0.00  0.00    +0.219 C 
ATOM      9  C   UNL     1      36.157 -22.840 -16.659  0.00  0.00    +0.279 C 
ATOM     10  C   UNL     1      37.432 -24.658 -13.935  0.00  0.00    +0.203 C 
ATOM     11  C   UNL     1      38.555 -24.403 -14.748  0.00  0.00    +0.116 C 
ATOM     12  H   UNL     1      32.498 -22.665 -15.743  0.00  0.00    +0.160 HD
ATOM     13  H   UNL     1      37.762 -22.478 -17.817  0.00  0.00    +0.156 HD
ENDROOT
BRANCH   5  14
ATOM     14  C   UNL     1      36.207 -21.607 -18.802  0.00  0.00    +0.051 C 
ATOM     15  C   UNL     1      36.974 -20.710 -19.547  0.00  0.00    +0.015 C 
ATOM     16  C   UNL     1      34.856 -21.786 -19.102  0.00  0.00    +0.015 C 
ATOM     17  C   UNL     1      36.390 -19.992 -20.590  0.00  0.00    +0.001 C 
ATOM     18  C   UNL     1      34.273 -21.067 -20.146  0.00  0.00    +0.001 C 
ATOM     19  C   UNL     1      35.039 -20.170 -20.890  0.00  0.00    +0.000 C 
ENDBRANCH   5  14
BRANCH  10  21
ATOM     20  N   UNL     1      37.322 -25.934 -11.694  0.00  0.00    -0.195 NA
ATOM     21  C   UNL     1      37.372 -25.360 -12.701  0.00  0.00    +0.087 C 
ENDBRANCH  10  21
BRANCH   1  22
ATOM     22  C   UNL     1      32.323 -23.686 -13.922  0.00  0.00    +0.099 C 
BRANCH  22  23
ATOM     23  C   UNL     1      30.828 -23.775 -14.223  0.00  0.00    +0.020 C 
ATOM     24  C   UNL     1      30.436 -22.777 -15.322  0.00  0.00    +0.002 C 
ATOM     25  C   UNL     1      30.438 -25.205 -14.620  0.00  0.00    +0.002 C 
ATOM     26  C   UNL     1      28.955 -22.883 -15.679  0.00  0.00    +0.000 C 
ATOM     27  C   UNL     1      28.957 -25.307 -14.979  0.00  0.00    +0.000 C 
ATOM     28  C   UNL     1      28.570 -24.308 -16.064  0.00  0.00    +0.000 C 
ENDBRANCH  22  23
ENDBRANCH   1  22
TORSDOF 4
ENDMDL
MODEL 5
REMARK VINA RESULT:     -10.4      5.657      9.574
REMARK  Name = 24779675
REMARK  4 active torsions:
REMARK  status: ('A' for Active; 'I' for Inactive)
REMARK    1  A    between atoms: N_1  and  C_22
REMARK    2  A    between atoms: N_5  and  C_14
REMARK    3  A    between atoms: C_10  and  C_21
REMARK    4  A    between atoms: C_22  and  C_23
REMARK                            x       y       z     vdW  Elec       q    Type
REMARK                         _______ _______ _______ _____ _____    ______ ____
ROOT
ATOM      1  N   UNL     1      35.070 -15.925 -20.324  0.00  0.00    -0.259 N 
ATOM      2  N   UNL     1      34.795 -16.424 -22.550  0.00  0.00    -0.314 NA
ATOM      3  N   UNL     1      35.032 -18.179 -20.947  0.00  0.00    -0.295 NA
ATOM      4  N   UNL     1      34.758 -18.697 -23.160  0.00  0.00    -0.123 N 
ATOM      5  N   UNL     1      34.989 -20.457 -21.603  0.00  0.00    -0.274 N 
ATOM      6  N   UNL     1      34.641 -19.544 -24.197  0.00  0.00    -0.170 NA
ATOM      7  C   UNL     1      34.960 -16.837 -21.313  0.00  0.00    +0.203 C 
ATOM      8  C   UNL     1      34.690 -17.378 -23.504  0.00  0.00    +0.219 C 
ATOM      9  C   UNL     1      34.933 -19.112 -21.850  0.00  0.00    +0.279 C 
ATOM     10  C   UNL     1      34.513 -17.363 -24.869  0.00  0.00    +0.203 C 
ATOM     11  C   UNL     1      34.491 -18.722 -25.240  0.00  0.00    +0.116 C 
ATOM     12  H   UNL     1      35.193 -16.247 -19.403  0.00  0.00    +0.160 HD
ATOM     13  H   UNL     1      34.900 -21.051 -22.383  0.00  0.00    +0.156 HD
ENDROOT
BRANCH   5  14
ATOM     14  C   UNL     1      35.157 -21.075 -20.363  0.00  0.00    +0.051 C 
ATOM     15  C   UNL     1      36.418 -21.111 -19.767  0.00  0.00    +0.015 C 
ATOM     16  C   UNL     1      34.065 -21.657 -19.719  0.00  0.00    +0.015 C 
ATOM     17  C   UNL     1      36.588 -21.730 -18.528  0.00  0.00    +0.001 C 
ATOM     18  C   UNL     1      34.234 -22.275 -18.480  0.00  0.00    +0.001 C 
ATOM     19  C   UNL     1      35.495 -22.312 -17.885  0.00  0.00    +0.000 C 
ENDBRANCH   5  14
BRANCH  10  21
ATOM     20  N   UNL     1      34.281 -15.279 -26.375  0.00  0.00    -0.195 NA
ATOM     21  C   UNL     1      34.386 -16.215 -25.698  0.00  0.00    +0.087 C 
ENDBRANCH  10  21
BRANCH   1  22
ATOM     22  C   UNL     1      35.015 -14.505 -20.553  0.00  0.00    +0.099 C 
BRANCH  22  23
ATOM     23  C   UNL     1      33.723 -14.151 -21.286  0.00  0.00    +0.020 C 
ATOM     24  C   UNL     1      32.943 -13.074 -20.520  0.00  0.00    +0.002 C 
ATOM     25  C   UNL     1      34.021 -13.693 -22.720  0.00  0.00    +0.002 C 
ATOM     26  C   UNL     1      31.671 -12.664 -21.260  0.00  0.00    +0.000 C 
ATOM     27  C   UNL     1      32.748 -13.282 -23.457  0.00  0.00    +0.000 C 
ATOM     28  C   UNL     1      31.970 -12.218 -22.688  0.00  0.00    +0.000 C 
ENDBRANCH  22  23
ENDBRANCH   1  22
TORSDOF 4
ENDMDL
