MODEL 1
REMARK VINA RESULT:     -14.2      0.000      0.000
REMARK  Name = 66599893
REMARK  9 active torsions:
REMARK  status: ('A' for Active; 'I' for Inactive)
REMARK    1  A    between atoms: C_1  and  C_2
REMARK    2  A    between atoms: C_1  and  C_22
REMARK    3  A    between atoms: C_1  and  C_34
REMARK    4  A    between atoms: C_5  and  C_8
REMARK    5  A    between atoms: C_8  and  O_9
REMARK    6  A    between atoms: O_9  and  C_11
REMARK    7  A    between atoms: C_11  and  C_12
REMARK    8  A    between atoms: N_21  and  C_25
REMARK    9  A    between atoms: C_34  and  N_35
REMARK                            x       y       z     vdW  Elec       q    Type
REMARK                         _______ _______ _______ _____ _____    ______ ____
ROOT
ATOM      1  C   UNL     1      34.075 -15.530 -23.398  0.00  0.00    +0.077 C 
ENDROOT
BRANCH   1   2
ATOM      2  C   UNL     1      33.460 -14.226 -22.914  0.00  0.00    -0.016 C 
ATOM      3  C   UNL     1      32.714 -14.202 -21.735  0.00  0.00    -0.004 C 
ATOM      4  C   UNL     1      33.643 -13.053 -23.647  0.00  0.00    -0.004 C 
ATOM      5  C   UNL     1      32.332 -11.835 -22.025  0.00  0.00    +0.021 C 
ATOM      6  C   UNL     1      32.149 -13.006 -21.292  0.00  0.00    -0.001 C 
ATOM      7  C   UNL     1      33.078 -11.858 -23.203  0.00  0.00    -0.001 C 
BRANCH   5   8
ATOM      8  C   UNL     1      31.729 -10.555 -21.550  0.00  0.00    +0.235 C 
BRANCH   8   9
ATOM      9  O   UNL     1      32.032  -9.518 -22.475  0.00  0.00    -0.440 OA
BRANCH   9  11
ATOM     10  O   UNL     1      32.682  -8.103 -20.780  0.00  0.00    -0.245 OA
ATOM     11  C   UNL     1      32.648  -8.420 -21.959  0.00  0.00    +0.341 C 
BRANCH  11  12
ATOM     12  C   UNL     1      33.294  -7.625 -23.035  0.00  0.00    +0.072 C 
ATOM     13  C   UNL     1      32.607  -6.601 -23.685  0.00  0.00    -0.016 C 
ATOM     14  C   UNL     1      34.552  -6.164 -25.051  0.00  0.00    -0.022 C 
ATOM     15  C   UNL     1      33.236  -5.870 -24.693  0.00  0.00    -0.008 C 
ATOM     16  C   UNL     1      34.610  -7.920 -23.392  0.00  0.00    +0.006 C 
ATOM     17  C   UNL     1      35.239  -7.189 -24.400  0.00  0.00    -0.004 C 
ATOM     18  C   UNL     1      31.197  -6.265 -23.322  0.00  0.00    +0.031 C 
ATOM     19  C   UNL     1      35.225  -5.384 -26.129  0.00  0.00    +0.031 C 
ENDBRANCH  11  12
ENDBRANCH   9  11
ENDBRANCH   8   9
ENDBRANCH   5   8
ENDBRANCH   1   2
BRANCH   1  22
ATOM     20  O   UNL     1      34.993 -15.794 -21.177  0.00  0.00    -0.275 OA
ATOM     21  N   UNL     1      34.604 -17.721 -22.467  0.00  0.00    -0.284 N 
ATOM     22  C   UNL     1      34.608 -16.341 -22.208  0.00  0.00    +0.228 C 
ATOM     23  H   UNL     1      34.271 -17.991 -23.353  0.00  0.00    +0.155 HD
BRANCH  21  25
ATOM     24  N   UNL     1      35.302 -22.728 -18.501  0.00  0.00    -0.242 NA
ATOM     25  C   UNL     1      35.013 -18.759 -21.627  0.00  0.00    +0.050 C 
ATOM     26  C   UNL     1      34.061 -19.596 -21.041  0.00  0.00    +0.015 C 
ATOM     27  C   UNL     1      34.456 -20.643 -20.193  0.00  0.00    +0.004 C 
ATOM     28  C   UNL     1      36.367 -18.957 -21.376  0.00  0.00    +0.015 C 
ATOM     29  C   UNL     1      35.830 -20.840 -19.940  0.00  0.00    +0.019 C 
ATOM     30  C   UNL     1      36.779 -19.992 -20.536  0.00  0.00    +0.003 C 
ATOM     31  C   UNL     1      33.527 -21.499 -19.590  0.00  0.00    +0.021 C 
ATOM     32  C   UNL     1      36.185 -21.891 -19.093  0.00  0.00    +0.099 C 
ATOM     33  C   UNL     1      33.997 -22.510 -18.765  0.00  0.00    +0.099 C 
ENDBRANCH  21  25
ENDBRANCH   1  22
BRANCH   1  34
ATOM     34  C   UNL     1      35.191 -15.315 -24.441  0.00  0.00    -0.072 C 
BRANCH  34  35
ATOM     35  N   UNL     1      35.256 -16.412 -25.402  0.00  0.00    +0.381 N 
ATOM     36  H   UNL     1      35.590 -16.060 -26.299  0.00  0.00    -0.089 HD
ATOM     37  H   UNL     1      34.327 -16.816 -25.521  0.00  0.00    -0.089 HD
ATOM     38  H   UNL     1      35.895 -17.128 -25.058  0.00  0.00    -0.089 HD
ENDBRANCH  34  35
ENDBRANCH   1  34
TORSDOF 9
ENDMDL
MODEL 2
REMARK VINA RESULT:     -14.1      3.127     12.326
REMARK  Name = 66599893
REMARK  9 active torsions:
REMARK  status: ('A' for Active; 'I' for Inactive)
REMARK    1  A    between atoms: C_1  and  C_2
REMARK    2  A    between atoms: C_1  and  C_22
REMARK    3  A    between atoms: C_1  and  C_34
REMARK    4  A    between atoms: C_5  and  C_8
REMARK    5  A    between atoms: C_8  and  O_9
REMARK    6  A    between atoms: O_9  and  C_11
REMARK    7  A    between atoms: C_11  and  C_12
REMARK    8  A    between atoms: N_21  and  C_25
REMARK    9  A    between atoms: C_34  and  N_35
REMARK                            x       y       z     vdW  Elec       q    Type
REMARK                         _______ _______ _______ _____ _____    ______ ____
ROOT
ATOM      1  C   UNL     1      35.424 -17.134 -22.867  0.00  0.00    +0.077 C 
ENDROOT
BRANCH   1   2
ATOM      2  C   UNL     1      35.504 -18.376 -21.993  0.00  0.00    -0.016 C 
ATOM      3  C   UNL     1      34.354 -19.121 -21.732  0.00  0.00    -0.004 C 
ATOM      4  C   UNL     1      36.729 -18.771 -21.453  0.00  0.00    -0.004 C 
ATOM      5  C   UNL     1      35.651 -20.653 -20.389  0.00  0.00    +0.021 C 
ATOM      6  C   UNL     1      34.428 -20.259 -20.929  0.00  0.00    -0.001 C 
ATOM      7  C   UNL     1      36.801 -19.909 -20.650  0.00  0.00    -0.001 C 
BRANCH   5   8
ATOM      8  C   UNL     1      35.730 -21.872 -19.532  0.00  0.00    +0.235 C 
BRANCH   8   9
ATOM      9  O   UNL     1      34.635 -21.884 -18.625  0.00  0.00    -0.440 OA
BRANCH   9  11
ATOM     10  O   UNL     1      33.900 -23.927 -19.388  0.00  0.00    -0.245 OA
ATOM     11  C   UNL     1      33.948 -23.055 -18.535  0.00  0.00    +0.341 C 
BRANCH  11  12
ATOM     12  C   UNL     1      33.239 -23.149 -17.233  0.00  0.00    +0.072 C 
ATOM     13  C   UNL     1      33.931 -23.415 -16.053  0.00  0.00    -0.016 C 
ATOM     14  C   UNL     1      31.859 -23.317 -14.814  0.00  0.00    -0.022 C 
ATOM     15  C   UNL     1      33.242 -23.499 -14.843  0.00  0.00    -0.008 C 
ATOM     16  C   UNL     1      31.856 -22.967 -17.205  0.00  0.00    +0.006 C 
ATOM     17  C   UNL     1      31.165 -23.052 -15.996  0.00  0.00    -0.004 C 
ATOM     18  C   UNL     1      35.412 -23.613 -16.054  0.00  0.00    +0.031 C 
ATOM     19  C   UNL     1      31.120 -23.408 -13.523  0.00  0.00    +0.031 C 
ENDBRANCH  11  12
ENDBRANCH   9  11
ENDBRANCH   8   9
ENDBRANCH   5   8
ENDBRANCH   1   2
BRANCH   1  22
ATOM     20  O   UNL     1      34.968 -15.865 -20.861  0.00  0.00    -0.275 OA
ATOM     21  N   UNL     1      34.094 -15.089 -22.901  0.00  0.00    -0.284 N 
ATOM     22  C   UNL     1      34.818 -15.965 -22.076  0.00  0.00    +0.228 C 
ATOM     23  H   UNL     1      34.065 -15.324 -23.857  0.00  0.00    +0.155 HD
BRANCH  21  25
ATOM     24  N   UNL     1      31.519  -9.247 -22.179  0.00  0.00    -0.242 NA
ATOM     25  C   UNL     1      33.411 -13.927 -22.538  0.00  0.00    +0.050 C 
ATOM     26  C   UNL     1      33.582 -12.758 -23.283  0.00  0.00    +0.015 C 
ATOM     27  C   UNL     1      32.904 -11.580 -22.929  0.00  0.00    +0.004 C 
ATOM     28  C   UNL     1      32.562 -13.935 -21.436  0.00  0.00    +0.015 C 
ATOM     29  C   UNL     1      32.044 -11.593 -21.811  0.00  0.00    +0.019 C 
ATOM     30  C   UNL     1      31.879 -12.776 -21.070  0.00  0.00    +0.003 C 
ATOM     31  C   UNL     1      33.054 -10.392 -23.655  0.00  0.00    +0.021 C 
ATOM     32  C   UNL     1      31.386 -10.404 -21.491  0.00  0.00    +0.099 C 
ATOM     33  C   UNL     1      32.349  -9.272 -23.243  0.00  0.00    +0.099 C 
ENDBRANCH  21  25
ENDBRANCH   1  22
BRANCH   1  34
ATOM     34  C   UNL     1      34.631 -17.367 -24.169  0.00  0.00    -0.072 C 
BRANCH  34  35
ATOM     35  N   UNL     1      35.350 -16.872 -25.340  0.00  0.00    +0.381 N 
ATOM     36  H   UNL     1      35.054 -17.393 -26.166  0.00  0.00    -0.089 HD
ATOM     37  H   UNL     1      36.352 -16.997 -25.201  0.00  0.00    -0.089 HD
ATOM     38  H   UNL     1      35.146 -15.881 -25.471  0.00  0.00    -0.089 HD
ENDBRANCH  34  35
ENDBRANCH   1  34
TORSDOF 9
ENDMDL
MODEL 3
REMARK VINA RESULT:     -14.0      3.688     12.638
REMARK  Name = 66599893
REMARK  9 active torsions:
REMARK  status: ('A' for Active; 'I' for Inactive)
REMARK    1  A    between atoms: C_1  and  C_2
REMARK    2  A    between atoms: C_1  and  C_22
REMARK    3  A    between atoms: C_1  and  C_34
REMARK    4  A    between atoms: C_5  and  C_8
REMARK    5  A    between atoms: C_8  and  O_9
REMARK    6  A    between atoms: O_9  and  C_11
REMARK    7  A    between atoms: C_11  and  C_12
REMARK    8  A    between atoms: N_21  and  C_25
REMARK    9  A    between atoms: C_34  and  N_35
REMARK                            x       y       z     vdW  Elec       q    Type
REMARK                         _______ _______ _______ _____ _____    ______ ____
ROOT
ATOM      1  C   UNL     1      35.368 -18.910 -22.435  0.00  0.00    +0.077 C 
ENDROOT
BRANCH   1   2
ATOM      2  C   UNL     1      34.927 -19.875 -21.345  0.00  0.00    -0.016 C 
ATOM      3  C   UNL     1      33.570 -20.037 -21.063  0.00  0.00    -0.004 C 
ATOM      4  C   UNL     1      35.880 -20.598 -20.626  0.00  0.00    -0.004 C 
ATOM      5  C   UNL     1      34.119 -21.643 -19.344  0.00  0.00    +0.021 C 
ATOM      6  C   UNL     1      33.167 -20.921 -20.062  0.00  0.00    -0.001 C 
ATOM      7  C   UNL     1      35.476 -21.482 -19.626  0.00  0.00    -0.001 C 
BRANCH   5   8
ATOM      8  C   UNL     1      33.688 -22.590 -18.275  0.00  0.00    +0.235 C 
BRANCH   8   9
ATOM      9  O   UNL     1      34.835 -23.142 -17.641  0.00  0.00    -0.440 OA
BRANCH   9  11
ATOM     10  O   UNL     1      33.844 -22.892 -15.579  0.00  0.00    -0.245 OA
ATOM     11  C   UNL     1      34.776 -23.244 -16.285  0.00  0.00    +0.341 C 
BRANCH  11  12
ATOM     12  C   UNL     1      36.021 -23.852 -15.750  0.00  0.00    +0.072 C 
ATOM     13  C   UNL     1      37.240 -23.181 -15.823  0.00  0.00    -0.016 C 
ATOM     14  C   UNL     1      38.330 -25.040 -14.731  0.00  0.00    -0.022 C 
ATOM     15  C   UNL     1      38.395 -23.774 -15.313  0.00  0.00    -0.008 C 
ATOM     16  C   UNL     1      35.955 -25.118 -15.167  0.00  0.00    +0.006 C 
ATOM     17  C   UNL     1      37.110 -25.712 -14.658  0.00  0.00    -0.004 C 
ATOM     18  C   UNL     1      37.339 -21.824 -16.441  0.00  0.00    +0.031 C 
ATOM     19  C   UNL     1      39.564 -25.676 -14.186  0.00  0.00    +0.031 C 
ENDBRANCH  11  12
ENDBRANCH   9  11
ENDBRANCH   8   9
ENDBRANCH   5   8
ENDBRANCH   1   2
BRANCH   1  22
ATOM     20  O   UNL     1      35.326 -17.060 -20.879  0.00  0.00    -0.275 OA
ATOM     21  N   UNL     1      34.498 -16.717 -23.054  0.00  0.00    -0.284 N 
ATOM     22  C   UNL     1      35.076 -17.463 -22.013  0.00  0.00    +0.228 C 
ATOM     23  H   UNL     1      34.356 -17.199 -23.900  0.00  0.00    +0.155 HD
BRANCH  21  25
ATOM     24  N   UNL     1      32.124 -10.849 -21.953  0.00  0.00    -0.242 NA
ATOM     25  C   UNL     1      34.102 -15.378 -23.040  0.00  0.00    +0.050 C 
ATOM     26  C   UNL     1      33.323 -14.894 -21.987  0.00  0.00    +0.015 C 
ATOM     27  C   UNL     1      32.914 -13.551 -21.960  0.00  0.00    +0.004 C 
ATOM     28  C   UNL     1      34.482 -14.530 -24.075  0.00  0.00    +0.015 C 
ATOM     29  C   UNL     1      33.303 -12.694 -23.011  0.00  0.00    +0.019 C 
ATOM     30  C   UNL     1      34.087 -13.193 -24.065  0.00  0.00    +0.003 C 
ATOM     31  C   UNL     1      32.133 -13.035 -20.918  0.00  0.00    +0.021 C 
ATOM     32  C   UNL     1      32.879 -11.365 -22.949  0.00  0.00    +0.099 C 
ATOM     33  C   UNL     1      31.772 -11.697 -20.964  0.00  0.00    +0.099 C 
ENDBRANCH  21  25
ENDBRANCH   1  22
BRANCH   1  34
ATOM     34  C   UNL     1      34.717 -19.211 -23.800  0.00  0.00    -0.072 C 
BRANCH  34  35
ATOM     35  N   UNL     1      35.471 -20.210 -24.554  0.00  0.00    +0.381 N 
ATOM     36  H   UNL     1      36.470 -20.057 -24.416  0.00  0.00    -0.089 HD
ATOM     37  H   UNL     1      35.248 -20.125 -25.546  0.00  0.00    -0.089 HD
ATOM     38  H   UNL     1      35.220 -21.143 -24.228  0.00  0.00    -0.089 HD
ENDBRANCH  34  35
ENDBRANCH   1  34
TORSDOF 9
ENDMDL
MODEL 4
REMARK VINA RESULT:     -13.9      3.601     12.780
REMARK  Name = 66599893
REMARK  9 active torsions:
REMARK  status: ('A' for Active; 'I' for Inactive)
REMARK    1  A    between atoms: C_1  and  C_2
REMARK    2  A    between atoms: C_1  and  C_22
REMARK    3  A    between atoms: C_1  and  C_34
REMARK    4  A    between atoms: C_5  and  C_8
REMARK    5  A    between atoms: C_8  and  O_9
REMARK    6  A    between atoms: O_9  and  C_11
REMARK    7  A    between atoms: C_11  and  C_12
REMARK    8  A    between atoms: N_21  and  C_25
REMARK    9  A    between atoms: C_34  and  N_35
REMARK                            x       y       z     vdW  Elec       q    Type
REMARK                         _______ _______ _______ _____ _____    ______ ____
ROOT
ATOM      1  C   UNL     1      35.413 -18.409 -22.174  0.00  0.00    +0.077 C 
ENDROOT
BRANCH   1   2
ATOM      2  C   UNL     1      35.005 -19.546 -21.250  0.00  0.00    -0.016 C 
ATOM      3  C   UNL     1      33.654 -19.802 -21.012  0.00  0.00    -0.004 C 
ATOM      4  C   UNL     1      35.982 -20.334 -20.640  0.00  0.00    -0.004 C 
ATOM      5  C   UNL     1      34.258 -21.631 -19.554  0.00  0.00    +0.021 C 
ATOM      6  C   UNL     1      33.281 -20.844 -20.163  0.00  0.00    -0.001 C 
ATOM      7  C   UNL     1      35.608 -21.375 -19.792  0.00  0.00    -0.001 C 
BRANCH   5   8
ATOM      8  C   UNL     1      33.859 -22.747 -18.648  0.00  0.00    +0.235 C 
BRANCH   8   9
ATOM      9  O   UNL     1      34.956 -23.092 -17.811  0.00  0.00    -0.440 OA
BRANCH   9  11
ATOM     10  O   UNL     1      33.607 -23.017 -15.947  0.00  0.00    -0.245 OA
ATOM     11  C   UNL     1      34.666 -23.284 -16.496  0.00  0.00    +0.341 C 
BRANCH  11  12
ATOM     12  C   UNL     1      35.827 -23.876 -15.783  0.00  0.00    +0.072 C 
ATOM     13  C   UNL     1      37.064 -23.235 -15.764  0.00  0.00    -0.016 C 
ATOM     14  C   UNL     1      37.976 -25.031 -14.430  0.00  0.00    -0.022 C 
ATOM     15  C   UNL     1      38.139 -23.811 -15.088  0.00  0.00    -0.008 C 
ATOM     16  C   UNL     1      35.663 -25.095 -15.125  0.00  0.00    +0.006 C 
ATOM     17  C   UNL     1      36.737 -25.673 -14.449  0.00  0.00    -0.004 C 
ATOM     18  C   UNL     1      37.267 -21.928 -16.460  0.00  0.00    +0.031 C 
ATOM     19  C   UNL     1      39.124 -25.650 -13.708  0.00  0.00    +0.031 C 
ENDBRANCH  11  12
ENDBRANCH   9  11
ENDBRANCH   8   9
ENDBRANCH   5   8
ENDBRANCH   1   2
BRANCH   1  22
ATOM     20  O   UNL     1      35.327 -16.732 -20.435  0.00  0.00    -0.275 OA
ATOM     21  N   UNL     1      34.208 -16.307 -22.460  0.00  0.00    -0.284 N 
ATOM     22  C   UNL     1      34.995 -17.059 -21.572  0.00  0.00    +0.228 C 
ATOM     23  H   UNL     1      34.027 -16.724 -23.332  0.00  0.00    +0.155 HD
BRANCH  21  25
ATOM     24  N   UNL     1      32.254 -10.187 -22.549  0.00  0.00    -0.242 NA
ATOM     25  C   UNL     1      33.652 -15.042 -22.261  0.00  0.00    +0.050 C 
ATOM     26  C   UNL     1      33.935 -14.009 -23.156  0.00  0.00    +0.015 C 
ATOM     27  C   UNL     1      33.385 -12.730 -22.969  0.00  0.00    +0.004 C 
ATOM     28  C   UNL     1      32.817 -14.813 -21.171  0.00  0.00    +0.015 C 
ATOM     29  C   UNL     1      32.539 -12.503 -21.864  0.00  0.00    +0.019 C 
ATOM     30  C   UNL     1      32.261 -13.550 -20.969  0.00  0.00    +0.003 C 
ATOM     31  C   UNL     1      33.649 -11.674 -23.849  0.00  0.00    +0.021 C 
ATOM     32  C   UNL     1      32.010 -11.220 -21.711  0.00  0.00    +0.099 C 
ATOM     33  C   UNL     1      33.067 -10.441 -23.596  0.00  0.00    +0.099 C 
ENDBRANCH  21  25
ENDBRANCH   1  22
BRANCH   1  34
ATOM     34  C   UNL     1      34.840 -18.560 -23.598  0.00  0.00    -0.072 C 
BRANCH  34  35
ATOM     35  N   UNL     1      35.228 -19.828 -24.210  0.00  0.00    +0.381 N 
ATOM     36  H   UNL     1      34.493 -20.518 -24.057  0.00  0.00    -0.089 HD
ATOM     37  H   UNL     1      36.096 -20.157 -23.787  0.00  0.00    -0.089 HD
ATOM     38  H   UNL     1      35.368 -19.694 -25.211  0.00  0.00    -0.089 HD
ENDBRANCH  34  35
ENDBRANCH   1  34
TORSDOF 9
ENDMDL
MODEL 5
REMARK VINA RESULT:     -13.4      3.023      5.013
REMARK  Name = 66599893
REMARK  9 active torsions:
REMARK  status: ('A' for Active; 'I' for Inactive)
REMARK    1  A    between atoms: C_1  and  C_2
REMARK    2  A    between atoms: C_1  and  C_22
REMARK    3  A    between atoms: C_1  and  C_34
REMARK    4  A    between atoms: C_5  and  C_8
REMARK    5  A    between atoms: C_8  and  O_9
REMARK    6  A    between atoms: O_9  and  C_11
REMARK    7  A    between atoms: C_11  and  C_12
REMARK    8  A    between atoms: N_21  and  C_25
REMARK    9  A    between atoms: C_34  and  N_35
REMARK                            x       y       z     vdW  Elec       q    Type
REMARK                         _______ _______ _______ _____ _____    ______ ____
ROOT
ATOM      1  C   UNL     1      36.111 -19.038 -22.708  0.00  0.00    +0.077 C 
ENDROOT
BRANCH   1   2
ATOM      2  C   UNL     1      35.397 -17.891 -23.405  0.00  0.00    -0.016 C 
ATOM      3  C   UNL     1      35.602 -16.578 -22.979  0.00  0.00    -0.004 C 
ATOM      4  C   UNL     1      34.536 -18.151 -24.473  0.00  0.00    -0.004 C 
ATOM      5  C   UNL     1      34.086 -15.787 -24.685  0.00  0.00    +0.021 C 
ATOM      6  C   UNL     1      34.946 -15.527 -23.619  0.00  0.00    -0.001 C 
ATOM      7  C   UNL     1      33.881 -17.099 -25.111  0.00  0.00    -0.001 C 
BRANCH   5   8
ATOM      8  C   UNL     1      33.386 -14.662 -25.370  0.00  0.00    +0.235 C 
BRANCH   8   9
ATOM      9  O   UNL     1      32.769 -13.827 -24.398  0.00  0.00    -0.440 OA
BRANCH   9  11
ATOM     10  O   UNL     1      34.422 -12.246 -24.654  0.00  0.00    -0.245 OA
ATOM     11  C   UNL     1      33.444 -12.690 -24.073  0.00  0.00    +0.341 C 
BRANCH  11  12
ATOM     12  C   UNL     1      32.830 -12.035 -22.890  0.00  0.00    +0.072 C 
ATOM     13  C   UNL     1      32.492 -12.769 -21.754  0.00  0.00    -0.016 C 
ATOM     14  C   UNL     1      31.678 -10.756 -20.695  0.00  0.00    -0.022 C 
ATOM     15  C   UNL     1      31.916 -12.130 -20.656  0.00  0.00    -0.008 C 
ATOM     16  C   UNL     1      32.592 -10.661 -22.930  0.00  0.00    +0.006 C 
ATOM     17  C   UNL     1      32.016 -10.021 -21.832  0.00  0.00    -0.004 C 
ATOM     18  C   UNL     1      32.736 -14.241 -21.685  0.00  0.00    +0.031 C 
ATOM     19  C   UNL     1      31.061 -10.071 -19.523  0.00  0.00    +0.031 C 
ENDBRANCH  11  12
ENDBRANCH   9  11
ENDBRANCH   8   9
ENDBRANCH   5   8
ENDBRANCH   1   2
BRANCH   1  22
ATOM     20  O   UNL     1      34.560 -18.663 -20.892  0.00  0.00    -0.275 OA
ATOM     21  N   UNL     1      35.734 -20.700 -20.962  0.00  0.00    -0.284 N 
ATOM     22  C   UNL     1      35.365 -19.425 -21.422  0.00  0.00    +0.228 C 
ATOM     23  H   UNL     1      36.405 -21.174 -21.504  0.00  0.00    +0.155 HD
BRANCH  21  25
ATOM     24  N   UNL     1      34.734 -23.717 -15.378  0.00  0.00    -0.242 NA
ATOM     25  C   UNL     1      35.269 -21.379 -19.834  0.00  0.00    +0.050 C 
ATOM     26  C   UNL     1      36.143 -21.660 -18.782  0.00  0.00    +0.015 C 
ATOM     27  C   UNL     1      35.691 -22.345 -17.642  0.00  0.00    +0.004 C 
ATOM     28  C   UNL     1      33.937 -21.774 -19.761  0.00  0.00    +0.015 C 
ATOM     29  C   UNL     1      34.340 -22.743 -17.572  0.00  0.00    +0.019 C 
ATOM     30  C   UNL     1      33.470 -22.454 -18.637  0.00  0.00    +0.003 C 
ATOM     31  C   UNL     1      36.542 -22.642 -16.571  0.00  0.00    +0.021 C 
ATOM     32  C   UNL     1      33.927 -23.420 -16.423  0.00  0.00    +0.099 C 
ATOM     33  C   UNL     1      36.020 -23.320 -15.480  0.00  0.00    +0.099 C 
ENDBRANCH  21  25
ENDBRANCH   1  22
BRANCH   1  34
ATOM     34  C   UNL     1      37.588 -18.723 -22.396  0.00  0.00    -0.072 C 
BRANCH  34  35
ATOM     35  N   UNL     1      37.852 -18.720 -20.959  0.00  0.00    +0.381 N 
ATOM     36  H   UNL     1      37.160 -19.298 -20.485  0.00  0.00    -0.089 HD
ATOM     37  H   UNL     1      37.796 -17.764 -20.606  0.00  0.00    -0.089 HD
ATOM     38  H   UNL     1      38.785 -19.092 -20.784  0.00  0.00    -0.089 HD
ENDBRANCH  34  35
ENDBRANCH   1  34
TORSDOF 9
ENDMDL
MODEL 6
REMARK VINA RESULT:     -13.3      3.233     11.953
REMARK  Name = 66599893
REMARK  9 active torsions:
REMARK  status: ('A' for Active; 'I' for Inactive)
REMARK    1  A    between atoms: C_1  and  C_2
REMARK    2  A    between atoms: C_1  and  C_22
REMARK    3  A    between atoms: C_1  and  C_34
REMARK    4  A    between atoms: C_5  and  C_8
REMARK    5  A    between atoms: C_8  and  O_9
REMARK    6  A    between atoms: O_9  and  C_11
REMARK    7  A    between atoms: C_11  and  C_12
REMARK    8  A    between atoms: N_21  and  C_25
REMARK    9  A    between atoms: C_34  and  N_35
REMARK                            x       y       z     vdW  Elec       q    Type
REMARK                         _______ _______ _______ _____ _____    ______ ____
ROOT
ATOM      1  C   UNL     1      31.620 -11.405 -21.158  0.00  0.00    +0.077 C 
ENDROOT
BRANCH   1   2
ATOM      2  C   UNL     1      32.447 -12.548 -21.726  0.00  0.00    -0.016 C 
ATOM      3  C   UNL     1      33.043 -12.423 -22.981  0.00  0.00    -0.004 C 
ATOM      4  C   UNL     1      32.610 -13.723 -20.990  0.00  0.00    -0.004 C 
ATOM      5  C   UNL     1      33.963 -14.646 -22.767  0.00  0.00    +0.021 C 
ATOM      6  C   UNL     1      33.800 -13.473 -23.502  0.00  0.00    -0.001 C 
ATOM      7  C   UNL     1      33.367 -14.772 -21.511  0.00  0.00    -0.001 C 
BRANCH   5   8
ATOM      8  C   UNL     1      34.774 -15.768 -23.322  0.00  0.00    +0.235 C 
BRANCH   8   9
ATOM      9  O   UNL     1      34.793 -16.844 -22.392  0.00  0.00    -0.440 OA
BRANCH   9  11
ATOM     10  O   UNL     1      34.820 -18.374 -24.111  0.00  0.00    -0.245 OA
ATOM     11  C   UNL     1      34.894 -18.092 -22.925  0.00  0.00    +0.341 C 
BRANCH  11  12
ATOM     12  C   UNL     1      35.111 -19.103 -21.859  0.00  0.00    +0.072 C 
ATOM     13  C   UNL     1      36.392 -19.394 -21.392  0.00  0.00    -0.016 C 
ATOM     14  C   UNL     1      35.465 -21.012 -19.855  0.00  0.00    -0.022 C 
ATOM     15  C   UNL     1      36.569 -20.348 -20.390  0.00  0.00    -0.008 C 
ATOM     16  C   UNL     1      34.006 -19.766 -21.325  0.00  0.00    +0.006 C 
ATOM     17  C   UNL     1      34.183 -20.721 -20.323  0.00  0.00    -0.004 C 
ATOM     18  C   UNL     1      37.592 -18.698 -21.946  0.00  0.00    +0.031 C 
ATOM     19  C   UNL     1      35.652 -22.033 -18.785  0.00  0.00    +0.031 C 
ENDBRANCH  11  12
ENDBRANCH   9  11
ENDBRANCH   8   9
ENDBRANCH   5   8
ENDBRANCH   1   2
BRANCH   1  22
ATOM     20  O   UNL     1      30.539 -10.100 -22.882  0.00  0.00    -0.275 OA
ATOM     21  N   UNL     1      32.697  -9.474 -22.188  0.00  0.00    -0.284 N 
ATOM     22  C   UNL     1      31.531 -10.258 -22.176  0.00  0.00    +0.228 C 
ATOM     23  H   UNL     1      33.405  -9.747 -21.562  0.00  0.00    +0.155 HD
BRANCH  21  25
ATOM     24  N   UNL     1      32.823  -4.044 -25.621  0.00  0.00    -0.242 NA
ATOM     25  C   UNL     1      32.977  -8.355 -22.975  0.00  0.00    +0.050 C 
ATOM     26  C   UNL     1      31.973  -7.421 -23.239  0.00  0.00    +0.015 C 
ATOM     27  C   UNL     1      32.238  -6.291 -24.030  0.00  0.00    +0.004 C 
ATOM     28  C   UNL     1      34.255  -8.173 -23.496  0.00  0.00    +0.015 C 
ATOM     29  C   UNL     1      33.535  -6.111 -24.556  0.00  0.00    +0.019 C 
ATOM     30  C   UNL     1      34.537  -7.058 -24.283  0.00  0.00    +0.003 C 
ATOM     31  C   UNL     1      31.254  -5.337 -24.313  0.00  0.00    +0.021 C 
ATOM     32  C   UNL     1      33.761  -4.976 -25.337  0.00  0.00    +0.099 C 
ATOM     33  C   UNL     1      31.595  -4.249 -25.101  0.00  0.00    +0.099 C 
ENDBRANCH  21  25
ENDBRANCH   1  22
BRANCH   1  34
ATOM     34  C   UNL     1      32.161 -10.885 -19.811  0.00  0.00    -0.072 C 
BRANCH  34  35
ATOM     35  N   UNL     1      31.189 -10.039 -19.124  0.00  0.00    +0.381 N 
ATOM     36  H   UNL     1      30.924  -9.264 -19.732  0.00  0.00    -0.089 HD
ATOM     37  H   UNL     1      31.604  -9.672 -18.268  0.00  0.00    -0.089 HD
ATOM     38  H   UNL     1      30.363 -10.589 -18.893  0.00  0.00    -0.089 HD
ENDBRANCH  34  35
ENDBRANCH   1  34
TORSDOF 9
ENDMDL
MODEL 7
REMARK VINA RESULT:     -13.3      3.387     10.927
REMARK  Name = 66599893
REMARK  9 active torsions:
REMARK  status: ('A' for Active; 'I' for Inactive)
REMARK    1  A    between atoms: C_1  and  C_2
REMARK    2  A    between atoms: C_1  and  C_22
REMARK    3  A    between atoms: C_1  and  C_34
REMARK    4  A    between atoms: C_5  and  C_8
REMARK    5  A    between atoms: C_8  and  O_9
REMARK    6  A    between atoms: O_9  and  C_11
REMARK    7  A    between atoms: C_11  and  C_12
REMARK    8  A    between atoms: N_21  and  C_25
REMARK    9  A    between atoms: C_34  and  N_35
REMARK                            x       y       z     vdW  Elec       q    Type
REMARK                         _______ _______ _______ _____ _____    ______ ____
ROOT
ATOM      1  C   UNL     1      33.783 -14.238 -25.910  0.00  0.00    +0.077 C 
ENDROOT
BRANCH   1   2
ATOM      2  C   UNL     1      34.163 -15.578 -25.299  0.00  0.00    -0.016 C 
ATOM      3  C   UNL     1      33.607 -16.756 -25.800  0.00  0.00    -0.004 C 
ATOM      4  C   UNL     1      35.067 -15.630 -24.237  0.00  0.00    -0.004 C 
ATOM      5  C   UNL     1      34.858 -18.036 -24.177  0.00  0.00    +0.021 C 
ATOM      6  C   UNL     1      33.955 -17.985 -25.238  0.00  0.00    -0.001 C 
ATOM      7  C   UNL     1      35.413 -16.859 -23.676  0.00  0.00    -0.001 C 
BRANCH   5   8
ATOM      8  C   UNL     1      35.231 -19.350 -23.578  0.00  0.00    +0.235 C 
BRANCH   8   9
ATOM      9  O   UNL     1      34.408 -19.605 -22.447  0.00  0.00    -0.440 OA
BRANCH   9  11
ATOM     10  O   UNL     1      35.796 -18.573 -20.928  0.00  0.00    -0.245 OA
ATOM     11  C   UNL     1      34.998 -19.447 -21.231  0.00  0.00    +0.341 C 
BRANCH  11  12
ATOM     12  C   UNL     1      34.543 -20.498 -20.286  0.00  0.00    +0.072 C 
ATOM     13  C   UNL     1      35.459 -21.307 -19.613  0.00  0.00    -0.016 C 
ATOM     14  C   UNL     1      33.638 -22.460 -18.521  0.00  0.00    -0.022 C 
ATOM     15  C   UNL     1      35.006 -22.288 -18.731  0.00  0.00    -0.008 C 
ATOM     16  C   UNL     1      33.175 -20.670 -20.077  0.00  0.00    +0.006 C 
ATOM     17  C   UNL     1      32.722 -21.651 -19.195  0.00  0.00    -0.004 C 
ATOM     18  C   UNL     1      36.929 -21.144 -19.817  0.00  0.00    +0.031 C 
ATOM     19  C   UNL     1      33.152 -23.509 -17.579  0.00  0.00    +0.031 C 
ENDBRANCH  11  12
ENDBRANCH   9  11
ENDBRANCH   8   9
ENDBRANCH   5   8
ENDBRANCH   1   2
BRANCH   1  22
ATOM     20  O   UNL     1      34.596 -12.203 -24.889  0.00  0.00    -0.275 OA
ATOM     21  N   UNL     1      32.846 -13.367 -23.833  0.00  0.00    -0.284 N 
ATOM     22  C   UNL     1      33.803 -13.140 -24.836  0.00  0.00    +0.228 C 
ATOM     23  H   UNL     1      32.296 -14.176 -23.939  0.00  0.00    +0.155 HD
BRANCH  21  25
ATOM     24  N   UNL     1      31.723  -8.848 -19.405  0.00  0.00    -0.242 NA
ATOM     25  C   UNL     1      32.574 -12.588 -22.706  0.00  0.00    +0.050 C 
ATOM     26  C   UNL     1      32.539 -11.197 -22.814  0.00  0.00    +0.015 C 
ATOM     27  C   UNL     1      32.269 -10.399 -21.690  0.00  0.00    +0.004 C 
ATOM     28  C   UNL     1      32.341 -13.200 -21.478  0.00  0.00    +0.015 C 
ATOM     29  C   UNL     1      32.033 -11.023 -20.447  0.00  0.00    +0.019 C 
ATOM     30  C   UNL     1      32.071 -12.425 -20.351  0.00  0.00    +0.003 C 
ATOM     31  C   UNL     1      32.227  -9.002 -21.765  0.00  0.00    +0.021 C 
ATOM     32  C   UNL     1      31.767 -10.199 -19.352  0.00  0.00    +0.099 C 
ATOM     33  C   UNL     1      31.953  -8.285 -20.610  0.00  0.00    +0.099 C 
ENDBRANCH  21  25
ENDBRANCH   1  22
BRANCH   1  34
ATOM     34  C   UNL     1      32.414 -14.269 -26.619  0.00  0.00    -0.072 C 
BRANCH  34  35
ATOM     35  N   UNL     1      32.195 -13.076 -27.432  0.00  0.00    +0.381 N 
ATOM     36  H   UNL     1      31.275 -13.125 -27.868  0.00  0.00    -0.089 HD
ATOM     37  H   UNL     1      32.911 -13.022 -28.156  0.00  0.00    -0.089 HD
ATOM     38  H   UNL     1      32.248 -12.247 -26.840  0.00  0.00    -0.089 HD
ENDBRANCH  34  35
ENDBRANCH   1  34
TORSDOF 9
ENDMDL
MODEL 8
REMARK VINA RESULT:     -13.3      3.470     12.217
REMARK  Name = 66599893
REMARK  9 active torsions:
REMARK  status: ('A' for Active; 'I' for Inactive)
REMARK    1  A    between atoms: C_1  and  C_2
REMARK    2  A    between atoms: C_1  and  C_22
REMARK    3  A    between atoms: C_1  and  C_34
REMARK    4  A    between atoms: C_5  and  C_8
REMARK    5  A    between atoms: C_8  and  O_9
REMARK    6  A    between atoms: O_9  and  C_11
REMARK    7  A    between atoms: C_11  and  C_12
REMARK    8  A    between atoms: N_21  and  C_25
REMARK    9  A    between atoms: C_34  and  N_35
REMARK                            x       y       z     vdW  Elec       q    Type
REMARK                         _______ _______ _______ _____ _____    ______ ____
ROOT
ATOM      1  C   UNL     1      35.457 -18.206 -22.925  0.00  0.00    +0.077 C 
ENDROOT
BRANCH   1   2
ATOM      2  C   UNL     1      35.729 -19.152 -21.766  0.00  0.00    -0.016 C 
ATOM      3  C   UNL     1      34.702 -19.948 -21.258  0.00  0.00    -0.004 C 
ATOM      4  C   UNL     1      37.007 -19.224 -21.210  0.00  0.00    -0.004 C 
ATOM      5  C   UNL     1      36.229 -20.886 -19.639  0.00  0.00    +0.021 C 
ATOM      6  C   UNL     1      34.952 -20.814 -20.194  0.00  0.00    -0.001 C 
ATOM      7  C   UNL     1      37.256 -20.091 -20.146  0.00  0.00    -0.001 C 
BRANCH   5   8
ATOM      8  C   UNL     1      36.496 -21.814 -18.502  0.00  0.00    +0.235 C 
BRANCH   8   9
ATOM      9  O   UNL     1      35.317 -22.553 -18.206  0.00  0.00    -0.440 OA
BRANCH   9  11
ATOM     10  O   UNL     1      36.189 -23.472 -16.284  0.00  0.00    -0.245 OA
ATOM     11  C   UNL     1      35.245 -23.086 -16.956  0.00  0.00    +0.341 C 
BRANCH  11  12
ATOM     12  C   UNL     1      33.835 -23.146 -16.492  0.00  0.00    +0.072 C 
ATOM     13  C   UNL     1      33.524 -23.500 -15.180  0.00  0.00    -0.016 C 
ATOM     14  C   UNL     1      31.171 -23.245 -15.669  0.00  0.00    -0.022 C 
ATOM     15  C   UNL     1      32.192 -23.549 -14.768  0.00  0.00    -0.008 C 
ATOM     16  C   UNL     1      32.816 -22.841 -17.393  0.00  0.00    +0.006 C 
ATOM     17  C   UNL     1      31.483 -22.891 -16.983  0.00  0.00    -0.004 C 
ATOM     18  C   UNL     1      34.596 -23.830 -14.194  0.00  0.00    +0.031 C 
ATOM     19  C   UNL     1      29.747 -23.298 -15.232  0.00  0.00    +0.031 C 
ENDBRANCH  11  12
ENDBRANCH   9  11
ENDBRANCH   8   9
ENDBRANCH   5   8
ENDBRANCH   1   2
BRANCH   1  22
ATOM     20  O   UNL     1      35.060 -16.556 -21.203  0.00  0.00    -0.275 OA
ATOM     21  N   UNL     1      34.525 -16.008 -23.427  0.00  0.00    -0.284 N 
ATOM     22  C   UNL     1      35.004 -16.836 -22.398  0.00  0.00    +0.228 C 
ATOM     23  H   UNL     1      34.540 -16.395 -24.332  0.00  0.00    +0.155 HD
BRANCH  21  25
ATOM     24  N   UNL     1      31.782 -10.394 -21.932  0.00  0.00    -0.242 NA
ATOM     25  C   UNL     1      34.034 -14.705 -23.328  0.00  0.00    +0.050 C 
ATOM     26  C   UNL     1      33.269 -14.332 -22.222  0.00  0.00    +0.015 C 
ATOM     27  C   UNL     1      32.765 -13.026 -22.109  0.00  0.00    +0.004 C 
ATOM     28  C   UNL     1      34.307 -13.781 -24.333  0.00  0.00    +0.015 C 
ATOM     29  C   UNL     1      33.044 -12.092 -23.129  0.00  0.00    +0.019 C 
ATOM     30  C   UNL     1      33.816 -12.479 -24.238  0.00  0.00    +0.003 C 
ATOM     31  C   UNL     1      31.995 -12.620 -21.012  0.00  0.00    +0.021 C 
ATOM     32  C   UNL     1      32.528 -10.803 -22.982  0.00  0.00    +0.099 C 
ATOM     33  C   UNL     1      31.535 -11.313 -20.974  0.00  0.00    +0.099 C 
ENDBRANCH  21  25
ENDBRANCH   1  22
BRANCH   1  34
ATOM     34  C   UNL     1      34.423 -18.764 -23.924  0.00  0.00    -0.072 C 
BRANCH  34  35
ATOM     35  N   UNL     1      34.976 -19.850 -24.730  0.00  0.00    +0.381 N 
ATOM     36  H   UNL     1      35.611 -19.465 -25.429  0.00  0.00    -0.089 HD
ATOM     37  H   UNL     1      34.217 -20.346 -25.196  0.00  0.00    -0.089 HD
ATOM     38  H   UNL     1      35.484 -20.496 -24.126  0.00  0.00    -0.089 HD
ENDBRANCH  34  35
ENDBRANCH   1  34
TORSDOF 9
ENDMDL
MODEL 9
REMARK VINA RESULT:     -13.3      3.196     12.408
REMARK  Name = 66599893
REMARK  9 active torsions:
REMARK  status: ('A' for Active; 'I' for Inactive)
REMARK    1  A    between atoms: C_1  and  C_2
REMARK    2  A    between atoms: C_1  and  C_22
REMARK    3  A    between atoms: C_1  and  C_34
REMARK    4  A    between atoms: C_5  and  C_8
REMARK    5  A    between atoms: C_8  and  O_9
REMARK    6  A    between atoms: O_9  and  C_11
REMARK    7  A    between atoms: C_11  and  C_12
REMARK    8  A    between atoms: N_21  and  C_25
REMARK    9  A    between atoms: C_34  and  N_35
REMARK                            x       y       z     vdW  Elec       q    Type
REMARK                         _______ _______ _______ _____ _____    ______ ____
ROOT
ATOM      1  C   UNL     1      35.418 -17.118 -22.925  0.00  0.00    +0.077 C 
ENDROOT
BRANCH   1   2
ATOM      2  C   UNL     1      35.582 -18.356 -22.059  0.00  0.00    -0.016 C 
ATOM      3  C   UNL     1      34.494 -19.202 -21.836  0.00  0.00    -0.004 C 
ATOM      4  C   UNL     1      36.820 -18.648 -21.486  0.00  0.00    -0.004 C 
ATOM      5  C   UNL     1      35.883 -20.628 -20.468  0.00  0.00    +0.021 C 
ATOM      6  C   UNL     1      34.645 -20.337 -21.040  0.00  0.00    -0.001 C 
ATOM      7  C   UNL     1      36.970 -19.783 -20.690  0.00  0.00    -0.001 C 
BRANCH   5   8
ATOM      8  C   UNL     1      36.045 -21.843 -19.618  0.00  0.00    +0.235 C 
BRANCH   8   9
ATOM      9  O   UNL     1      35.220 -21.727 -18.464  0.00  0.00    -0.440 OA
BRANCH   9  11
ATOM     10  O   UNL     1      33.744 -23.419 -18.967  0.00  0.00    -0.245 OA
ATOM     11  C   UNL     1      34.443 -22.805 -18.175  0.00  0.00    +0.341 C 
BRANCH  11  12
ATOM     12  C   UNL     1      34.548 -23.158 -16.736  0.00  0.00    +0.072 C 
ATOM     13  C   UNL     1      33.410 -23.413 -15.972  0.00  0.00    -0.016 C 
ATOM     14  C   UNL     1      34.800 -23.815 -14.037  0.00  0.00    -0.022 C 
ATOM     15  C   UNL     1      33.535 -23.742 -14.622  0.00  0.00    -0.008 C 
ATOM     16  C   UNL     1      35.812 -23.231 -16.152  0.00  0.00    +0.006 C 
ATOM     17  C   UNL     1      35.938 -23.559 -14.802  0.00  0.00    -0.004 C 
ATOM     18  C   UNL     1      32.044 -23.342 -16.573  0.00  0.00    +0.031 C 
ATOM     19  C   UNL     1      34.936 -24.165 -12.594  0.00  0.00    +0.031 C 
ENDBRANCH  11  12
ENDBRANCH   9  11
ENDBRANCH   8   9
ENDBRANCH   5   8
ENDBRANCH   1   2
BRANCH   1  22
ATOM     20  O   UNL     1      34.951 -15.902 -20.889  0.00  0.00    -0.275 OA
ATOM     21  N   UNL     1      34.073 -15.083 -22.910  0.00  0.00    -0.284 N 
ATOM     22  C   UNL     1      34.803 -15.973 -22.106  0.00  0.00    +0.228 C 
ATOM     23  H   UNL     1      34.046 -15.295 -23.871  0.00  0.00    +0.155 HD
BRANCH  21  25
ATOM     24  N   UNL     1      31.443  -9.283 -22.055  0.00  0.00    -0.242 NA
ATOM     25  C   UNL     1      33.381 -13.934 -22.519  0.00  0.00    +0.050 C 
ATOM     26  C   UNL     1      33.532 -12.751 -23.243  0.00  0.00    +0.015 C 
ATOM     27  C   UNL     1      32.845 -11.587 -22.862  0.00  0.00    +0.004 C 
ATOM     28  C   UNL     1      32.542 -13.972 -21.409  0.00  0.00    +0.015 C 
ATOM     29  C   UNL     1      31.996 -11.629 -21.736  0.00  0.00    +0.019 C 
ATOM     30  C   UNL     1      31.851 -12.827 -21.015  0.00  0.00    +0.003 C 
ATOM     31  C   UNL     1      32.976 -10.384 -23.567  0.00  0.00    +0.021 C 
ATOM     32  C   UNL     1      31.329 -10.454 -21.388  0.00  0.00    +0.099 C 
ATOM     33  C   UNL     1      32.263  -9.279 -23.127  0.00  0.00    +0.099 C 
ENDBRANCH  21  25
ENDBRANCH   1  22
BRANCH   1  34
ATOM     34  C   UNL     1      34.579 -17.380 -24.193  0.00  0.00    -0.072 C 
BRANCH  34  35
ATOM     35  N   UNL     1      35.297 -17.006 -25.408  0.00  0.00    +0.381 N 
ATOM     36  H   UNL     1      35.598 -17.848 -25.898  0.00  0.00    -0.089 HD
ATOM     37  H   UNL     1      36.113 -16.446 -25.162  0.00  0.00    -0.089 HD
ATOM     38  H   UNL     1      34.681 -16.461 -26.012  0.00  0.00    -0.089 HD
ENDBRANCH  34  35
ENDBRANCH   1  34
TORSDOF 9
ENDMDL
