MODEL 1
REMARK VINA RESULT:     -12.4      0.000      0.000
REMARK  Name = 100472
REMARK  3 active torsions:
REMARK  status: ('A' for Active; 'I' for Inactive)
REMARK    1  A    between atoms: C_1  and  C_13
REMARK    2  A    between atoms: C_2  and  C_7
REMARK    3  A    between atoms: C_13  and  C_16
REMARK                            x       y       z     vdW  Elec       q    Type
REMARK                         _______ _______ _______ _____ _____    ______ ____
ROOT
ATOM      1  C   UNL     1      35.898 -19.537 -21.663  0.00  0.00    -0.013 C 
ATOM      2  C   UNL     1      35.085 -21.199 -19.574  0.00  0.00    -0.000 C 
ATOM      3  C   UNL     1      34.545 -19.830 -21.491  0.00  0.00    -0.004 C 
ATOM      4  C   UNL     1      36.845 -20.075 -20.790  0.00  0.00    -0.004 C 
ATOM      5  C   UNL     1      34.139 -20.661 -20.447  0.00  0.00    -0.000 C 
ATOM      6  C   UNL     1      36.438 -20.905 -19.746  0.00  0.00    -0.000 C 
ENDROOT
BRANCH   2   7
ATOM      7  C   UNL     1      34.664 -22.061 -18.491  0.00  0.00    -0.000 C 
ATOM      8  C   UNL     1      35.555 -22.382 -17.468  0.00  0.00    -0.000 C 
ATOM      9  C   UNL     1      33.366 -22.571 -18.472  0.00  0.00    -0.000 C 
ATOM     10  C   UNL     1      35.149 -23.212 -16.424  0.00  0.00    +0.000 C 
ATOM     11  C   UNL     1      32.959 -23.402 -17.428  0.00  0.00    +0.000 C 
ATOM     12  C   UNL     1      33.851 -23.722 -16.404  0.00  0.00    +0.000 C 
ENDBRANCH   2   7
BRANCH   1  13
ATOM     13  C   UNL     1      36.333 -18.648 -22.779  0.00  0.00    +0.112 C 
BRANCH  13  16
ATOM     14  O   UNL     1      35.284 -16.669 -21.888  0.00  0.00    -0.274 OA
ATOM     15  N   UNL     1      35.191 -17.077 -24.199  0.00  0.00    -0.269 N 
ATOM     16  C   UNL     1      35.542 -17.346 -22.879  0.00  0.00    +0.232 C 
ATOM     17  H   UNL     1      35.484 -17.736 -24.870  0.00  0.00    +0.156 HD
ATOM     18  N   UNL     1      34.229 -15.902 -26.012  0.00  0.00    -0.229 NA
ATOM     19  C   UNL     1      34.461 -15.969 -24.689  0.00  0.00    +0.134 C 
ATOM     20  C   UNL     1      34.045 -15.038 -23.761  0.00  0.00    +0.034 C 
ATOM     21  C   UNL     1      33.327 -13.944 -24.232  0.00  0.00    +0.004 C 
ATOM     22  C   UNL     1      33.061 -13.828 -25.592  0.00  0.00    +0.021 C 
ATOM     23  C   UNL     1      33.530 -14.824 -26.433  0.00  0.00    +0.100 C 
ENDBRANCH  13  16
ENDBRANCH   1  13
TORSDOF 3
ENDMDL
MODEL 2
REMARK VINA RESULT:     -12.3      2.238      3.738
REMARK  Name = 100472
REMARK  3 active torsions:
REMARK  status: ('A' for Active; 'I' for Inactive)
REMARK    1  A    between atoms: C_1  and  C_13
REMARK    2  A    between atoms: C_2  and  C_7
REMARK    3  A    between atoms: C_13  and  C_16
REMARK                            x       y       z     vdW  Elec       q    Type
REMARK                         _______ _______ _______ _____ _____    ______ ____
ROOT
ATOM      1  C   UNL     1      34.860 -17.333 -24.025  0.00  0.00    -0.013 C 
ATOM      2  C   UNL     1      35.027 -19.216 -21.973  0.00  0.00    -0.000 C 
ATOM      3  C   UNL     1      35.403 -16.974 -22.791  0.00  0.00    -0.004 C 
ATOM      4  C   UNL     1      34.401 -18.634 -24.233  0.00  0.00    -0.004 C 
ATOM      5  C   UNL     1      35.486 -17.915 -21.765  0.00  0.00    -0.000 C 
ATOM      6  C   UNL     1      34.484 -19.575 -23.207  0.00  0.00    -0.000 C 
ENDROOT
BRANCH   2   7
ATOM      7  C   UNL     1      35.113 -20.192 -20.908  0.00  0.00    -0.000 C 
ATOM      8  C   UNL     1      36.357 -20.565 -20.402  0.00  0.00    -0.000 C 
ATOM      9  C   UNL     1      33.950 -20.761 -20.389  0.00  0.00    -0.000 C 
ATOM     10  C   UNL     1      36.440 -21.506 -19.375  0.00  0.00    +0.000 C 
ATOM     11  C   UNL     1      34.032 -21.701 -19.362  0.00  0.00    +0.000 C 
ATOM     12  C   UNL     1      35.278 -22.073 -18.855  0.00  0.00    +0.000 C 
ENDBRANCH   2   7
BRANCH   1  13
ATOM     13  C   UNL     1      34.771 -16.327 -25.122  0.00  0.00    +0.112 C 
BRANCH  13  16
ATOM     14  O   UNL     1      33.787 -14.168 -25.547  0.00  0.00    -0.274 OA
ATOM     15  N   UNL     1      33.780 -15.024 -23.360  0.00  0.00    -0.269 N 
ATOM     16  C   UNL     1      34.057 -15.038 -24.725  0.00  0.00    +0.232 C 
ATOM     17  H   UNL     1      34.071 -15.813 -22.848  0.00  0.00    +0.156 HD
ATOM     18  N   UNL     1      32.964 -14.194 -21.301  0.00  0.00    -0.229 NA
ATOM     19  C   UNL     1      33.131 -14.005 -22.622  0.00  0.00    +0.134 C 
ATOM     20  C   UNL     1      32.716 -12.894 -23.325  0.00  0.00    +0.034 C 
ATOM     21  C   UNL     1      32.077 -11.889 -22.609  0.00  0.00    +0.004 C 
ATOM     22  C   UNL     1      31.879 -12.035 -21.241  0.00  0.00    +0.021 C 
ATOM     23  C   UNL     1      32.337 -13.196 -20.639  0.00  0.00    +0.100 C 
ENDBRANCH  13  16
ENDBRANCH   1  13
TORSDOF 3
ENDMDL
MODEL 3
REMARK VINA RESULT:     -12.2      2.593      8.917
REMARK  Name = 100472
REMARK  3 active torsions:
REMARK  status: ('A' for Active; 'I' for Inactive)
REMARK    1  A    between atoms: C_1  and  C_13
REMARK    2  A    between atoms: C_2  and  C_7
REMARK    3  A    between atoms: C_13  and  C_16
REMARK                            x       y       z     vdW  Elec       q    Type
REMARK                         _______ _______ _______ _____ _____    ______ ____
ROOT
ATOM      1  C   UNL     1      35.601 -18.665 -22.191  0.00  0.00    -0.013 C 
ATOM      2  C   UNL     1      34.736 -16.473 -23.687  0.00  0.00    -0.000 C 
ATOM      3  C   UNL     1      35.367 -18.802 -23.560  0.00  0.00    -0.004 C 
ATOM      4  C   UNL     1      35.403 -17.431 -21.571  0.00  0.00    -0.004 C 
ATOM      5  C   UNL     1      34.935 -17.707 -24.307  0.00  0.00    -0.000 C 
ATOM      6  C   UNL     1      34.971 -16.336 -22.318  0.00  0.00    -0.000 C 
ENDROOT
BRANCH   2   7
ATOM      7  C   UNL     1      34.287 -15.337 -24.462  0.00  0.00    -0.000 C 
ATOM      8  C   UNL     1      34.302 -14.061 -23.901  0.00  0.00    -0.000 C 
ATOM      9  C   UNL     1      33.840 -15.520 -25.770  0.00  0.00    -0.000 C 
ATOM     10  C   UNL     1      33.869 -12.965 -24.649  0.00  0.00    +0.000 C 
ATOM     11  C   UNL     1      33.408 -14.424 -26.519  0.00  0.00    +0.000 C 
ATOM     12  C   UNL     1      33.423 -13.147 -25.957  0.00  0.00    +0.000 C 
ENDBRANCH   2   7
BRANCH   1  13
ATOM     13  C   UNL     1      36.064 -19.836 -21.392  0.00  0.00    +0.112 C 
BRANCH  13  16
ATOM     14  O   UNL     1      33.773 -20.437 -20.942  0.00  0.00    -0.274 OA
ATOM     15  N   UNL     1      35.471 -21.248 -19.537  0.00  0.00    -0.269 N 
ATOM     16  C   UNL     1      34.951 -20.532 -20.612  0.00  0.00    +0.232 C 
ATOM     17  H   UNL     1      36.448 -21.212 -19.421  0.00  0.00    +0.156 HD
ATOM     18  N   UNL     1      35.460 -22.635 -17.621  0.00  0.00    -0.229 NA
ATOM     19  C   UNL     1      34.757 -22.019 -18.589  0.00  0.00    +0.134 C 
ATOM     20  C   UNL     1      33.388 -22.080 -18.738  0.00  0.00    +0.034 C 
ATOM     21  C   UNL     1      32.679 -22.836 -17.813  0.00  0.00    +0.004 C 
ATOM     22  C   UNL     1      33.357 -23.493 -16.792  0.00  0.00    +0.021 C 
ATOM     23  C   UNL     1      34.736 -23.362 -16.741  0.00  0.00    +0.100 C 
ENDBRANCH  13  16
ENDBRANCH   1  13
TORSDOF 3
ENDMDL
MODEL 4
REMARK VINA RESULT:     -12.2      2.380      8.636
REMARK  Name = 100472
REMARK  3 active torsions:
REMARK  status: ('A' for Active; 'I' for Inactive)
REMARK    1  A    between atoms: C_1  and  C_13
REMARK    2  A    between atoms: C_2  and  C_7
REMARK    3  A    between atoms: C_13  and  C_16
REMARK                            x       y       z     vdW  Elec       q    Type
REMARK                         _______ _______ _______ _____ _____    ______ ____
ROOT
ATOM      1  C   UNL     1      34.642 -16.414 -23.990  0.00  0.00    -0.013 C 
ATOM      2  C   UNL     1      33.559 -13.943 -23.277  0.00  0.00    -0.000 C 
ATOM      3  C   UNL     1      33.826 -15.724 -24.888  0.00  0.00    -0.004 C 
ATOM      4  C   UNL     1      34.917 -15.867 -22.736  0.00  0.00    -0.004 C 
ATOM      5  C   UNL     1      33.285 -14.489 -24.531  0.00  0.00    -0.000 C 
ATOM      6  C   UNL     1      34.376 -14.632 -22.380  0.00  0.00    -0.000 C 
ENDROOT
BRANCH   2   7
ATOM      7  C   UNL     1      32.998 -12.662 -22.907  0.00  0.00    -0.000 C 
ATOM      8  C   UNL     1      32.093 -12.576 -21.849  0.00  0.00    -0.000 C 
ATOM      9  C   UNL     1      33.361 -11.513 -23.609  0.00  0.00    -0.000 C 
ATOM     10  C   UNL     1      31.552 -11.341 -21.492  0.00  0.00    +0.000 C 
ATOM     11  C   UNL     1      32.821 -10.277 -23.252  0.00  0.00    +0.000 C 
ATOM     12  C   UNL     1      31.916 -10.192 -22.193  0.00  0.00    +0.000 C 
ENDBRANCH   2   7
BRANCH   1  13
ATOM     13  C   UNL     1      35.221 -17.734 -24.372  0.00  0.00    +0.112 C 
BRANCH  13  16
ATOM     14  O   UNL     1      36.872 -18.661 -22.879  0.00  0.00    -0.274 OA
ATOM     15  N   UNL     1      34.605 -19.178 -22.549  0.00  0.00    -0.269 N 
ATOM     16  C   UNL     1      35.686 -18.573 -23.184  0.00  0.00    +0.232 C 
ATOM     17  H   UNL     1      33.717 -18.996 -22.932  0.00  0.00    +0.156 HD
ATOM     18  N   UNL     1      33.465 -20.507 -20.959  0.00  0.00    -0.229 NA
ATOM     19  C   UNL     1      34.634 -20.026 -21.415  0.00  0.00    +0.134 C 
ATOM     20  C   UNL     1      35.871 -20.289 -20.866  0.00  0.00    +0.034 C 
ATOM     21  C   UNL     1      35.910 -21.119 -19.752  0.00  0.00    +0.004 C 
ATOM     22  C   UNL     1      34.728 -21.644 -19.240  0.00  0.00    +0.021 C 
ATOM     23  C   UNL     1      33.543 -21.310 -19.874  0.00  0.00    +0.100 C 
ENDBRANCH  13  16
ENDBRANCH   1  13
TORSDOF 3
ENDMDL
MODEL 5
REMARK VINA RESULT:     -12.1      4.118      9.313
REMARK  Name = 100472
REMARK  3 active torsions:
REMARK  status: ('A' for Active; 'I' for Inactive)
REMARK    1  A    between atoms: C_1  and  C_13
REMARK    2  A    between atoms: C_2  and  C_7
REMARK    3  A    between atoms: C_13  and  C_16
REMARK                            x       y       z     vdW  Elec       q    Type
REMARK                         _______ _______ _______ _____ _____    ______ ____
ROOT
ATOM      1  C   UNL     1      34.885 -21.541 -19.499  0.00  0.00    -0.013 C 
ATOM      2  C   UNL     1      34.908 -19.637 -21.538  0.00  0.00    -0.000 C 
ATOM      3  C   UNL     1      33.683 -21.081 -20.038  0.00  0.00    -0.004 C 
ATOM      4  C   UNL     1      36.098 -21.048 -19.979  0.00  0.00    -0.004 C 
ATOM      5  C   UNL     1      33.694 -20.130 -21.058  0.00  0.00    -0.000 C 
ATOM      6  C   UNL     1      36.110 -20.096 -20.999  0.00  0.00    -0.000 C 
ENDROOT
BRANCH   2   7
ATOM      7  C   UNL     1      34.920 -18.649 -22.595  0.00  0.00    -0.000 C 
ATOM      8  C   UNL     1      34.614 -19.023 -23.903  0.00  0.00    -0.000 C 
ATOM      9  C   UNL     1      35.238 -17.322 -22.306  0.00  0.00    -0.000 C 
ATOM     10  C   UNL     1      34.625 -18.070 -24.922  0.00  0.00    +0.000 C 
ATOM     11  C   UNL     1      35.249 -16.369 -23.324  0.00  0.00    +0.000 C 
ATOM     12  C   UNL     1      34.942 -16.744 -24.633  0.00  0.00    +0.000 C 
ENDBRANCH   2   7
BRANCH   1  13
ATOM     13  C   UNL     1      34.873 -22.559 -18.409  0.00  0.00    +0.112 C 
BRANCH  13  16
ATOM     14  O   UNL     1      32.463 -22.479 -18.396  0.00  0.00    -0.274 OA
ATOM     15  N   UNL     1      33.590 -23.443 -16.576  0.00  0.00    -0.269 N 
ATOM     16  C   UNL     1      33.490 -22.811 -17.812  0.00  0.00    +0.232 C 
ATOM     17  H   UNL     1      34.502 -23.636 -16.258  0.00  0.00    +0.156 HD
ATOM     18  N   UNL     1      32.854 -24.440 -14.561  0.00  0.00    -0.229 NA
ATOM     19  C   UNL     1      32.534 -23.840 -15.721  0.00  0.00    +0.134 C 
ATOM     20  C   UNL     1      31.251 -23.578 -16.154  0.00  0.00    +0.034 C 
ATOM     21  C   UNL     1      30.207 -23.964 -15.322  0.00  0.00    +0.004 C 
ATOM     22  C   UNL     1      30.484 -24.589 -14.111  0.00  0.00    +0.021 C 
ATOM     23  C   UNL     1      31.812 -24.803 -13.780  0.00  0.00    +0.100 C 
ENDBRANCH  13  16
ENDBRANCH   1  13
TORSDOF 3
ENDMDL
MODEL 6
REMARK VINA RESULT:     -11.9      2.674      8.757
REMARK  Name = 100472
REMARK  3 active torsions:
REMARK  status: ('A' for Active; 'I' for Inactive)
REMARK    1  A    between atoms: C_1  and  C_13
REMARK    2  A    between atoms: C_2  and  C_7
REMARK    3  A    between atoms: C_13  and  C_16
REMARK                            x       y       z     vdW  Elec       q    Type
REMARK                         _______ _______ _______ _____ _____    ______ ____
ROOT
ATOM      1  C   UNL     1      35.244 -16.945 -22.482  0.00  0.00    -0.013 C 
ATOM      2  C   UNL     1      33.898 -14.502 -22.391  0.00  0.00    -0.000 C 
ATOM      3  C   UNL     1      34.850 -16.410 -21.255  0.00  0.00    -0.004 C 
ATOM      4  C   UNL     1      34.964 -16.257 -23.664  0.00  0.00    -0.004 C 
ATOM      5  C   UNL     1      34.177 -15.189 -21.210  0.00  0.00    -0.000 C 
ATOM      6  C   UNL     1      34.291 -15.037 -23.618  0.00  0.00    -0.000 C 
ENDROOT
BRANCH   2   7
ATOM      7  C   UNL     1      33.200 -13.235 -22.344  0.00  0.00    -0.000 C 
ATOM      8  C   UNL     1      32.298 -12.973 -21.314  0.00  0.00    -0.000 C 
ATOM      9  C   UNL     1      33.430 -12.277 -23.331  0.00  0.00    -0.000 C 
ATOM     10  C   UNL     1      31.626 -11.752 -21.268  0.00  0.00    +0.000 C 
ATOM     11  C   UNL     1      32.759 -11.054 -23.285  0.00  0.00    +0.000 C 
ATOM     12  C   UNL     1      31.857 -10.793 -22.253  0.00  0.00    +0.000 C 
ENDBRANCH   2   7
BRANCH   1  13
ATOM     13  C   UNL     1      35.963 -18.250 -22.531  0.00  0.00    +0.112 C 
BRANCH  13  16
ATOM     14  O   UNL     1      34.174 -19.794 -22.055  0.00  0.00    -0.274 OA
ATOM     15  N   UNL     1      36.076 -19.780 -20.678  0.00  0.00    -0.269 N 
ATOM     16  C   UNL     1      35.280 -19.364 -21.742  0.00  0.00    +0.232 C 
ATOM     17  H   UNL     1      36.941 -19.320 -20.575  0.00  0.00    +0.156 HD
ATOM     18  N   UNL     1      36.702 -21.033 -18.772  0.00  0.00    -0.229 NA
ATOM     19  C   UNL     1      35.787 -20.787 -19.726  0.00  0.00    +0.134 C 
ATOM     20  C   UNL     1      34.581 -21.442 -19.858  0.00  0.00    +0.034 C 
ATOM     21  C   UNL     1      34.288 -22.433 -18.929  0.00  0.00    +0.004 C 
ATOM     22  C   UNL     1      35.201 -22.726 -17.922  0.00  0.00    +0.021 C 
ATOM     23  C   UNL     1      36.383 -22.004 -17.888  0.00  0.00    +0.100 C 
ENDBRANCH  13  16
ENDBRANCH   1  13
TORSDOF 3
ENDMDL
MODEL 7
REMARK VINA RESULT:     -11.8      3.884      8.617
REMARK  Name = 100472
REMARK  3 active torsions:
REMARK  status: ('A' for Active; 'I' for Inactive)
REMARK    1  A    between atoms: C_1  and  C_13
REMARK    2  A    between atoms: C_2  and  C_7
REMARK    3  A    between atoms: C_13  and  C_16
REMARK                            x       y       z     vdW  Elec       q    Type
REMARK                         _______ _______ _______ _____ _____    ______ ____
ROOT
ATOM      1  C   UNL     1      34.577 -21.813 -19.829  0.00  0.00    -0.013 C 
ATOM      2  C   UNL     1      34.769 -19.360 -21.145  0.00  0.00    -0.000 C 
ATOM      3  C   UNL     1      33.420 -21.132 -20.207  0.00  0.00    -0.004 C 
ATOM      4  C   UNL     1      35.830 -21.268 -20.109  0.00  0.00    -0.004 C 
ATOM      5  C   UNL     1      33.516 -19.906 -20.865  0.00  0.00    -0.000 C 
ATOM      6  C   UNL     1      35.926 -20.042 -20.767  0.00  0.00    -0.000 C 
ENDROOT
BRANCH   2   7
ATOM      7  C   UNL     1      34.869 -18.088 -21.827  0.00  0.00    -0.000 C 
ATOM      8  C   UNL     1      34.804 -16.900 -21.100  0.00  0.00    -0.000 C 
ATOM      9  C   UNL     1      35.029 -18.051 -23.212  0.00  0.00    -0.000 C 
ATOM     10  C   UNL     1      34.901 -15.673 -21.757  0.00  0.00    +0.000 C 
ATOM     11  C   UNL     1      35.126 -16.824 -23.870  0.00  0.00    +0.000 C 
ATOM     12  C   UNL     1      35.062 -15.636 -23.142  0.00  0.00    +0.000 C 
ENDBRANCH   2   7
BRANCH   1  13
ATOM     13  C   UNL     1      34.475 -23.124 -19.126  0.00  0.00    +0.112 C 
BRANCH  13  16
ATOM     14  O   UNL     1      34.410 -23.071 -16.717  0.00  0.00    -0.274 OA
ATOM     15  N   UNL     1      32.399 -22.950 -17.923  0.00  0.00    -0.269 N 
ATOM     16  C   UNL     1      33.779 -23.047 -17.769  0.00  0.00    +0.232 C 
ATOM     17  H   UNL     1      32.063 -22.945 -18.849  0.00  0.00    +0.156 HD
ATOM     18  N   UNL     1      30.131 -22.772 -17.274  0.00  0.00    -0.229 NA
ATOM     19  C   UNL     1      31.421 -22.858 -16.904  0.00  0.00    +0.134 C 
ATOM     20  C   UNL     1      31.876 -22.861 -15.602  0.00  0.00    +0.034 C 
ATOM     21  C   UNL     1      30.924 -22.770 -14.594  0.00  0.00    +0.004 C 
ATOM     22  C   UNL     1      29.576 -22.678 -14.923  0.00  0.00    +0.021 C 
ATOM     23  C   UNL     1      29.235 -22.683 -16.266  0.00  0.00    +0.100 C 
ENDBRANCH  13  16
ENDBRANCH   1  13
TORSDOF 3
ENDMDL
MODEL 8
REMARK VINA RESULT:     -11.7      2.878      4.548
REMARK  Name = 100472
REMARK  3 active torsions:
REMARK  status: ('A' for Active; 'I' for Inactive)
REMARK    1  A    between atoms: C_1  and  C_13
REMARK    2  A    between atoms: C_2  and  C_7
REMARK    3  A    between atoms: C_13  and  C_16
REMARK                            x       y       z     vdW  Elec       q    Type
REMARK                         _______ _______ _______ _____ _____    ______ ____
ROOT
ATOM      1  C   UNL     1      34.809 -16.021 -23.195  0.00  0.00    -0.013 C 
ATOM      2  C   UNL     1      35.010 -18.402 -21.754  0.00  0.00    -0.000 C 
ATOM      3  C   UNL     1      34.929 -15.988 -21.805  0.00  0.00    -0.004 C 
ATOM      4  C   UNL     1      34.790 -17.245 -23.864  0.00  0.00    -0.004 C 
ATOM      5  C   UNL     1      35.029 -17.178 -21.085  0.00  0.00    -0.000 C 
ATOM      6  C   UNL     1      34.891 -18.435 -23.144  0.00  0.00    -0.000 C 
ENDROOT
BRANCH   2   7
ATOM      7  C   UNL     1      35.113 -19.637 -21.007  0.00  0.00    -0.000 C 
ATOM      8  C   UNL     1      33.960 -20.337 -20.654  0.00  0.00    -0.000 C 
ATOM      9  C   UNL     1      36.367 -20.127 -20.642  0.00  0.00    -0.000 C 
ATOM     10  C   UNL     1      34.060 -21.528 -19.934  0.00  0.00    +0.000 C 
ATOM     11  C   UNL     1      36.467 -21.318 -19.922  0.00  0.00    +0.000 C 
ATOM     12  C   UNL     1      35.313 -22.018 -19.569  0.00  0.00    +0.000 C 
ENDBRANCH   2   7
BRANCH   1  13
ATOM     13  C   UNL     1      34.702 -14.748 -23.965  0.00  0.00    +0.112 C 
BRANCH  13  16
ATOM     14  O   UNL     1      32.654 -14.166 -22.836  0.00  0.00    -0.274 OA
ATOM     15  N   UNL     1      34.039 -12.456 -23.657  0.00  0.00    -0.269 N 
ATOM     16  C   UNL     1      33.664 -13.775 -23.412  0.00  0.00    +0.232 C 
ATOM     17  H   UNL     1      34.889 -12.327 -24.136  0.00  0.00    +0.156 HD
ATOM     18  N   UNL     1      33.883 -10.096 -23.633  0.00  0.00    -0.229 NA
ATOM     19  C   UNL     1      33.339 -11.280 -23.297  0.00  0.00    +0.134 C 
ATOM     20  C   UNL     1      32.148 -11.445 -22.623  0.00  0.00    +0.034 C 
ATOM     21  C   UNL     1      31.454 -10.295 -22.264  0.00  0.00    +0.004 C 
ATOM     22  C   UNL     1      31.973  -9.046 -22.588  0.00  0.00    +0.021 C 
ATOM     23  C   UNL     1      33.180  -9.002 -23.266  0.00  0.00    +0.100 C 
ENDBRANCH  13  16
ENDBRANCH   1  13
TORSDOF 3
ENDMDL
MODEL 9
REMARK VINA RESULT:     -11.6      4.367      9.629
REMARK  Name = 100472
REMARK  3 active torsions:
REMARK  status: ('A' for Active; 'I' for Inactive)
REMARK    1  A    between atoms: C_1  and  C_13
REMARK    2  A    between atoms: C_2  and  C_7
REMARK    3  A    between atoms: C_13  and  C_16
REMARK                            x       y       z     vdW  Elec       q    Type
REMARK                         _______ _______ _______ _____ _____    ______ ____
ROOT
ATOM      1  C   UNL     1      34.246 -22.018 -19.100  0.00  0.00    -0.013 C 
ATOM      2  C   UNL     1      34.619 -20.052 -21.045  0.00  0.00    -0.000 C 
ATOM      3  C   UNL     1      33.150 -21.310 -19.596  0.00  0.00    -0.004 C 
ATOM      4  C   UNL     1      35.528 -21.742 -19.577  0.00  0.00    -0.004 C 
ATOM      5  C   UNL     1      33.337 -20.327 -20.568  0.00  0.00    -0.000 C 
ATOM      6  C   UNL     1      35.714 -20.760 -20.549  0.00  0.00    -0.000 C 
ENDROOT
BRANCH   2   7
ATOM      7  C   UNL     1      34.813 -19.032 -22.053  0.00  0.00    -0.000 C 
ATOM      8  C   UNL     1      35.107 -17.723 -21.674  0.00  0.00    -0.000 C 
ATOM      9  C   UNL     1      34.705 -19.359 -23.404  0.00  0.00    -0.000 C 
ATOM     10  C   UNL     1      35.294 -16.740 -22.646  0.00  0.00    +0.000 C 
ATOM     11  C   UNL     1      34.893 -18.377 -24.377  0.00  0.00    +0.000 C 
ATOM     12  C   UNL     1      35.187 -17.067 -23.997  0.00  0.00    +0.000 C 
ENDBRANCH   2   7
BRANCH   1  13
ATOM     13  C   UNL     1      34.046 -23.068 -18.061  0.00  0.00    +0.112 C 
BRANCH  13  16
ATOM     14  O   UNL     1      36.208 -22.596 -17.104  0.00  0.00    -0.274 OA
ATOM     15  N   UNL     1      34.527 -23.517 -15.747  0.00  0.00    -0.269 N 
ATOM     16  C   UNL     1      35.071 -23.024 -16.930  0.00  0.00    +0.232 C 
ATOM     17  H   UNL     1      33.591 -23.820 -15.791  0.00  0.00    +0.156 HD
ATOM     18  N   UNL     1      34.450 -24.142 -13.467  0.00  0.00    -0.229 NA
ATOM     19  C   UNL     1      35.163 -23.635 -14.488  0.00  0.00    +0.134 C 
ATOM     20  C   UNL     1      36.473 -23.212 -14.410  0.00  0.00    +0.034 C 
ATOM     21  C   UNL     1      37.107 -23.323 -13.178  0.00  0.00    +0.004 C 
ATOM     22  C   UNL     1      36.414 -23.841 -12.090  0.00  0.00    +0.021 C 
ATOM     23  C   UNL     1      35.099 -24.233 -12.285  0.00  0.00    +0.100 C 
ENDBRANCH  13  16
ENDBRANCH   1  13
TORSDOF 3
ENDMDL
