MODEL 1
REMARK VINA RESULT:     -13.7      0.000      0.000
REMARK  Name = 25195365
REMARK  5 active torsions:
REMARK  status: ('A' for Active; 'I' for Inactive)
REMARK    1  A    between atoms: C_1  and  C_3
REMARK    2  A    between atoms: C_1  and  C_17
REMARK    3  A    between atoms: C_4  and  C_9
REMARK    4  A    between atoms: C_6  and  O_15
REMARK    5  A    between atoms: C_18  and  C_23
REMARK                            x       y       z     vdW  Elec       q    Type
REMARK                         _______ _______ _______ _____ _____    ______ ____
ROOT
ATOM      1  C   UNL     1      35.645 -18.285 -23.190  0.00  0.00    +0.086 C 
ATOM      2  C   UNL     1      35.338 -18.932 -24.554  0.00  0.00    +0.019 C 
ENDROOT
BRANCH   1   3
ATOM      3  C   UNL     1      34.989 -16.957 -23.019  0.00  0.00    -0.007 C 
ATOM      4  C   UNL     1      33.761 -14.473 -22.696  0.00  0.00    +0.034 C 
ATOM      5  C   UNL     1      34.452 -16.296 -24.123  0.00  0.00    +0.034 C 
ATOM      6  C   UNL     1      33.838 -15.054 -23.962  0.00  0.00    +0.138 C 
ATOM      7  C   UNL     1      34.912 -16.376 -21.753  0.00  0.00    -0.003 C 
ATOM      8  C   UNL     1      34.298 -15.134 -21.592  0.00  0.00    +0.003 C 
BRANCH   4   9
ATOM      9  C   UNL     1      33.130 -13.185 -22.507  0.00  0.00    +0.003 C 
ATOM     10  C   UNL     1      33.442 -12.123 -23.358  0.00  0.00    +0.000 C 
ATOM     11  C   UNL     1      32.209 -13.003 -21.475  0.00  0.00    +0.000 C 
ATOM     12  C   UNL     1      32.833 -10.882 -23.176  0.00  0.00    +0.000 C 
ATOM     13  C   UNL     1      31.600 -11.761 -21.294  0.00  0.00    +0.000 C 
ATOM     14  C   UNL     1      31.913 -10.701 -22.144  0.00  0.00    +0.000 C 
ENDBRANCH   4   9
BRANCH   6  15
ATOM     15  O   UNL     1      33.320 -14.430 -25.059  0.00  0.00    -0.471 OA
ATOM     16  C   UNL     1      33.196 -15.209 -26.247  0.00  0.00    +0.252 C 
ENDBRANCH   6  15
ENDBRANCH   1   3
BRANCH   1  17
ATOM     17  C   UNL     1      35.291 -19.233 -22.101  0.00  0.00    -0.087 C 
ATOM     18  C   UNL     1      34.986 -20.004 -21.232  0.00  0.00    -0.076 C 
BRANCH  18  23
ATOM     19  N   UNL     1      35.268 -22.447 -18.452  0.00  0.00    -0.336 NA
ATOM     20  N   UNL     1      32.935 -22.097 -18.944  0.00  0.00    -0.317 NA
ATOM     21  N   UNL     1      32.277 -20.608 -20.660  0.00  0.00    -0.334 N 
ATOM     22  N   UNL     1      33.601 -23.572 -17.244  0.00  0.00    -0.283 N 
ATOM     23  C   UNL     1      34.620 -20.927 -20.202  0.00  0.00    +0.179 C 
ATOM     24  C   UNL     1      35.567 -21.570 -19.433  0.00  0.00    +0.120 C 
ATOM     25  C   UNL     1      33.307 -21.232 -19.910  0.00  0.00    +0.186 C 
ATOM     26  C   UNL     1      37.027 -21.328 -19.649  0.00  0.00    +0.064 C 
ATOM     27  C   UNL     1      33.952 -22.660 -18.264  0.00  0.00    +0.196 C 
ATOM     28  H   UNL     1      31.334 -20.814 -20.466  0.00  0.00    +0.144 HD
ATOM     29  H   UNL     1      32.506 -19.970 -21.374  0.00  0.00    +0.144 HD
ATOM     30  H   UNL     1      34.304 -24.013 -16.715  0.00  0.00    +0.156 HD
ATOM     31  H   UNL     1      32.653 -23.766 -17.062  0.00  0.00    +0.156 HD
ENDBRANCH  18  23
ENDBRANCH   1  17
TORSDOF 5
ENDMDL
MODEL 2
REMARK VINA RESULT:     -12.7      4.290      7.043
REMARK  Name = 25195365
REMARK  5 active torsions:
REMARK  status: ('A' for Active; 'I' for Inactive)
REMARK    1  A    between atoms: C_1  and  C_3
REMARK    2  A    between atoms: C_1  and  C_17
REMARK    3  A    between atoms: C_4  and  C_9
REMARK    4  A    between atoms: C_6  and  O_15
REMARK    5  A    between atoms: C_18  and  C_23
REMARK                            x       y       z     vdW  Elec       q    Type
REMARK                         _______ _______ _______ _____ _____    ______ ____
ROOT
ATOM      1  C   UNL     1      33.068 -23.147 -17.841  0.00  0.00    +0.086 C 
ATOM      2  C   UNL     1      31.683 -22.833 -17.243  0.00  0.00    +0.019 C 
ENDROOT
BRANCH   1   3
ATOM      3  C   UNL     1      33.502 -22.140 -18.852  0.00  0.00    -0.007 C 
ATOM      4  C   UNL     1      34.313 -20.258 -20.744  0.00  0.00    +0.034 C 
ATOM      5  C   UNL     1      34.852 -22.021 -19.183  0.00  0.00    +0.034 C 
ATOM      6  C   UNL     1      35.258 -21.080 -20.129  0.00  0.00    +0.138 C 
ATOM      7  C   UNL     1      32.558 -21.318 -19.467  0.00  0.00    -0.003 C 
ATOM      8  C   UNL     1      32.963 -20.377 -20.413  0.00  0.00    +0.003 C 
BRANCH   4   9
ATOM      9  C   UNL     1      34.713 -19.275 -21.728  0.00  0.00    +0.003 C 
ATOM     10  C   UNL     1      34.822 -19.635 -23.071  0.00  0.00    +0.000 C 
ATOM     11  C   UNL     1      34.989 -17.965 -21.333  0.00  0.00    +0.000 C 
ATOM     12  C   UNL     1      35.206 -18.687 -24.019  0.00  0.00    +0.000 C 
ATOM     13  C   UNL     1      35.374 -17.017 -22.281  0.00  0.00    +0.000 C 
ATOM     14  C   UNL     1      35.482 -17.379 -23.624  0.00  0.00    +0.000 C 
ENDBRANCH   4   9
BRANCH   6  15
ATOM     15  O   UNL     1      36.583 -20.986 -20.435  0.00  0.00    -0.471 OA
ATOM     16  C   UNL     1      37.382 -20.149 -19.601  0.00  0.00    +0.252 C 
ENDBRANCH   6  15
ENDBRANCH   1   3
BRANCH   1  17
ATOM     17  C   UNL     1      34.057 -23.306 -16.744  0.00  0.00    -0.087 C 
ATOM     18  C   UNL     1      34.841 -23.431 -15.841  0.00  0.00    -0.076 C 
BRANCH  18  23
ATOM     19  N   UNL     1      37.985 -23.279 -13.876  0.00  0.00    -0.336 NA
ATOM     20  N   UNL     1      36.276 -24.313 -12.527  0.00  0.00    -0.317 NA
ATOM     21  N   UNL     1      34.092 -24.620 -13.380  0.00  0.00    -0.334 N 
ATOM     22  N   UNL     1      38.448 -24.002 -11.692  0.00  0.00    -0.283 N 
ATOM     23  C   UNL     1      35.768 -23.583 -14.763  0.00  0.00    +0.179 C 
ATOM     24  C   UNL     1      37.077 -23.157 -14.866  0.00  0.00    +0.120 C 
ATOM     25  C   UNL     1      35.421 -24.159 -13.559  0.00  0.00    +0.186 C 
ATOM     26  C   UNL     1      37.581 -22.517 -16.120  0.00  0.00    +0.064 C 
ATOM     27  C   UNL     1      37.524 -23.857 -12.751  0.00  0.00    +0.196 C 
ATOM     28  H   UNL     1      33.825 -25.034 -12.528  0.00  0.00    +0.144 HD
ATOM     29  H   UNL     1      33.437 -24.527 -14.109  0.00  0.00    +0.144 HD
ATOM     30  H   UNL     1      39.373 -23.686 -11.801  0.00  0.00    +0.156 HD
ATOM     31  H   UNL     1      38.165 -24.417 -10.846  0.00  0.00    +0.156 HD
ENDBRANCH  18  23
ENDBRANCH   1  17
TORSDOF 5
ENDMDL
MODEL 3
REMARK VINA RESULT:     -12.5      4.718      8.290
REMARK  Name = 25195365
REMARK  5 active torsions:
REMARK  status: ('A' for Active; 'I' for Inactive)
REMARK    1  A    between atoms: C_1  and  C_3
REMARK    2  A    between atoms: C_1  and  C_17
REMARK    3  A    between atoms: C_4  and  C_9
REMARK    4  A    between atoms: C_6  and  O_15
REMARK    5  A    between atoms: C_18  and  C_23
REMARK                            x       y       z     vdW  Elec       q    Type
REMARK                         _______ _______ _______ _____ _____    ______ ____
ROOT
ATOM      1  C   UNL     1      31.353 -10.659 -20.669  0.00  0.00    +0.086 C 
ATOM      2  C   UNL     1      31.670 -10.397 -19.184  0.00  0.00    +0.019 C 
ENDROOT
BRANCH   1   3
ATOM      3  C   UNL     1      31.573  -9.460 -21.528  0.00  0.00    -0.007 C 
ATOM      4  C   UNL     1      31.984  -7.218 -23.135  0.00  0.00    +0.034 C 
ATOM      5  C   UNL     1      31.937  -8.244 -20.949  0.00  0.00    +0.034 C 
ATOM      6  C   UNL     1      32.142  -7.122 -21.753  0.00  0.00    +0.138 C 
ATOM      7  C   UNL     1      31.415  -9.554 -22.911  0.00  0.00    -0.003 C 
ATOM      8  C   UNL     1      31.621  -8.434 -23.714  0.00  0.00    +0.003 C 
BRANCH   4   9
ATOM      9  C   UNL     1      32.192  -6.066 -23.987  0.00  0.00    +0.003 C 
ATOM     10  C   UNL     1      33.345  -5.975 -24.768  0.00  0.00    +0.000 C 
ATOM     11  C   UNL     1      31.239  -5.048 -24.029  0.00  0.00    +0.000 C 
ATOM     12  C   UNL     1      33.544  -4.866 -25.590  0.00  0.00    +0.000 C 
ATOM     13  C   UNL     1      31.440  -3.938 -24.850  0.00  0.00    +0.000 C 
ATOM     14  C   UNL     1      32.592  -3.848 -25.630  0.00  0.00    +0.000 C 
ENDBRANCH   4   9
BRANCH   6  15
ATOM     15  O   UNL     1      32.498  -5.947 -21.161  0.00  0.00    -0.471 OA
ATOM     16  C   UNL     1      32.416  -5.888 -19.738  0.00  0.00    +0.252 C 
ENDBRANCH   6  15
ENDBRANCH   1   3
BRANCH   1  17
ATOM     17  C   UNL     1      32.125 -11.838 -21.140  0.00  0.00    -0.087 C 
ATOM     18  C   UNL     1      32.765 -12.777 -21.531  0.00  0.00    -0.076 C 
BRANCH  18  23
ATOM     19  N   UNL     1      34.234 -16.180 -21.735  0.00  0.00    -0.336 NA
ATOM     20  N   UNL     1      35.053 -14.868 -23.584  0.00  0.00    -0.317 NA
ATOM     21  N   UNL     1      34.377 -12.618 -23.857  0.00  0.00    -0.334 N 
ATOM     22  N   UNL     1      35.717 -17.102 -23.302  0.00  0.00    -0.283 N 
ATOM     23  C   UNL     1      33.532 -13.891 -21.995  0.00  0.00    +0.179 C 
ATOM     24  C   UNL     1      33.527 -15.103 -21.334  0.00  0.00    +0.120 C 
ATOM     25  C   UNL     1      34.321 -13.832 -23.125  0.00  0.00    +0.186 C 
ATOM     26  C   UNL     1      32.713 -15.299 -20.095  0.00  0.00    +0.064 C 
ATOM     27  C   UNL     1      34.964 -15.995 -22.851  0.00  0.00    +0.196 C 
ATOM     28  H   UNL     1      34.934 -12.557 -24.666  0.00  0.00    +0.144 HD
ATOM     29  H   UNL     1      33.857 -11.839 -23.555  0.00  0.00    +0.144 HD
ATOM     30  H   UNL     1      35.690 -17.950 -22.805  0.00  0.00    +0.156 HD
ATOM     31  H   UNL     1      36.270 -17.023 -24.113  0.00  0.00    +0.156 HD
ENDBRANCH  18  23
ENDBRANCH   1  17
TORSDOF 5
ENDMDL
MODEL 4
REMARK VINA RESULT:     -12.3      1.058      2.023
REMARK  Name = 25195365
REMARK  5 active torsions:
REMARK  status: ('A' for Active; 'I' for Inactive)
REMARK    1  A    between atoms: C_1  and  C_3
REMARK    2  A    between atoms: C_1  and  C_17
REMARK    3  A    between atoms: C_4  and  C_9
REMARK    4  A    between atoms: C_6  and  O_15
REMARK    5  A    between atoms: C_18  and  C_23
REMARK                            x       y       z     vdW  Elec       q    Type
REMARK                         _______ _______ _______ _____ _____    ______ ____
ROOT
ATOM      1  C   UNL     1      35.547 -18.652 -23.562  0.00  0.00    +0.086 C 
ATOM      2  C   UNL     1      35.084 -19.372 -24.842  0.00  0.00    +0.019 C 
ENDROOT
BRANCH   1   3
ATOM      3  C   UNL     1      35.014 -17.263 -23.455  0.00  0.00    -0.007 C 
ATOM      4  C   UNL     1      34.017 -14.666 -23.256  0.00  0.00    +0.034 C 
ATOM      5  C   UNL     1      34.881 -16.661 -22.203  0.00  0.00    +0.034 C 
ATOM      6  C   UNL     1      34.382 -15.362 -22.104  0.00  0.00    +0.138 C 
ATOM      7  C   UNL     1      34.648 -16.566 -24.606  0.00  0.00    -0.003 C 
ATOM      8  C   UNL     1      34.150 -15.267 -24.507  0.00  0.00    +0.003 C 
BRANCH   4   9
ATOM      9  C   UNL     1      33.497 -13.318 -23.175  0.00  0.00    +0.003 C 
ATOM     10  C   UNL     1      32.381 -13.047 -22.382  0.00  0.00    +0.000 C 
ATOM     11  C   UNL     1      34.111 -12.288 -23.888  0.00  0.00    +0.000 C 
ATOM     12  C   UNL     1      31.880 -11.748 -22.304  0.00  0.00    +0.000 C 
ATOM     13  C   UNL     1      33.610 -10.989 -23.810  0.00  0.00    +0.000 C 
ATOM     14  C   UNL     1      32.494 -10.719 -23.017  0.00  0.00    +0.000 C 
ENDBRANCH   4   9
BRANCH   6  15
ATOM     15  O   UNL     1      34.263 -14.798 -20.868  0.00  0.00    -0.471 OA
ATOM     16  C   UNL     1      33.094 -15.120 -20.119  0.00  0.00    +0.252 C 
ENDBRANCH   6  15
ENDBRANCH   1   3
BRANCH   1  17
ATOM     17  C   UNL     1      35.205 -19.479 -22.376  0.00  0.00    -0.087 C 
ATOM     18  C   UNL     1      34.929 -20.167 -21.430  0.00  0.00    -0.076 C 
BRANCH  18  23
ATOM     19  N   UNL     1      35.321 -22.328 -18.438  0.00  0.00    -0.336 NA
ATOM     20  N   UNL     1      32.971 -22.058 -18.898  0.00  0.00    -0.317 NA
ATOM     21  N   UNL     1      32.245 -20.749 -20.729  0.00  0.00    -0.334 N 
ATOM     22  N   UNL     1      33.704 -23.354 -17.083  0.00  0.00    -0.283 N 
ATOM     23  C   UNL     1      34.604 -20.991 -20.307  0.00  0.00    +0.179 C 
ATOM     24  C   UNL     1      35.581 -21.546 -19.506  0.00  0.00    +0.120 C 
ATOM     25  C   UNL     1      33.304 -21.284 -19.951  0.00  0.00    +0.186 C 
ATOM     26  C   UNL     1      37.031 -21.306 -19.784  0.00  0.00    +0.064 C 
ATOM     27  C   UNL     1      34.014 -22.539 -18.195  0.00  0.00    +0.196 C 
ATOM     28  H   UNL     1      31.311 -20.947 -20.491  0.00  0.00    +0.144 HD
ATOM     29  H   UNL     1      32.446 -20.179 -21.507  0.00  0.00    +0.144 HD
ATOM     30  H   UNL     1      34.426 -23.732 -16.534  0.00  0.00    +0.156 HD
ATOM     31  H   UNL     1      32.763 -23.541 -16.858  0.00  0.00    +0.156 HD
ENDBRANCH  18  23
ENDBRANCH   1  17
TORSDOF 5
ENDMDL
MODEL 5
REMARK VINA RESULT:     -12.2      4.652      8.262
REMARK  Name = 25195365
REMARK  5 active torsions:
REMARK  status: ('A' for Active; 'I' for Inactive)
REMARK    1  A    between atoms: C_1  and  C_3
REMARK    2  A    between atoms: C_1  and  C_17
REMARK    3  A    between atoms: C_4  and  C_9
REMARK    4  A    between atoms: C_6  and  O_15
REMARK    5  A    between atoms: C_18  and  C_23
REMARK                            x       y       z     vdW  Elec       q    Type
REMARK                         _______ _______ _______ _____ _____    ______ ____
ROOT
ATOM      1  C   UNL     1      31.364 -10.729 -20.679  0.00  0.00    +0.086 C 
ATOM      2  C   UNL     1      31.685 -10.482 -19.192  0.00  0.00    +0.019 C 
ENDROOT
BRANCH   1   3
ATOM      3  C   UNL     1      31.577  -9.520 -21.525  0.00  0.00    -0.007 C 
ATOM      4  C   UNL     1      31.975  -7.259 -23.110  0.00  0.00    +0.034 C 
ATOM      5  C   UNL     1      31.984  -8.321 -20.940  0.00  0.00    +0.034 C 
ATOM      6  C   UNL     1      32.183  -7.190 -21.732  0.00  0.00    +0.138 C 
ATOM      7  C   UNL     1      31.369  -9.588 -22.903  0.00  0.00    -0.003 C 
ATOM      8  C   UNL     1      31.568  -8.458 -23.695  0.00  0.00    +0.003 C 
BRANCH   4   9
ATOM      9  C   UNL     1      32.175  -6.098 -23.950  0.00  0.00    +0.003 C 
ATOM     10  C   UNL     1      33.326  -5.991 -24.730  0.00  0.00    +0.000 C 
ATOM     11  C   UNL     1      31.216  -5.085 -23.980  0.00  0.00    +0.000 C 
ATOM     12  C   UNL     1      33.519  -4.873 -25.541  0.00  0.00    +0.000 C 
ATOM     13  C   UNL     1      31.409  -3.966 -24.790  0.00  0.00    +0.000 C 
ATOM     14  C   UNL     1      32.560  -3.860 -25.570  0.00  0.00    +0.000 C 
ENDBRANCH   4   9
BRANCH   6  15
ATOM     15  O   UNL     1      32.582  -6.032 -21.134  0.00  0.00    -0.471 OA
ATOM     16  C   UNL     1      32.380  -5.927 -19.726  0.00  0.00    +0.252 C 
ENDBRANCH   6  15
ENDBRANCH   1   3
BRANCH   1  17
ATOM     17  C   UNL     1      32.139 -11.901 -21.165  0.00  0.00    -0.087 C 
ATOM     18  C   UNL     1      32.780 -12.833 -21.569  0.00  0.00    -0.076 C 
BRANCH  18  23
ATOM     19  N   UNL     1      34.957 -14.907 -23.744  0.00  0.00    -0.336 NA
ATOM     20  N   UNL     1      34.387 -16.179 -21.778  0.00  0.00    -0.317 NA
ATOM     21  N   UNL     1      33.004 -15.247 -20.101  0.00  0.00    -0.334 N 
ATOM     22  N   UNL     1      35.759 -17.093 -23.449  0.00  0.00    -0.283 N 
ATOM     23  C   UNL     1      33.548 -13.940 -22.049  0.00  0.00    +0.179 C 
ATOM     24  C   UNL     1      34.221 -13.889 -23.252  0.00  0.00    +0.120 C 
ATOM     25  C   UNL     1      33.669 -15.122 -21.348  0.00  0.00    +0.186 C 
ATOM     26  C   UNL     1      34.171 -12.665 -24.110  0.00  0.00    +0.064 C 
ATOM     27  C   UNL     1      34.996 -16.006 -22.966  0.00  0.00    +0.196 C 
ATOM     28  H   UNL     1      33.078 -16.083 -19.586  0.00  0.00    +0.144 HD
ATOM     29  H   UNL     1      32.469 -14.498 -19.751  0.00  0.00    +0.144 HD
ATOM     30  H   UNL     1      36.225 -17.021 -24.312  0.00  0.00    +0.156 HD
ATOM     31  H   UNL     1      35.823 -17.921 -22.921  0.00  0.00    +0.156 HD
ENDBRANCH  18  23
ENDBRANCH   1  17
TORSDOF 5
ENDMDL
MODEL 6
REMARK VINA RESULT:     -12.0      1.874      3.161
REMARK  Name = 25195365
REMARK  5 active torsions:
REMARK  status: ('A' for Active; 'I' for Inactive)
REMARK    1  A    between atoms: C_1  and  C_3
REMARK    2  A    between atoms: C_1  and  C_17
REMARK    3  A    between atoms: C_4  and  C_9
REMARK    4  A    between atoms: C_6  and  O_15
REMARK    5  A    between atoms: C_18  and  C_23
REMARK                            x       y       z     vdW  Elec       q    Type
REMARK                         _______ _______ _______ _____ _____    ______ ____
ROOT
ATOM      1  C   UNL     1      34.784 -16.981 -24.506  0.00  0.00    +0.086 C 
ATOM      2  C   UNL     1      33.856 -17.712 -25.495  0.00  0.00    +0.019 C 
ENDROOT
BRANCH   1   3
ATOM      3  C   UNL     1      34.237 -15.666 -24.064  0.00  0.00    -0.007 C 
ATOM      4  C   UNL     1      33.215 -13.205 -23.239  0.00  0.00    +0.034 C 
ATOM      5  C   UNL     1      34.022 -15.419 -22.708  0.00  0.00    +0.034 C 
ATOM      6  C   UNL     1      33.511 -14.189 -22.295  0.00  0.00    +0.138 C 
ATOM      7  C   UNL     1      33.940 -14.682 -25.007  0.00  0.00    -0.003 C 
ATOM      8  C   UNL     1      33.430 -13.452 -24.595  0.00  0.00    +0.003 C 
BRANCH   4   9
ATOM      9  C   UNL     1      32.683 -11.922 -22.833  0.00  0.00    +0.003 C 
ATOM     10  C   UNL     1      31.683 -11.858 -21.861  0.00  0.00    +0.000 C 
ATOM     11  C   UNL     1      33.169 -10.750 -23.411  0.00  0.00    +0.000 C 
ATOM     12  C   UNL     1      31.171 -10.622 -21.469  0.00  0.00    +0.000 C 
ATOM     13  C   UNL     1      32.656  -9.513 -23.019  0.00  0.00    +0.000 C 
ATOM     14  C   UNL     1      31.657  -9.450 -22.048  0.00  0.00    +0.000 C 
ENDBRANCH   4   9
BRANCH   6  15
ATOM     15  O   UNL     1      33.312 -13.974 -20.964  0.00  0.00    -0.471 OA
ATOM     16  C   UNL     1      32.603 -14.981 -20.245  0.00  0.00    +0.252 C 
ENDBRANCH   6  15
ENDBRANCH   1   3
BRANCH   1  17
ATOM     17  C   UNL     1      35.092 -17.876 -23.361  0.00  0.00    -0.087 C 
ATOM     18  C   UNL     1      35.363 -18.600 -22.441  0.00  0.00    -0.076 C 
BRANCH  18  23
ATOM     19  N   UNL     1      35.001 -21.053 -19.679  0.00  0.00    -0.336 NA
ATOM     20  N   UNL     1      37.310 -20.374 -19.816  0.00  0.00    -0.317 NA
ATOM     21  N   UNL     1      38.008 -18.808 -21.445  0.00  0.00    -0.334 N 
ATOM     22  N   UNL     1      36.604 -21.927 -18.205  0.00  0.00    -0.283 N 
ATOM     23  C   UNL     1      35.692 -19.458 -21.345  0.00  0.00    +0.179 C 
ATOM     24  C   UNL     1      34.737 -20.230 -20.715  0.00  0.00    +0.120 C 
ATOM     25  C   UNL     1      36.974 -19.572 -20.848  0.00  0.00    +0.186 C 
ATOM     26  C   UNL     1      33.309 -20.199 -21.157  0.00  0.00    +0.064 C 
ATOM     27  C   UNL     1      36.289 -21.076 -19.287  0.00  0.00    +0.196 C 
ATOM     28  H   UNL     1      38.929 -18.875 -21.104  0.00  0.00    +0.144 HD
ATOM     29  H   UNL     1      37.805 -18.210 -22.200  0.00  0.00    +0.144 HD
ATOM     30  H   UNL     1      35.897 -22.464 -17.780  0.00  0.00    +0.156 HD
ATOM     31  H   UNL     1      37.530 -21.984 -17.876  0.00  0.00    +0.156 HD
ENDBRANCH  18  23
ENDBRANCH   1  17
TORSDOF 5
ENDMDL
MODEL 7
REMARK VINA RESULT:     -11.6      4.873      9.303
REMARK  Name = 25195365
REMARK  5 active torsions:
REMARK  status: ('A' for Active; 'I' for Inactive)
REMARK    1  A    between atoms: C_1  and  C_3
REMARK    2  A    between atoms: C_1  and  C_17
REMARK    3  A    between atoms: C_4  and  C_9
REMARK    4  A    between atoms: C_6  and  O_15
REMARK    5  A    between atoms: C_18  and  C_23
REMARK                            x       y       z     vdW  Elec       q    Type
REMARK                         _______ _______ _______ _____ _____    ______ ____
ROOT
ATOM      1  C   UNL     1      33.415 -13.793 -25.336  0.00  0.00    +0.086 C 
ATOM      2  C   UNL     1      34.272 -13.505 -26.584  0.00  0.00    +0.019 C 
ENDROOT
BRANCH   1   3
ATOM      3  C   UNL     1      33.952 -14.914 -24.513  0.00  0.00    -0.007 C 
ATOM      4  C   UNL     1      34.956 -17.013 -22.973  0.00  0.00    +0.034 C 
ATOM      5  C   UNL     1      34.002 -14.798 -23.123  0.00  0.00    +0.034 C 
ATOM      6  C   UNL     1      34.504 -15.848 -22.353  0.00  0.00    +0.138 C 
ATOM      7  C   UNL     1      34.405 -16.080 -25.131  0.00  0.00    -0.003 C 
ATOM      8  C   UNL     1      34.906 -17.129 -24.362  0.00  0.00    +0.003 C 
BRANCH   4   9
ATOM      9  C   UNL     1      35.481 -18.113 -22.193  0.00  0.00    +0.003 C 
ATOM     10  C   UNL     1      34.621 -19.098 -21.708  0.00  0.00    +0.000 C 
ATOM     11  C   UNL     1      36.848 -18.188 -21.925  0.00  0.00    +0.000 C 
ATOM     12  C   UNL     1      35.127 -20.158 -20.957  0.00  0.00    +0.000 C 
ATOM     13  C   UNL     1      37.354 -19.249 -21.173  0.00  0.00    +0.000 C 
ATOM     14  C   UNL     1      36.493 -20.233 -20.690  0.00  0.00    +0.000 C 
ENDBRANCH   4   9
BRANCH   6  15
ATOM     15  O   UNL     1      34.539 -15.708 -20.997  0.00  0.00    -0.471 OA
ATOM     16  C   UNL     1      33.391 -15.136 -20.375  0.00  0.00    +0.252 C 
ENDBRANCH   6  15
ENDBRANCH   1   3
BRANCH   1  17
ATOM     17  C   UNL     1      33.251 -12.544 -24.548  0.00  0.00    -0.087 C 
ATOM     18  C   UNL     1      33.095 -11.539 -23.909  0.00  0.00    -0.076 C 
BRANCH  18  23
ATOM     19  N   UNL     1      33.626  -8.128 -22.546  0.00  0.00    -0.336 NA
ATOM     20  N   UNL     1      31.657  -9.073 -21.528  0.00  0.00    -0.317 NA
ATOM     21  N   UNL     1      30.932 -11.250 -22.101  0.00  0.00    -0.334 N 
ATOM     22  N   UNL     1      32.387  -6.913 -20.967  0.00  0.00    -0.283 N 
ATOM     23  C   UNL     1      32.905 -10.346 -23.144  0.00  0.00    +0.179 C 
ATOM     24  C   UNL     1      33.766  -9.272 -23.247  0.00  0.00    +0.120 C 
ATOM     25  C   UNL     1      31.858 -10.187 -22.260  0.00  0.00    +0.186 C 
ATOM     26  C   UNL     1      34.943  -9.316 -24.170  0.00  0.00    +0.064 C 
ATOM     27  C   UNL     1      32.565  -8.097 -21.718  0.00  0.00    +0.196 C 
ATOM     28  H   UNL     1      30.179 -11.156 -21.475  0.00  0.00    +0.144 HD
ATOM     29  H   UNL     1      31.044 -12.081 -22.617  0.00  0.00    +0.144 HD
ATOM     30  H   UNL     1      33.020  -6.168 -21.067  0.00  0.00    +0.156 HD
ATOM     31  H   UNL     1      31.627  -6.835 -20.346  0.00  0.00    +0.156 HD
ENDBRANCH  18  23
ENDBRANCH   1  17
TORSDOF 5
ENDMDL
MODEL 8
REMARK VINA RESULT:     -11.6      4.747      8.297
REMARK  Name = 25195365
REMARK  5 active torsions:
REMARK  status: ('A' for Active; 'I' for Inactive)
REMARK    1  A    between atoms: C_1  and  C_3
REMARK    2  A    between atoms: C_1  and  C_17
REMARK    3  A    between atoms: C_4  and  C_9
REMARK    4  A    between atoms: C_6  and  O_15
REMARK    5  A    between atoms: C_18  and  C_23
REMARK                            x       y       z     vdW  Elec       q    Type
REMARK                         _______ _______ _______ _____ _____    ______ ____
ROOT
ATOM      1  C   UNL     1      31.221 -10.445 -21.424  0.00  0.00    +0.086 C 
ATOM      2  C   UNL     1      31.355 -10.177 -19.913  0.00  0.00    +0.019 C 
ENDROOT
BRANCH   1   3
ATOM      3  C   UNL     1      31.554  -9.252 -22.255  0.00  0.00    -0.007 C 
ATOM      4  C   UNL     1      32.176  -7.021 -23.810  0.00  0.00    +0.034 C 
ATOM      5  C   UNL     1      32.804  -8.645 -22.135  0.00  0.00    +0.034 C 
ATOM      6  C   UNL     1      33.115  -7.529 -22.912  0.00  0.00    +0.138 C 
ATOM      7  C   UNL     1      30.615  -8.743 -23.152  0.00  0.00    -0.003 C 
ATOM      8  C   UNL     1      30.926  -7.629 -23.930  0.00  0.00    +0.003 C 
BRANCH   4   9
ATOM      9  C   UNL     1      32.477  -5.864 -24.625  0.00  0.00    +0.003 C 
ATOM     10  C   UNL     1      33.493  -5.929 -25.579  0.00  0.00    +0.000 C 
ATOM     11  C   UNL     1      31.752  -4.684 -24.457  0.00  0.00    +0.000 C 
ATOM     12  C   UNL     1      33.783  -4.814 -26.366  0.00  0.00    +0.000 C 
ATOM     13  C   UNL     1      32.043  -3.569 -25.244  0.00  0.00    +0.000 C 
ATOM     14  C   UNL     1      33.059  -3.635 -26.197  0.00  0.00    +0.000 C 
ENDBRANCH   4   9
BRANCH   6  15
ATOM     15  O   UNL     1      34.345  -6.956 -22.776  0.00  0.00    -0.471 OA
ATOM     16  C   UNL     1      35.427  -7.574 -23.470  0.00  0.00    +0.252 C 
ENDBRANCH   6  15
ENDBRANCH   1   3
BRANCH   1  17
ATOM     17  C   UNL     1      32.036 -11.632 -21.792  0.00  0.00    -0.087 C 
ATOM     18  C   UNL     1      32.708 -12.589 -22.070  0.00  0.00    -0.076 C 
BRANCH  18  23
ATOM     19  N   UNL     1      34.262 -15.953 -21.869  0.00  0.00    -0.336 NA
ATOM     20  N   UNL     1      35.078 -14.838 -23.844  0.00  0.00    -0.317 NA
ATOM     21  N   UNL     1      34.350 -12.652 -24.379  0.00  0.00    -0.334 N 
ATOM     22  N   UNL     1      35.792 -17.007 -23.302  0.00  0.00    -0.283 N 
ATOM     23  C   UNL     1      33.509 -13.728 -22.395  0.00  0.00    +0.179 C 
ATOM     24  C   UNL     1      33.523 -14.856 -21.601  0.00  0.00    +0.120 C 
ATOM     25  C   UNL     1      34.314 -13.776 -23.515  0.00  0.00    +0.186 C 
ATOM     26  C   UNL     1      32.696 -14.932 -20.358  0.00  0.00    +0.064 C 
ATOM     27  C   UNL     1      35.005 -15.877 -22.989  0.00  0.00    +0.196 C 
ATOM     28  H   UNL     1      34.919 -12.668 -25.182  0.00  0.00    +0.144 HD
ATOM     29  H   UNL     1      33.807 -11.857 -24.174  0.00  0.00    +0.144 HD
ATOM     30  H   UNL     1      35.777 -17.795 -22.713  0.00  0.00    +0.156 HD
ATOM     31  H   UNL     1      36.354 -17.007 -24.110  0.00  0.00    +0.156 HD
ENDBRANCH  18  23
ENDBRANCH   1  17
TORSDOF 5
ENDMDL
MODEL 9
REMARK VINA RESULT:     -11.6      5.256      9.164
REMARK  Name = 25195365
REMARK  5 active torsions:
REMARK  status: ('A' for Active; 'I' for Inactive)
REMARK    1  A    between atoms: C_1  and  C_3
REMARK    2  A    between atoms: C_1  and  C_17
REMARK    3  A    between atoms: C_4  and  C_9
REMARK    4  A    between atoms: C_6  and  O_15
REMARK    5  A    between atoms: C_18  and  C_23
REMARK                            x       y       z     vdW  Elec       q    Type
REMARK                         _______ _______ _______ _____ _____    ______ ____
ROOT
ATOM      1  C   UNL     1      33.287 -13.340 -24.489  0.00  0.00    +0.086 C 
ATOM      2  C   UNL     1      34.168 -12.848 -25.653  0.00  0.00    +0.019 C 
ENDROOT
BRANCH   1   3
ATOM      3  C   UNL     1      33.848 -14.542 -23.808  0.00  0.00    -0.007 C 
ATOM      4  C   UNL     1      34.896 -16.791 -22.533  0.00  0.00    +0.034 C 
ATOM      5  C   UNL     1      34.183 -15.673 -24.552  0.00  0.00    +0.034 C 
ATOM      6  C   UNL     1      34.707 -16.798 -23.915  0.00  0.00    +0.138 C 
ATOM      7  C   UNL     1      34.036 -14.536 -22.426  0.00  0.00    -0.003 C 
ATOM      8  C   UNL     1      34.561 -15.660 -21.788  0.00  0.00    +0.003 C 
BRANCH   4   9
ATOM      9  C   UNL     1      35.438 -17.947 -21.852  0.00  0.00    +0.003 C 
ATOM     10  C   UNL     1      34.583 -18.951 -21.394  0.00  0.00    +0.000 C 
ATOM     11  C   UNL     1      36.814 -18.059 -21.653  0.00  0.00    +0.000 C 
ATOM     12  C   UNL     1      35.105 -20.065 -20.739  0.00  0.00    +0.000 C 
ATOM     13  C   UNL     1      37.335 -19.174 -20.996  0.00  0.00    +0.000 C 
ATOM     14  C   UNL     1      36.480 -20.177 -20.539  0.00  0.00    +0.000 C 
ENDBRANCH   4   9
BRANCH   6  15
ATOM     15  O   UNL     1      35.028 -17.889 -24.667  0.00  0.00    -0.471 OA
ATOM     16  C   UNL     1      33.957 -18.750 -25.048  0.00  0.00    +0.252 C 
ENDBRANCH   6  15
ENDBRANCH   1   3
BRANCH   1  17
ATOM     17  C   UNL     1      33.044 -12.219 -23.543  0.00  0.00    -0.087 C 
ATOM     18  C   UNL     1      32.843 -11.299 -22.797  0.00  0.00    -0.076 C 
BRANCH  18  23
ATOM     19  N   UNL     1      31.908  -9.391 -19.754  0.00  0.00    -0.336 NA
ATOM     20  N   UNL     1      32.576  -7.837 -21.471  0.00  0.00    -0.317 NA
ATOM     21  N   UNL     1      33.259  -8.613 -23.598  0.00  0.00    -0.334 N 
ATOM     22  N   UNL     1      31.897  -7.079 -19.356  0.00  0.00    -0.283 N 
ATOM     23  C   UNL     1      32.600 -10.202 -21.912  0.00  0.00    +0.179 C 
ATOM     24  C   UNL     1      32.151 -10.395 -20.622  0.00  0.00    +0.120 C 
ATOM     25  C   UNL     1      32.797  -8.889 -22.285  0.00  0.00    +0.186 C 
ATOM     26  C   UNL     1      31.897 -11.771 -20.094  0.00  0.00    +0.064 C 
ATOM     27  C   UNL     1      32.139  -8.155 -20.237  0.00  0.00    +0.196 C 
ATOM     28  H   UNL     1      33.405  -7.682 -23.882  0.00  0.00    +0.144 HD
ATOM     29  H   UNL     1      33.432  -9.353 -24.223  0.00  0.00    +0.144 HD
ATOM     30  H   UNL     1      31.576  -7.253 -18.442  0.00  0.00    +0.156 HD
ATOM     31  H   UNL     1      32.049  -6.153 -19.656  0.00  0.00    +0.156 HD
ENDBRANCH  18  23
ENDBRANCH   1  17
TORSDOF 5
ENDMDL
