MODEL 1
REMARK VINA RESULT:     -13.3      0.000      0.000
REMARK  Name = 24752833
REMARK  4 active torsions:
REMARK  status: ('A' for Active; 'I' for Inactive)
REMARK    1  A    between atoms: C_1  and  N_8
REMARK    2  A    between atoms: C_2  and  N_23
REMARK    3  A    between atoms: C_9  and  C_14
REMARK    4  A    between atoms: C_24  and  C_28
REMARK                            x       y       z     vdW  Elec       q    Type
REMARK                         _______ _______ _______ _____ _____    ______ ____
ROOT
ATOM      1  C   UNL     1      31.571 -23.352 -15.431  0.00  0.00    +0.090 C 
ATOM      2  C   UNL     1      31.148 -23.444 -16.908  0.00  0.00    +0.090 C 
ATOM      3  C   UNL     1      30.650 -24.185 -14.534  0.00  0.00    +0.021 C 
ATOM      4  C   UNL     1      29.666 -23.103 -17.093  0.00  0.00    +0.021 C 
ATOM      5  C   UNL     1      29.180 -23.827 -14.730  0.00  0.00    +0.002 C 
ATOM      6  C   UNL     1      28.769 -23.948 -16.193  0.00  0.00    +0.002 C 
ENDROOT
BRANCH   1   8
ATOM      7  O   UNL     1      32.987 -23.584 -12.944  0.00  0.00    -0.267 OA
ATOM      8  N   UNL     1      32.943 -23.776 -15.254  0.00  0.00    -0.298 N 
ATOM      9  C   UNL     1      33.539 -23.856 -14.006  0.00  0.00    +0.282 C 
ATOM     10  H   UNL     1      33.471 -24.017 -16.050  0.00  0.00    +0.150 HD
BRANCH   9  14
ATOM     11  S   UNL     1      35.641 -25.084 -15.361  0.00  0.00    -0.074 S 
ATOM     12  N   UNL     1      39.333 -26.039 -13.966  0.00  0.00    +0.387 N 
ATOM     13  N   UNL     1      35.764 -24.084 -12.970  0.00  0.00    -0.399 NA
ATOM     14  C   UNL     1      34.962 -24.284 -13.995  0.00  0.00    +0.210 C 
ATOM     15  C   UNL     1      37.004 -24.594 -13.283  0.00  0.00    +0.093 C 
ATOM     16  C   UNL     1      37.118 -25.177 -14.527  0.00  0.00    +0.082 C 
ATOM     17  C   UNL     1      38.149 -24.553 -12.335  0.00  0.00    +0.032 C 
ATOM     18  C   UNL     1      38.377 -25.768 -15.067  0.00  0.00    -0.059 C 
ATOM     19  C   UNL     1      39.475 -24.874 -13.063  0.00  0.00    -0.070 C 
ATOM     20  C   UNL     1      40.632 -26.433 -14.509  0.00  0.00    -0.101 C 
ATOM     21  H   UNL     1      38.960 -26.809 -13.410  0.00  0.00    -0.080 HD
ENDBRANCH   9  14
ENDBRANCH   1   8
BRANCH   2  23
ATOM     22  O   UNL     1      33.540 -24.165 -18.323  0.00  0.00    -0.269 OA
ATOM     23  N   UNL     1      31.957 -22.577 -17.736  0.00  0.00    -0.300 N 
ATOM     24  C   UNL     1      33.100 -23.020 -18.380  0.00  0.00    +0.259 C 
ATOM     25  H   UNL     1      31.685 -21.637 -17.845  0.00  0.00    +0.150 HD
BRANCH  24  28
ATOM     26 CL   UNL     1      35.935 -17.391 -22.844  0.00  0.00    -0.082 Cl
ATOM     27  N   UNL     1      35.196 -21.864 -19.160  0.00  0.00    -0.309 N 
ATOM     28  C   UNL     1      33.834 -21.999 -19.171  0.00  0.00    +0.102 C 
ATOM     29  C   UNL     1      33.320 -21.045 -20.019  0.00  0.00    +0.020 C 
ATOM     30  C   UNL     1      35.578 -20.834 -19.989  0.00  0.00    +0.048 C 
ATOM     31  C   UNL     1      34.413 -20.300 -20.545  0.00  0.00    +0.016 C 
ATOM     32  C   UNL     1      36.852 -20.339 -20.287  0.00  0.00    +0.015 C 
ATOM     33  C   UNL     1      34.523 -19.218 -21.441  0.00  0.00    +0.013 C 
ATOM     34  C   UNL     1      35.791 -18.713 -21.749  0.00  0.00    +0.058 C 
ATOM     35  C   UNL     1      36.937 -19.266 -21.180  0.00  0.00    +0.013 C 
ATOM     36  H   UNL     1      35.813 -22.423 -18.635  0.00  0.00    +0.152 HD
ENDBRANCH  24  28
ENDBRANCH   2  23
TORSDOF 4
ENDMDL
MODEL 2
REMARK VINA RESULT:     -12.6      2.744      7.473
REMARK  Name = 24752833
REMARK  4 active torsions:
REMARK  status: ('A' for Active; 'I' for Inactive)
REMARK    1  A    between atoms: C_1  and  N_8
REMARK    2  A    between atoms: C_2  and  N_23
REMARK    3  A    between atoms: C_9  and  C_14
REMARK    4  A    between atoms: C_24  and  C_28
REMARK                            x       y       z     vdW  Elec       q    Type
REMARK                         _______ _______ _______ _____ _____    ______ ____
ROOT
ATOM      1  C   UNL     1      31.159 -23.482 -16.956  0.00  0.00    +0.090 C 
ATOM      2  C   UNL     1      31.566 -23.357 -15.476  0.00  0.00    +0.090 C 
ATOM      3  C   UNL     1      29.674 -23.161 -17.155  0.00  0.00    +0.021 C 
ATOM      4  C   UNL     1      30.649 -24.183 -14.568  0.00  0.00    +0.021 C 
ATOM      5  C   UNL     1      28.779 -23.996 -16.245  0.00  0.00    +0.002 C 
ATOM      6  C   UNL     1      29.178 -23.842 -14.781  0.00  0.00    +0.002 C 
ENDROOT
BRANCH   1   8
ATOM      7  O   UNL     1      33.697 -24.120 -18.138  0.00  0.00    -0.267 OA
ATOM      8  N   UNL     1      31.964 -22.619 -17.792  0.00  0.00    -0.298 N 
ATOM      9  C   UNL     1      33.182 -23.021 -18.318  0.00  0.00    +0.282 C 
ATOM     10  H   UNL     1      31.635 -21.713 -17.996  0.00  0.00    +0.150 HD
BRANCH   9  14
ATOM     11  S   UNL     1      33.020 -20.926 -20.148  0.00  0.00    -0.074 S 
ATOM     12  N   UNL     1      36.040 -19.013 -22.074  0.00  0.00    +0.387 N 
ATOM     13  N   UNL     1      35.210 -21.886 -19.139  0.00  0.00    -0.399 NA
ATOM     14  C   UNL     1      33.898 -22.009 -19.137  0.00  0.00    +0.210 C 
ATOM     15  C   UNL     1      35.548 -20.862 -19.996  0.00  0.00    +0.093 C 
ATOM     16  C   UNL     1      34.496 -20.238 -20.631  0.00  0.00    +0.082 C 
ATOM     17  C   UNL     1      36.958 -20.466 -20.252  0.00  0.00    +0.032 C 
ATOM     18  C   UNL     1      34.645 -19.095 -21.579  0.00  0.00    -0.059 C 
ATOM     19  C   UNL     1      37.021 -19.096 -20.967  0.00  0.00    -0.070 C 
ATOM     20  C   UNL     1      36.234 -17.786 -22.844  0.00  0.00    -0.101 C 
ATOM     21  H   UNL     1      36.203 -19.815 -22.683  0.00  0.00    -0.080 HD
ENDBRANCH   9  14
ENDBRANCH   1   8
BRANCH   2  23
ATOM     22  O   UNL     1      32.916 -23.687 -12.964  0.00  0.00    -0.269 OA
ATOM     23  N   UNL     1      32.941 -23.759 -15.281  0.00  0.00    -0.300 N 
ATOM     24  C   UNL     1      33.505 -23.891 -14.023  0.00  0.00    +0.259 C 
ATOM     25  H   UNL     1      33.497 -23.948 -16.071  0.00  0.00    +0.150 HD
BRANCH  24  28
ATOM     26 CL   UNL     1      40.750 -26.447 -14.816  0.00  0.00    -0.082 Cl
ATOM     27  N   UNL     1      35.799 -23.941 -12.988  0.00  0.00    -0.309 N 
ATOM     28  C   UNL     1      34.936 -24.287 -13.993  0.00  0.00    +0.102 C 
ATOM     29  C   UNL     1      35.635 -25.033 -14.914  0.00  0.00    +0.020 C 
ATOM     30  C   UNL     1      37.052 -24.452 -13.241  0.00  0.00    +0.048 C 
ATOM     31  C   UNL     1      36.976 -25.146 -14.451  0.00  0.00    +0.016 C 
ATOM     32  C   UNL     1      38.235 -24.353 -12.501  0.00  0.00    +0.015 C 
ATOM     33  C   UNL     1      38.136 -25.773 -14.948  0.00  0.00    +0.013 C 
ATOM     34  C   UNL     1      39.327 -25.684 -14.217  0.00  0.00    +0.058 C 
ATOM     35  C   UNL     1      39.373 -24.984 -13.013  0.00  0.00    +0.013 C 
ATOM     36  H   UNL     1      35.559 -23.405 -12.199  0.00  0.00    +0.152 HD
ENDBRANCH  24  28
ENDBRANCH   2  23
TORSDOF 4
ENDMDL
MODEL 3
REMARK VINA RESULT:     -11.2      3.061      8.198
REMARK  Name = 24752833
REMARK  4 active torsions:
REMARK  status: ('A' for Active; 'I' for Inactive)
REMARK    1  A    between atoms: C_1  and  N_8
REMARK    2  A    between atoms: C_2  and  N_23
REMARK    3  A    between atoms: C_9  and  C_14
REMARK    4  A    between atoms: C_24  and  C_28
REMARK                            x       y       z     vdW  Elec       q    Type
REMARK                         _______ _______ _______ _____ _____    ______ ____
ROOT
ATOM      1  C   UNL     1      37.698 -23.935 -15.368  0.00  0.00    +0.090 C 
ATOM      2  C   UNL     1      36.933 -25.271 -15.379  0.00  0.00    +0.090 C 
ATOM      3  C   UNL     1      39.203 -24.156 -15.185  0.00  0.00    +0.021 C 
ATOM      4  C   UNL     1      37.266 -26.122 -14.149  0.00  0.00    +0.021 C 
ATOM      5  C   UNL     1      39.513 -25.001 -13.953  0.00  0.00    +0.002 C 
ATOM      6  C   UNL     1      38.769 -26.331 -13.990  0.00  0.00    +0.002 C 
ENDROOT
BRANCH   1   8
ATOM      7  O   UNL     1      35.651 -21.966 -15.790  0.00  0.00    -0.267 OA
ATOM      8  N   UNL     1      37.456 -23.186 -16.582  0.00  0.00    -0.298 N 
ATOM      9  C   UNL     1      36.438 -22.253 -16.688  0.00  0.00    +0.282 C 
ATOM     10  H   UNL     1      38.037 -23.345 -17.362  0.00  0.00    +0.150 HD
BRANCH   9  14
ATOM     11  S   UNL     1      34.966 -21.943 -19.033  0.00  0.00    -0.074 S 
ATOM     12  N   UNL     1      35.945 -19.853 -22.374  0.00  0.00    +0.387 N 
ATOM     13  N   UNL     1      37.177 -20.710 -18.462  0.00  0.00    -0.399 NA
ATOM     14  C   UNL     1      36.304 -21.586 -18.009  0.00  0.00    +0.210 C 
ATOM     15  C   UNL     1      36.761 -20.287 -19.705  0.00  0.00    +0.093 C 
ATOM     16  C   UNL     1      35.594 -20.851 -20.173  0.00  0.00    +0.082 C 
ATOM     17  C   UNL     1      37.530 -19.305 -20.514  0.00  0.00    +0.032 C 
ATOM     18  C   UNL     1      34.962 -20.513 -21.482  0.00  0.00    -0.059 C 
ATOM     19  C   UNL     1      36.671 -18.764 -21.681  0.00  0.00    -0.070 C 
ATOM     20  C   UNL     1      35.281 -19.348 -23.575  0.00  0.00    -0.101 C 
ATOM     21  H   UNL     1      36.637 -20.551 -22.648  0.00  0.00    -0.080 HD
ENDBRANCH   9  14
ENDBRANCH   1   8
BRANCH   2  23
ATOM     22  O   UNL     1      35.256 -24.201 -13.308  0.00  0.00    -0.269 OA
ATOM     23  N   UNL     1      35.505 -25.051 -15.450  0.00  0.00    -0.300 N 
ATOM     24  C   UNL     1      34.780 -24.528 -14.393  0.00  0.00    +0.259 C 
ATOM     25  H   UNL     1      35.031 -25.281 -16.282  0.00  0.00    +0.150 HD
BRANCH  24  28
ATOM     26 CL   UNL     1      27.406 -22.784 -15.886  0.00  0.00    -0.082 Cl
ATOM     27  N   UNL     1      32.414 -25.388 -14.381  0.00  0.00    -0.309 N 
ATOM     28  C   UNL     1      33.318 -24.387 -14.617  0.00  0.00    +0.102 C 
ATOM     29  C   UNL     1      32.627 -23.291 -15.078  0.00  0.00    +0.020 C 
ATOM     30  C   UNL     1      31.142 -24.959 -14.683  0.00  0.00    +0.048 C 
ATOM     31  C   UNL     1      31.248 -23.638 -15.126  0.00  0.00    +0.016 C 
ATOM     32  C   UNL     1      29.918 -25.631 -14.600  0.00  0.00    +0.015 C 
ATOM     33  C   UNL     1      30.076 -22.953 -15.504  0.00  0.00    +0.013 C 
ATOM     34  C   UNL     1      28.844 -23.613 -15.425  0.00  0.00    +0.058 C 
ATOM     35  C   UNL     1      28.768 -24.932 -14.980  0.00  0.00    +0.013 C 
ATOM     36  H   UNL     1      32.641 -26.284 -14.044  0.00  0.00    +0.152 HD
ENDBRANCH  24  28
ENDBRANCH   2  23
TORSDOF 4
ENDMDL
MODEL 4
REMARK VINA RESULT:     -11.0      2.093      6.249
REMARK  Name = 24752833
REMARK  4 active torsions:
REMARK  status: ('A' for Active; 'I' for Inactive)
REMARK    1  A    between atoms: C_1  and  N_8
REMARK    2  A    between atoms: C_2  and  N_23
REMARK    3  A    between atoms: C_9  and  C_14
REMARK    4  A    between atoms: C_24  and  C_28
REMARK                            x       y       z     vdW  Elec       q    Type
REMARK                         _______ _______ _______ _____ _____    ______ ____
ROOT
ATOM      1  C   UNL     1      36.920 -25.329 -15.379  0.00  0.00    +0.090 C 
ATOM      2  C   UNL     1      37.713 -24.012 -15.308  0.00  0.00    +0.090 C 
ATOM      3  C   UNL     1      37.180 -26.204 -14.149  0.00  0.00    +0.021 C 
ATOM      4  C   UNL     1      39.203 -24.264 -15.060  0.00  0.00    +0.021 C 
ATOM      5  C   UNL     1      38.669 -26.447 -13.922  0.00  0.00    +0.002 C 
ATOM      6  C   UNL     1      39.437 -25.133 -13.828  0.00  0.00    +0.002 C 
ENDROOT
BRANCH   1   8
ATOM      7  O   UNL     1      35.147 -24.397 -13.322  0.00  0.00    -0.267 OA
ATOM      8  N   UNL     1      35.501 -25.077 -15.510  0.00  0.00    -0.298 N 
ATOM      9  C   UNL     1      34.727 -24.626 -14.453  0.00  0.00    +0.282 C 
ATOM     10  H   UNL     1      35.070 -25.231 -16.382  0.00  0.00    +0.150 HD
BRANCH   9  14
ATOM     11  S   UNL     1      32.754 -23.140 -15.742  0.00  0.00    -0.074 S 
ATOM     12  N   UNL     1      28.720 -23.490 -15.436  0.00  0.00    +0.387 N 
ATOM     13  N   UNL     1      32.345 -25.233 -14.263  0.00  0.00    -0.399 NA
ATOM     14  C   UNL     1      33.282 -24.439 -14.742  0.00  0.00    +0.210 C 
ATOM     15  C   UNL     1      31.125 -24.787 -14.720  0.00  0.00    +0.093 C 
ATOM     16  C   UNL     1      31.155 -23.667 -15.522  0.00  0.00    +0.082 C 
ATOM     17  C   UNL     1      29.844 -25.447 -14.351  0.00  0.00    +0.032 C 
ATOM     18  C   UNL     1      29.948 -23.039 -16.135  0.00  0.00    -0.059 C 
ATOM     19  C   UNL     1      28.695 -24.960 -15.264  0.00  0.00    -0.070 C 
ATOM     20  C   UNL     1      27.532 -23.033 -16.154  0.00  0.00    -0.101 C 
ATOM     21  H   UNL     1      28.723 -23.076 -14.503  0.00  0.00    -0.080 HD
ENDBRANCH   9  14
ENDBRANCH   1   8
BRANCH   2  23
ATOM     22  O   UNL     1      35.790 -21.927 -15.751  0.00  0.00    -0.269 OA
ATOM     23  N   UNL     1      37.542 -23.237 -16.517  0.00  0.00    -0.300 N 
ATOM     24  C   UNL     1      36.581 -22.247 -16.635  0.00  0.00    +0.259 C 
ATOM     25  H   UNL     1      38.131 -23.419 -17.284  0.00  0.00    +0.150 HD
BRANCH  24  28
ATOM     26 CL   UNL     1      35.417 -19.347 -23.698  0.00  0.00    -0.082 Cl
ATOM     27  N   UNL     1      37.349 -20.537 -18.314  0.00  0.00    -0.309 N 
ATOM     28  C   UNL     1      36.516 -21.560 -17.951  0.00  0.00    +0.102 C 
ATOM     29  C   UNL     1      35.657 -21.801 -18.998  0.00  0.00    +0.020 C 
ATOM     30  C   UNL     1      37.045 -20.107 -19.586  0.00  0.00    +0.048 C 
ATOM     31  C   UNL     1      35.980 -20.889 -20.041  0.00  0.00    +0.016 C 
ATOM     32  C   UNL     1      37.624 -19.096 -20.361  0.00  0.00    +0.015 C 
ATOM     33  C   UNL     1      35.467 -20.652 -21.332  0.00  0.00    +0.013 C 
ATOM     34  C   UNL     1      36.038 -19.645 -22.119  0.00  0.00    +0.058 C 
ATOM     35  C   UNL     1      37.099 -18.879 -21.639  0.00  0.00    +0.013 C 
ATOM     36  H   UNL     1      38.062 -20.163 -17.749  0.00  0.00    +0.152 HD
ENDBRANCH  24  28
ENDBRANCH   2  23
TORSDOF 4
ENDMDL
MODEL 5
REMARK VINA RESULT:     -10.3      3.376      8.391
REMARK  Name = 24752833
REMARK  4 active torsions:
REMARK  status: ('A' for Active; 'I' for Inactive)
REMARK    1  A    between atoms: C_1  and  N_8
REMARK    2  A    between atoms: C_2  and  N_23
REMARK    3  A    between atoms: C_9  and  C_14
REMARK    4  A    between atoms: C_24  and  C_28
REMARK                            x       y       z     vdW  Elec       q    Type
REMARK                         _______ _______ _______ _____ _____    ______ ____
ROOT
ATOM      1  C   UNL     1      36.290 -23.056 -16.145  0.00  0.00    +0.090 C 
ATOM      2  C   UNL     1      35.456 -24.348 -16.065  0.00  0.00    +0.090 C 
ATOM      3  C   UNL     1      37.779 -23.338 -15.921  0.00  0.00    +0.021 C 
ATOM      4  C   UNL     1      35.729 -25.116 -14.769  0.00  0.00    +0.021 C 
ATOM      5  C   UNL     1      38.029 -24.100 -14.623  0.00  0.00    +0.002 C 
ATOM      6  C   UNL     1      37.217 -25.389 -14.570  0.00  0.00    +0.002 C 
ENDROOT
BRANCH   1   8
ATOM      7  O   UNL     1      37.736 -20.774 -17.119  0.00  0.00    -0.267 OA
ATOM      8  N   UNL     1      36.102 -22.393 -17.417  0.00  0.00    -0.298 N 
ATOM      9  C   UNL     1      36.854 -21.293 -17.798  0.00  0.00    +0.282 C 
ATOM     10  H   UNL     1      35.416 -22.735 -18.035  0.00  0.00    +0.150 HD
BRANCH   9  14
ATOM     11  S   UNL     1      35.049 -21.122 -19.913  0.00  0.00    -0.074 S 
ATOM     12  N   UNL     1      35.511 -19.253 -23.488  0.00  0.00    +0.387 N 
ATOM     13  N   UNL     1      37.316 -19.870 -19.758  0.00  0.00    -0.399 NA
ATOM     14  C   UNL     1      36.523 -20.710 -19.125  0.00  0.00    +0.210 C 
ATOM     15  C   UNL     1      36.717 -19.523 -20.948  0.00  0.00    +0.093 C 
ATOM     16  C   UNL     1      35.496 -20.108 -21.200  0.00  0.00    +0.082 C 
ATOM     17  C   UNL     1      37.354 -18.599 -21.924  0.00  0.00    +0.032 C 
ATOM     18  C   UNL     1      34.674 -19.849 -22.419  0.00  0.00    -0.059 C 
ATOM     19  C   UNL     1      36.329 -18.127 -22.981  0.00  0.00    -0.070 C 
ATOM     20  C   UNL     1      34.673 -18.821 -24.606  0.00  0.00    -0.101 C 
ATOM     21  H   UNL     1      36.156 -19.972 -23.817  0.00  0.00    -0.080 HD
ENDBRANCH   9  14
ENDBRANCH   1   8
BRANCH   2  23
ATOM     22  O   UNL     1      33.680 -23.617 -13.931  0.00  0.00    -0.269 OA
ATOM     23  N   UNL     1      34.043 -24.061 -16.177  0.00  0.00    -0.300 N 
ATOM     24  C   UNL     1      33.267 -23.716 -15.084  0.00  0.00    +0.259 C 
ATOM     25  H   UNL     1      33.618 -24.113 -17.064  0.00  0.00    +0.150 HD
BRANCH  24  28
ATOM     26 CL   UNL     1      25.802 -21.820 -15.658  0.00  0.00    -0.082 Cl
ATOM     27  N   UNL     1      31.149 -24.051 -16.404  0.00  0.00    -0.309 N 
ATOM     28  C   UNL     1      31.826 -23.478 -15.361  0.00  0.00    +0.102 C 
ATOM     29  C   UNL     1      30.945 -22.681 -14.669  0.00  0.00    +0.020 C 
ATOM     30  C   UNL     1      29.836 -23.639 -16.400  0.00  0.00    +0.048 C 
ATOM     31  C   UNL     1      29.680 -22.773 -15.314  0.00  0.00    +0.016 C 
ATOM     32  C   UNL     1      28.785 -23.962 -17.265  0.00  0.00    +0.015 C 
ATOM     33  C   UNL     1      28.414 -22.201 -15.080  0.00  0.00    +0.013 C 
ATOM     34  C   UNL     1      27.353 -22.516 -15.937  0.00  0.00    +0.058 C 
ATOM     35  C   UNL     1      27.537 -23.382 -17.013  0.00  0.00    +0.013 C 
ATOM     36  H   UNL     1      31.544 -24.669 -17.060  0.00  0.00    +0.152 HD
ENDBRANCH  24  28
ENDBRANCH   2  23
TORSDOF 4
ENDMDL
