MODEL 1
REMARK VINA RESULT:     -13.7      0.000      0.000
REMARK  Name = 11677589
REMARK  7 active torsions:
REMARK  status: ('A' for Active; 'I' for Inactive)
REMARK    1  A    between atoms: C_1  and  N_7
REMARK    2  A    between atoms: C_2  and  C_20
REMARK    3  A    between atoms: C_11  and  C_18
REMARK    4  A    between atoms: C_20  and  C_21
REMARK    5  A    between atoms: C_21  and  N_23
REMARK    6  A    between atoms: N_24  and  S_28
REMARK    7  A    between atoms: S_28  and  C_31
REMARK                            x       y       z     vdW  Elec       q    Type
REMARK                         _______ _______ _______ _____ _____    ______ ____
ROOT
ATOM      1  C   UNL     1      35.678 -22.860 -16.841  0.00  0.00    +0.058 C 
ATOM      2  C   UNL     1      35.626 -21.584 -19.307  0.00  0.00    -0.020 C 
ATOM      3  C   UNL     1      34.585 -23.034 -17.680  0.00  0.00    +0.015 C 
ATOM      4  C   UNL     1      36.746 -22.056 -17.219  0.00  0.00    +0.015 C 
ATOM      5  C   UNL     1      34.559 -22.393 -18.919  0.00  0.00    -0.003 C 
ATOM      6  C   UNL     1      36.720 -21.414 -18.458  0.00  0.00    -0.003 C 
ENDROOT
BRANCH   1   7
ATOM      7  N   UNL     1      35.705 -23.501 -15.602  0.00  0.00    -0.242 N 
ATOM      8  N   UNL     1      34.993 -24.279 -13.645  0.00  0.00    -0.387 NA
ATOM      9  N   UNL     1      38.484 -25.486 -13.372  0.00  0.00    -0.408 NA
ATOM     10  C   UNL     1      36.789 -24.120 -15.038  0.00  0.00    +0.091 C 
ATOM     11  C   UNL     1      34.656 -23.622 -14.733  0.00  0.00    +0.168 C 
ATOM     12  C   UNL     1      36.319 -24.597 -13.818  0.00  0.00    +0.172 C 
ATOM     13  C   UNL     1      38.096 -24.300 -15.469  0.00  0.00    +0.045 C 
ATOM     14  C   UNL     1      37.199 -25.290 -12.986  0.00  0.00    +0.140 C 
ATOM     15  C   UNL     1      38.890 -25.000 -14.571  0.00  0.00    +0.110 C 
ATOM     16  C   UNL     1      36.803 -25.844 -11.659  0.00  0.00    +0.069 C 
ATOM     17  C   UNL     1      40.318 -25.254 -14.930  0.00  0.00    +0.066 C 
BRANCH  11  18
ATOM     18  C   UNL     1      33.316 -23.066 -15.018  0.00  0.00    +0.075 C 
ATOM     19  C   UNL     1      32.246 -23.578 -14.048  0.00  0.00    +0.009 C 
ENDBRANCH  11  18
ENDBRANCH   1   7
BRANCH   2  20
ATOM     20  C   UNL     1      35.598 -20.898 -20.631  0.00  0.00    +0.048 C 
BRANCH  20  21
ATOM     21  C   UNL     1      36.556 -19.704 -20.723  0.00  0.00    +0.096 C 
BRANCH  21  23
ATOM     22  O   UNL     1      36.065 -18.413 -23.242  0.00  0.00    -0.251 OA
ATOM     23  N   UNL     1      35.862 -18.463 -20.938  0.00  0.00    -0.287 N 
ATOM     24  N   UNL     1      34.958 -16.669 -22.149  0.00  0.00    -0.169 N 
ATOM     25  C   UNL     1      35.670 -17.909 -22.194  0.00  0.00    +0.319 C 
ATOM     26  H   UNL     1      35.509 -17.982 -20.155  0.00  0.00    +0.151 HD
ATOM     27  H   UNL     1      34.683 -16.337 -21.264  0.00  0.00    +0.178 HD
BRANCH  24  28
ATOM     28  S   UNL     1      34.547 -15.715 -23.507  0.00  0.00    +0.077 S 
ATOM     29  O   UNL     1      35.748 -15.112 -24.052  0.00  0.00    -0.150 OA
ATOM     30  O   UNL     1      33.647 -16.464 -24.363  0.00  0.00    -0.150 OA
BRANCH  28  31
ATOM     31  C   UNL     1      33.586 -14.441 -22.747  0.00  0.00    +0.125 C 
ATOM     32  C   UNL     1      33.126 -14.621 -21.454  0.00  0.00    +0.020 C 
ATOM     33  C   UNL     1      33.312 -13.286 -23.459  0.00  0.00    +0.020 C 
ATOM     34  C   UNL     1      32.082 -12.444 -21.558  0.00  0.00    -0.022 C 
ATOM     35  C   UNL     1      32.368 -13.614 -20.855  0.00  0.00    -0.003 C 
ATOM     36  C   UNL     1      32.555 -12.280 -22.860  0.00  0.00    -0.003 C 
ATOM     37  C   UNL     1      31.274 -11.368 -20.916  0.00  0.00    +0.031 C 
ENDBRANCH  28  31
ENDBRANCH  24  28
ENDBRANCH  21  23
ENDBRANCH  20  21
ENDBRANCH   2  20
TORSDOF 7
ENDMDL
MODEL 2
REMARK VINA RESULT:     -13.4      1.671      4.048
REMARK  Name = 11677589
REMARK  7 active torsions:
REMARK  status: ('A' for Active; 'I' for Inactive)
REMARK    1  A    between atoms: C_1  and  N_7
REMARK    2  A    between atoms: C_2  and  C_20
REMARK    3  A    between atoms: C_11  and  C_18
REMARK    4  A    between atoms: C_20  and  C_21
REMARK    5  A    between atoms: C_21  and  N_23
REMARK    6  A    between atoms: N_24  and  S_28
REMARK    7  A    between atoms: S_28  and  C_31
REMARK                            x       y       z     vdW  Elec       q    Type
REMARK                         _______ _______ _______ _____ _____    ______ ____
ROOT
ATOM      1  C   UNL     1      34.226 -22.705 -17.590  0.00  0.00    +0.058 C 
ATOM      2  C   UNL     1      35.375 -21.491 -19.807  0.00  0.00    -0.020 C 
ATOM      3  C   UNL     1      35.573 -22.369 -17.565  0.00  0.00    +0.015 C 
ATOM      4  C   UNL     1      33.445 -22.442 -18.708  0.00  0.00    +0.015 C 
ATOM      5  C   UNL     1      36.150 -21.760 -18.680  0.00  0.00    -0.003 C 
ATOM      6  C   UNL     1      34.022 -21.833 -19.822  0.00  0.00    -0.003 C 
ENDROOT
BRANCH   1   7
ATOM      7  N   UNL     1      33.647 -23.316 -16.476  0.00  0.00    -0.242 N 
ATOM      8  N   UNL     1      33.491 -24.452 -14.572  0.00  0.00    -0.387 NA
ATOM      9  N   UNL     1      29.871 -23.798 -15.011  0.00  0.00    -0.408 NA
ATOM     10  C   UNL     1      32.309 -23.351 -16.180  0.00  0.00    +0.091 C 
ATOM     11  C   UNL     1      34.311 -23.986 -15.487  0.00  0.00    +0.168 C 
ATOM     12  C   UNL     1      32.238 -24.066 -14.988  0.00  0.00    +0.172 C 
ATOM     13  C   UNL     1      31.192 -22.841 -16.826  0.00  0.00    +0.045 C 
ATOM     14  C   UNL     1      30.987 -24.281 -14.410  0.00  0.00    +0.140 C 
ATOM     15  C   UNL     1      29.997 -23.108 -16.172  0.00  0.00    +0.110 C 
ATOM     16  C   UNL     1      30.794 -25.031 -13.136  0.00  0.00    +0.069 C 
ATOM     17  C   UNL     1      28.726 -22.606 -16.776  0.00  0.00    +0.066 C 
BRANCH  11  18
ATOM     18  C   UNL     1      35.781 -24.148 -15.481  0.00  0.00    +0.075 C 
ATOM     19  C   UNL     1      36.216 -25.585 -15.175  0.00  0.00    +0.009 C 
ENDBRANCH  11  18
ENDBRANCH   1   7
BRANCH   2  20
ATOM     20  C   UNL     1      35.993 -20.840 -20.998  0.00  0.00    +0.048 C 
BRANCH  20  21
ATOM     21  C   UNL     1      36.768 -19.560 -20.663  0.00  0.00    +0.096 C 
BRANCH  21  23
ATOM     22  O   UNL     1      36.274 -18.269 -23.182  0.00  0.00    -0.251 OA
ATOM     23  N   UNL     1      35.987 -18.373 -20.888  0.00  0.00    -0.287 N 
ATOM     24  N   UNL     1      34.991 -16.636 -22.110  0.00  0.00    -0.169 N 
ATOM     25  C   UNL     1      35.800 -17.816 -22.143  0.00  0.00    +0.319 C 
ATOM     26  H   UNL     1      35.566 -17.935 -20.114  0.00  0.00    +0.151 HD
ATOM     27  H   UNL     1      34.656 -16.343 -21.232  0.00  0.00    +0.178 HD
BRANCH  24  28
ATOM     28  S   UNL     1      34.558 -15.695 -23.470  0.00  0.00    +0.077 S 
ATOM     29  O   UNL     1      35.747 -15.072 -24.021  0.00  0.00    -0.150 OA
ATOM     30  O   UNL     1      33.669 -16.463 -24.321  0.00  0.00    -0.150 OA
BRANCH  28  31
ATOM     31  C   UNL     1      33.578 -14.436 -22.712  0.00  0.00    +0.125 C 
ATOM     32  C   UNL     1      33.218 -13.322 -23.450  0.00  0.00    +0.020 C 
ATOM     33  C   UNL     1      33.187 -14.586 -21.392  0.00  0.00    +0.020 C 
ATOM     34  C   UNL     1      32.042 -12.463 -21.523  0.00  0.00    -0.022 C 
ATOM     35  C   UNL     1      32.444 -12.328 -22.851  0.00  0.00    -0.003 C 
ATOM     36  C   UNL     1      32.413 -13.592 -20.793  0.00  0.00    -0.003 C 
ATOM     37  C   UNL     1      31.213 -11.401 -20.884  0.00  0.00    +0.031 C 
ENDBRANCH  28  31
ENDBRANCH  24  28
ENDBRANCH  21  23
ENDBRANCH  20  21
ENDBRANCH   2  20
TORSDOF 7
ENDMDL
MODEL 3
REMARK VINA RESULT:     -13.1      4.410     11.259
REMARK  Name = 11677589
REMARK  7 active torsions:
REMARK  status: ('A' for Active; 'I' for Inactive)
REMARK    1  A    between atoms: C_1  and  N_7
REMARK    2  A    between atoms: C_2  and  C_20
REMARK    3  A    between atoms: C_11  and  C_18
REMARK    4  A    between atoms: C_20  and  C_21
REMARK    5  A    between atoms: C_21  and  N_23
REMARK    6  A    between atoms: N_24  and  S_28
REMARK    7  A    between atoms: S_28  and  C_31
REMARK                            x       y       z     vdW  Elec       q    Type
REMARK                         _______ _______ _______ _____ _____    ______ ____
ROOT
ATOM      1  C   UNL     1      35.301 -18.988 -21.688  0.00  0.00    +0.058 C 
ATOM      2  C   UNL     1      35.786 -20.930 -19.763  0.00  0.00    -0.020 C 
ATOM      3  C   UNL     1      36.579 -19.128 -21.163  0.00  0.00    +0.015 C 
ATOM      4  C   UNL     1      34.262 -19.806 -21.264  0.00  0.00    +0.015 C 
ATOM      5  C   UNL     1      36.822 -20.103 -20.195  0.00  0.00    -0.003 C 
ATOM      6  C   UNL     1      34.505 -20.782 -20.296  0.00  0.00    -0.003 C 
ENDROOT
BRANCH   1   7
ATOM      7  N   UNL     1      35.056 -18.012 -22.655  0.00  0.00    -0.242 N 
ATOM      8  N   UNL     1      34.984 -17.028 -24.647  0.00  0.00    -0.387 NA
ATOM      9  N   UNL     1      33.493 -14.245 -22.709  0.00  0.00    -0.408 NA
ATOM     10  C   UNL     1      34.503 -16.778 -22.433  0.00  0.00    +0.091 C 
ATOM     11  C   UNL     1      35.326 -18.114 -23.992  0.00  0.00    +0.168 C 
ATOM     12  C   UNL     1      34.469 -16.184 -23.692  0.00  0.00    +0.172 C 
ATOM     13  C   UNL     1      34.045 -16.148 -21.285  0.00  0.00    +0.045 C 
ATOM     14  C   UNL     1      33.950 -14.894 -23.808  0.00  0.00    +0.140 C 
ATOM     15  C   UNL     1      33.550 -14.870 -21.507  0.00  0.00    +0.110 C 
ATOM     16  C   UNL     1      33.865 -14.163 -25.105  0.00  0.00    +0.069 C 
ATOM     17  C   UNL     1      33.029 -14.095 -20.341  0.00  0.00    +0.066 C 
BRANCH  11  18
ATOM     18  C   UNL     1      35.933 -19.322 -24.592  0.00  0.00    +0.075 C 
ATOM     19  C   UNL     1      34.888 -20.358 -25.020  0.00  0.00    +0.009 C 
ENDBRANCH  11  18
ENDBRANCH   1   7
BRANCH   2  20
ATOM     20  C   UNL     1      36.047 -21.972 -18.729  0.00  0.00    +0.048 C 
BRANCH  20  21
ATOM     21  C   UNL     1      36.958 -21.494 -17.592  0.00  0.00    +0.096 C 
BRANCH  21  23
ATOM     22  O   UNL     1      36.026 -23.940 -16.410  0.00  0.00    -0.251 OA
ATOM     23  N   UNL     1      36.348 -21.652 -16.299  0.00  0.00    -0.287 N 
ATOM     24  N   UNL     1      35.346 -22.777 -14.501  0.00  0.00    -0.169 N 
ATOM     25  C   UNL     1      35.926 -22.876 -15.806  0.00  0.00    +0.319 C 
ATOM     26  H   UNL     1      36.223 -20.853 -15.739  0.00  0.00    +0.151 HD
ATOM     27  H   UNL     1      35.303 -21.882 -14.093  0.00  0.00    +0.178 HD
BRANCH  24  28
ATOM     28  S   UNL     1      34.722 -24.084 -13.594  0.00  0.00    +0.077 S 
ATOM     29  O   UNL     1      35.377 -25.311 -14.006  0.00  0.00    -0.150 OA
ATOM     30  O   UNL     1      34.670 -23.714 -12.192  0.00  0.00    -0.150 OA
BRANCH  28  31
ATOM     31  C   UNL     1      33.053 -24.130 -14.172  0.00  0.00    +0.125 C 
ATOM     32  C   UNL     1      32.198 -25.108 -13.693  0.00  0.00    +0.020 C 
ATOM     33  C   UNL     1      32.631 -23.188 -15.093  0.00  0.00    +0.020 C 
ATOM     34  C   UNL     1      30.438 -24.202 -15.077  0.00  0.00    -0.022 C 
ATOM     35  C   UNL     1      30.880 -25.144 -14.149  0.00  0.00    -0.003 C 
ATOM     36  C   UNL     1      31.313 -23.224 -15.550  0.00  0.00    -0.003 C 
ATOM     37  C   UNL     1      29.029 -24.239 -15.564  0.00  0.00    +0.031 C 
ENDBRANCH  28  31
ENDBRANCH  24  28
ENDBRANCH  21  23
ENDBRANCH  20  21
ENDBRANCH   2  20
TORSDOF 7
ENDMDL
MODEL 4
REMARK VINA RESULT:     -12.9      4.540     11.359
REMARK  Name = 11677589
REMARK  7 active torsions:
REMARK  status: ('A' for Active; 'I' for Inactive)
REMARK    1  A    between atoms: C_1  and  N_7
REMARK    2  A    between atoms: C_2  and  C_20
REMARK    3  A    between atoms: C_11  and  C_18
REMARK    4  A    between atoms: C_20  and  C_21
REMARK    5  A    between atoms: C_21  and  N_23
REMARK    6  A    between atoms: N_24  and  S_28
REMARK    7  A    between atoms: S_28  and  C_31
REMARK                            x       y       z     vdW  Elec       q    Type
REMARK                         _______ _______ _______ _____ _____    ______ ____
ROOT
ATOM      1  C   UNL     1      35.328 -18.547 -22.069  0.00  0.00    +0.058 C 
ATOM      2  C   UNL     1      36.137 -20.356 -20.124  0.00  0.00    -0.020 C 
ATOM      3  C   UNL     1      36.643 -18.531 -21.624  0.00  0.00    +0.015 C 
ATOM      4  C   UNL     1      34.411 -19.456 -21.555  0.00  0.00    +0.015 C 
ATOM      5  C   UNL     1      37.049 -19.439 -20.646  0.00  0.00    -0.003 C 
ATOM      6  C   UNL     1      34.818 -20.364 -20.577  0.00  0.00    -0.003 C 
ENDROOT
BRANCH   1   7
ATOM      7  N   UNL     1      34.920 -17.639 -23.047  0.00  0.00    -0.242 N 
ATOM      8  N   UNL     1      34.553 -16.774 -25.062  0.00  0.00    -0.387 NA
ATOM      9  N   UNL     1      33.195 -13.943 -23.097  0.00  0.00    -0.408 NA
ATOM     10  C   UNL     1      34.344 -16.416 -22.821  0.00  0.00    +0.091 C 
ATOM     11  C   UNL     1      35.023 -17.808 -24.400  0.00  0.00    +0.168 C 
ATOM     12  C   UNL     1      34.126 -15.897 -24.094  0.00  0.00    +0.172 C 
ATOM     13  C   UNL     1      34.007 -15.738 -21.658  0.00  0.00    +0.045 C 
ATOM     14  C   UNL     1      33.539 -14.636 -24.211  0.00  0.00    +0.140 C 
ATOM     15  C   UNL     1      33.431 -14.495 -21.882  0.00  0.00    +0.110 C 
ATOM     16  C   UNL     1      33.259 -13.985 -25.523  0.00  0.00    +0.069 C 
ATOM     17  C   UNL     1      33.026 -13.675 -20.700  0.00  0.00    +0.066 C 
BRANCH  11  18
ATOM     18  C   UNL     1      35.603 -19.024 -25.010  0.00  0.00    +0.075 C 
ATOM     19  C   UNL     1      34.642 -20.217 -24.977  0.00  0.00    +0.009 C 
ENDBRANCH  11  18
ENDBRANCH   1   7
BRANCH   2  20
ATOM     20  C   UNL     1      36.572 -21.327 -19.078  0.00  0.00    +0.048 C 
BRANCH  20  21
ATOM     21  C   UNL     1      35.475 -22.315 -18.666  0.00  0.00    +0.096 C 
BRANCH  21  23
ATOM     22  O   UNL     1      33.937 -24.237 -17.185  0.00  0.00    -0.251 OA
ATOM     23  N   UNL     1      35.286 -22.359 -17.241  0.00  0.00    -0.287 N 
ATOM     24  N   UNL     1      34.482 -23.156 -15.187  0.00  0.00    -0.169 N 
ATOM     25  C   UNL     1      34.524 -23.327 -16.607  0.00  0.00    +0.319 C 
ATOM     26  H   UNL     1      35.718 -21.668 -16.689  0.00  0.00    +0.151 HD
ATOM     27  H   UNL     1      34.979 -22.395 -14.808  0.00  0.00    +0.178 HD
BRANCH  24  28
ATOM     28  S   UNL     1      33.638 -24.164 -14.094  0.00  0.00    +0.077 S 
ATOM     29  O   UNL     1      34.009 -25.546 -14.331  0.00  0.00    -0.150 OA
ATOM     30  O   UNL     1      33.719 -23.599 -12.761  0.00  0.00    -0.150 OA
BRANCH  28  31
ATOM     31  C   UNL     1      31.973 -23.940 -14.644  0.00  0.00    +0.125 C 
ATOM     32  C   UNL     1      31.508 -22.659 -14.887  0.00  0.00    +0.020 C 
ATOM     33  C   UNL     1      31.165 -25.049 -14.821  0.00  0.00    +0.020 C 
ATOM     34  C   UNL     1      29.366 -23.589 -15.505  0.00  0.00    -0.022 C 
ATOM     35  C   UNL     1      30.194 -22.482 -15.321  0.00  0.00    -0.003 C 
ATOM     36  C   UNL     1      29.851 -24.872 -15.255  0.00  0.00    -0.003 C 
ATOM     37  C   UNL     1      27.962 -23.400 -15.970  0.00  0.00    +0.031 C 
ENDBRANCH  28  31
ENDBRANCH  24  28
ENDBRANCH  21  23
ENDBRANCH  20  21
ENDBRANCH   2  20
TORSDOF 7
ENDMDL
MODEL 5
REMARK VINA RESULT:     -12.8      0.838      3.046
REMARK  Name = 11677589
REMARK  7 active torsions:
REMARK  status: ('A' for Active; 'I' for Inactive)
REMARK    1  A    between atoms: C_1  and  N_7
REMARK    2  A    between atoms: C_2  and  C_20
REMARK    3  A    between atoms: C_11  and  C_18
REMARK    4  A    between atoms: C_20  and  C_21
REMARK    5  A    between atoms: C_21  and  N_23
REMARK    6  A    between atoms: N_24  and  S_28
REMARK    7  A    between atoms: S_28  and  C_31
REMARK                            x       y       z     vdW  Elec       q    Type
REMARK                         _______ _______ _______ _____ _____    ______ ____
ROOT
ATOM      1  C   UNL     1      35.845 -22.572 -17.092  0.00  0.00    +0.058 C 
ATOM      2  C   UNL     1      35.513 -21.388 -19.582  0.00  0.00    -0.020 C 
ATOM      3  C   UNL     1      36.873 -21.810 -17.630  0.00  0.00    +0.015 C 
ATOM      4  C   UNL     1      34.653 -22.750 -17.782  0.00  0.00    +0.015 C 
ATOM      5  C   UNL     1      36.707 -21.215 -18.881  0.00  0.00    -0.003 C 
ATOM      6  C   UNL     1      34.486 -22.155 -19.033  0.00  0.00    -0.003 C 
ENDROOT
BRANCH   1   7
ATOM      7  N   UNL     1      36.011 -23.168 -15.841  0.00  0.00    -0.242 N 
ATOM      8  N   UNL     1      37.025 -24.117 -14.105  0.00  0.00    -0.387 NA
ATOM      9  N   UNL     1      33.586 -24.218 -12.734  0.00  0.00    -0.408 NA
ATOM     10  C   UNL     1      35.017 -23.430 -14.934  0.00  0.00    +0.091 C 
ATOM     11  C   UNL     1      37.192 -23.596 -15.300  0.00  0.00    +0.168 C 
ATOM     12  C   UNL     1      35.676 -24.022 -13.861  0.00  0.00    +0.172 C 
ATOM     13  C   UNL     1      33.646 -23.211 -14.956  0.00  0.00    +0.045 C 
ATOM     14  C   UNL     1      34.927 -24.415 -12.751  0.00  0.00    +0.140 C 
ATOM     15  C   UNL     1      32.994 -23.637 -13.807  0.00  0.00    +0.110 C 
ATOM     16  C   UNL     1      35.529 -25.057 -11.547  0.00  0.00    +0.069 C 
ATOM     17  C   UNL     1      31.514 -23.452 -13.718  0.00  0.00    +0.066 C 
BRANCH  11  18
ATOM     18  C   UNL     1      38.484 -23.471 -16.008  0.00  0.00    +0.075 C 
ATOM     19  C   UNL     1      39.565 -24.391 -15.431  0.00  0.00    +0.009 C 
ENDBRANCH  11  18
ENDBRANCH   1   7
BRANCH   2  20
ATOM     20  C   UNL     1      35.336 -20.752 -20.919  0.00  0.00    +0.048 C 
BRANCH  20  21
ATOM     21  C   UNL     1      36.305 -19.593 -21.181  0.00  0.00    +0.096 C 
BRANCH  21  23
ATOM     22  O   UNL     1      35.841 -18.101 -23.591  0.00  0.00    -0.251 OA
ATOM     23  N   UNL     1      35.627 -18.330 -21.300  0.00  0.00    -0.287 N 
ATOM     24  N   UNL     1      34.749 -16.436 -22.369  0.00  0.00    -0.169 N 
ATOM     25  C   UNL     1      35.447 -17.678 -22.508  0.00  0.00    +0.319 C 
ATOM     26  H   UNL     1      35.275 -17.909 -20.483  0.00  0.00    +0.151 HD
ATOM     27  H   UNL     1      34.474 -16.172 -21.462  0.00  0.00    +0.178 HD
BRANCH  24  28
ATOM     28  S   UNL     1      34.356 -15.373 -23.649  0.00  0.00    +0.077 S 
ATOM     29  O   UNL     1      35.569 -14.761 -24.155  0.00  0.00    -0.150 OA
ATOM     30  O   UNL     1      33.433 -16.033 -24.553  0.00  0.00    -0.150 OA
BRANCH  28  31
ATOM     31  C   UNL     1      33.432 -14.136 -22.790  0.00  0.00    +0.125 C 
ATOM     32  C   UNL     1      33.189 -12.922 -23.408  0.00  0.00    +0.020 C 
ATOM     33  C   UNL     1      32.968 -14.404 -21.513  0.00  0.00    +0.020 C 
ATOM     34  C   UNL     1      31.984 -12.198 -21.443  0.00  0.00    -0.022 C 
ATOM     35  C   UNL     1      32.459 -11.945 -22.729  0.00  0.00    -0.003 C 
ATOM     36  C   UNL     1      32.238 -13.428 -20.835  0.00  0.00    -0.003 C 
ATOM     37  C   UNL     1      31.203 -11.155 -20.719  0.00  0.00    +0.031 C 
ENDBRANCH  28  31
ENDBRANCH  24  28
ENDBRANCH  21  23
ENDBRANCH  20  21
ENDBRANCH   2  20
TORSDOF 7
ENDMDL
MODEL 6
REMARK VINA RESULT:     -12.7      4.240     12.156
REMARK  Name = 11677589
REMARK  7 active torsions:
REMARK  status: ('A' for Active; 'I' for Inactive)
REMARK    1  A    between atoms: C_1  and  N_7
REMARK    2  A    between atoms: C_2  and  C_20
REMARK    3  A    between atoms: C_11  and  C_18
REMARK    4  A    between atoms: C_20  and  C_21
REMARK    5  A    between atoms: C_21  and  N_23
REMARK    6  A    between atoms: N_24  and  S_28
REMARK    7  A    between atoms: S_28  and  C_31
REMARK                            x       y       z     vdW  Elec       q    Type
REMARK                         _______ _______ _______ _____ _____    ______ ____
ROOT
ATOM      1  C   UNL     1      35.304 -18.615 -22.084  0.00  0.00    +0.058 C 
ATOM      2  C   UNL     1      36.010 -20.521 -20.191  0.00  0.00    -0.020 C 
ATOM      3  C   UNL     1      34.334 -19.471 -21.578  0.00  0.00    +0.015 C 
ATOM      4  C   UNL     1      36.623 -18.699 -21.656  0.00  0.00    +0.015 C 
ATOM      5  C   UNL     1      34.689 -20.428 -20.627  0.00  0.00    -0.003 C 
ATOM      6  C   UNL     1      36.978 -19.657 -20.705  0.00  0.00    -0.003 C 
ENDROOT
BRANCH   1   7
ATOM      7  N   UNL     1      34.950 -17.658 -23.035  0.00  0.00    -0.242 N 
ATOM      8  N   UNL     1      34.652 -16.710 -25.024  0.00  0.00    -0.387 NA
ATOM      9  N   UNL     1      33.384 -13.892 -22.982  0.00  0.00    -0.408 NA
ATOM     10  C   UNL     1      34.423 -16.419 -22.776  0.00  0.00    +0.091 C 
ATOM     11  C   UNL     1      35.068 -17.785 -24.392  0.00  0.00    +0.168 C 
ATOM     12  C   UNL     1      34.246 -15.849 -24.033  0.00  0.00    +0.172 C 
ATOM     13  C   UNL     1      34.097 -15.768 -21.594  0.00  0.00    +0.045 C 
ATOM     14  C   UNL     1      33.715 -14.561 -24.114  0.00  0.00    +0.140 C 
ATOM     15  C   UNL     1      33.577 -14.495 -21.783  0.00  0.00    +0.110 C 
ATOM     16  C   UNL     1      33.483 -13.854 -25.406  0.00  0.00    +0.069 C 
ATOM     17  C   UNL     1      33.189 -13.698 -20.580  0.00  0.00    +0.066 C 
BRANCH  11  18
ATOM     18  C   UNL     1      35.605 -19.003 -25.035  0.00  0.00    +0.075 C 
ATOM     19  C   UNL     1      34.609 -20.167 -25.020  0.00  0.00    +0.009 C 
ENDBRANCH  11  18
ENDBRANCH   1   7
BRANCH   2  20
ATOM     20  C   UNL     1      36.390 -21.545 -19.175  0.00  0.00    +0.048 C 
BRANCH  20  21
ATOM     21  C   UNL     1      35.195 -22.106 -18.395  0.00  0.00    +0.096 C 
BRANCH  21  23
ATOM     22  O   UNL     1      35.111 -24.306 -16.550  0.00  0.00    -0.251 OA
ATOM     23  N   UNL     1      35.397 -22.050 -16.972  0.00  0.00    -0.287 N 
ATOM     24  N   UNL     1      35.567 -22.855 -14.775  0.00  0.00    -0.169 N 
ATOM     25  C   UNL     1      35.338 -23.166 -16.154  0.00  0.00    +0.319 C 
ATOM     26  H   UNL     1      35.585 -21.176 -16.559  0.00  0.00    +0.151 HD
ATOM     27  H   UNL     1      35.737 -21.913 -14.547  0.00  0.00    +0.178 HD
BRANCH  24  28
ATOM     28  S   UNL     1      35.567 -23.986 -13.494  0.00  0.00    +0.077 S 
ATOM     29  O   UNL     1      35.635 -23.279 -12.229  0.00  0.00    -0.150 OA
ATOM     30  O   UNL     1      34.533 -24.976 -13.728  0.00  0.00    -0.150 OA
BRANCH  28  31
ATOM     31  C   UNL     1      37.117 -24.794 -13.756  0.00  0.00    +0.125 C 
ATOM     32  C   UNL     1      37.186 -25.851 -14.647  0.00  0.00    +0.020 C 
ATOM     33  C   UNL     1      38.233 -24.355 -13.066  0.00  0.00    +0.020 C 
ATOM     34  C   UNL     1      39.545 -26.059 -14.167  0.00  0.00    -0.022 C 
ATOM     35  C   UNL     1      38.410 -26.489 -14.854  0.00  0.00    -0.003 C 
ATOM     36  C   UNL     1      39.457 -24.992 -13.273  0.00  0.00    -0.003 C 
ATOM     37  C   UNL     1      40.852 -26.740 -14.390  0.00  0.00    +0.031 C 
ENDBRANCH  28  31
ENDBRANCH  24  28
ENDBRANCH  21  23
ENDBRANCH  20  21
ENDBRANCH   2  20
TORSDOF 7
ENDMDL
MODEL 7
REMARK VINA RESULT:     -12.7      4.549     11.944
REMARK  Name = 11677589
REMARK  7 active torsions:
REMARK  status: ('A' for Active; 'I' for Inactive)
REMARK    1  A    between atoms: C_1  and  N_7
REMARK    2  A    between atoms: C_2  and  C_20
REMARK    3  A    between atoms: C_11  and  C_18
REMARK    4  A    between atoms: C_20  and  C_21
REMARK    5  A    between atoms: C_21  and  N_23
REMARK    6  A    between atoms: N_24  and  S_28
REMARK    7  A    between atoms: S_28  and  C_31
REMARK                            x       y       z     vdW  Elec       q    Type
REMARK                         _______ _______ _______ _____ _____    ______ ____
ROOT
ATOM      1  C   UNL     1      35.387 -19.083 -21.657  0.00  0.00    +0.058 C 
ATOM      2  C   UNL     1      35.917 -20.979 -19.699  0.00  0.00    -0.020 C 
ATOM      3  C   UNL     1      34.367 -19.917 -21.217  0.00  0.00    +0.015 C 
ATOM      4  C   UNL     1      36.668 -19.185 -21.132  0.00  0.00    +0.015 C 
ATOM      5  C   UNL     1      34.634 -20.869 -20.233  0.00  0.00    -0.003 C 
ATOM      6  C   UNL     1      36.935 -20.137 -20.149  0.00  0.00    -0.003 C 
ENDROOT
BRANCH   1   7
ATOM      7  N   UNL     1      35.121 -18.130 -22.642  0.00  0.00    -0.242 N 
ATOM      8  N   UNL     1      34.992 -17.197 -24.656  0.00  0.00    -0.387 NA
ATOM      9  N   UNL     1      33.601 -14.346 -22.743  0.00  0.00    -0.408 NA
ATOM     10  C   UNL     1      34.590 -16.883 -22.434  0.00  0.00    +0.091 C 
ATOM     11  C   UNL     1      35.343 -18.271 -23.983  0.00  0.00    +0.168 C 
ATOM     12  C   UNL     1      34.520 -16.322 -23.706  0.00  0.00    +0.172 C 
ATOM     13  C   UNL     1      34.179 -16.218 -21.288  0.00  0.00    +0.045 C 
ATOM     14  C   UNL     1      34.013 -15.029 -23.840  0.00  0.00    +0.140 C 
ATOM     15  C   UNL     1      33.691 -14.941 -21.528  0.00  0.00    +0.110 C 
ATOM     16  C   UNL     1      33.892 -14.331 -25.152  0.00  0.00    +0.069 C 
ATOM     17  C   UNL     1      33.219 -14.129 -20.365  0.00  0.00    +0.066 C 
BRANCH  11  18
ATOM     18  C   UNL     1      35.915 -19.501 -24.572  0.00  0.00    +0.075 C 
ATOM     19  C   UNL     1      34.840 -20.467 -25.081  0.00  0.00    +0.009 C 
ENDBRANCH  11  18
ENDBRANCH   1   7
BRANCH   2  20
ATOM     20  C   UNL     1      36.203 -21.998 -18.648  0.00  0.00    +0.048 C 
BRANCH  20  21
ATOM     21  C   UNL     1      36.744 -21.399 -17.345  0.00  0.00    +0.096 C 
BRANCH  21  23
ATOM     22  O   UNL     1      36.745 -23.828 -15.811  0.00  0.00    -0.251 OA
ATOM     23  N   UNL     1      37.892 -22.110 -16.852  0.00  0.00    -0.287 N 
ATOM     24  N   UNL     1      39.080 -23.797 -15.734  0.00  0.00    -0.169 N 
ATOM     25  C   UNL     1      37.801 -23.281 -16.116  0.00  0.00    +0.319 C 
ATOM     26  H   UNL     1      38.787 -21.747 -17.045  0.00  0.00    +0.151 HD
ATOM     27  H   UNL     1      39.875 -23.290 -16.019  0.00  0.00    +0.178 HD
BRANCH  24  28
ATOM     28  S   UNL     1      39.341 -25.220 -14.824  0.00  0.00    +0.077 S 
ATOM     29  O   UNL     1      38.838 -26.362 -15.563  0.00  0.00    -0.150 OA
ATOM     30  O   UNL     1      40.696 -25.216 -14.308  0.00  0.00    -0.150 OA
BRANCH  28  31
ATOM     31  C   UNL     1      38.269 -24.941 -13.446  0.00  0.00    +0.125 C 
ATOM     32  C   UNL     1      37.281 -25.866 -13.159  0.00  0.00    +0.020 C 
ATOM     33  C   UNL     1      38.438 -23.801 -12.679  0.00  0.00    +0.020 C 
ATOM     34  C   UNL     1      36.592 -24.503 -11.288  0.00  0.00    -0.022 C 
ATOM     35  C   UNL     1      36.436 -25.646 -12.071  0.00  0.00    -0.003 C 
ATOM     36  C   UNL     1      37.593 -23.580 -11.591  0.00  0.00    -0.003 C 
ATOM     37  C   UNL     1      35.689 -24.268 -10.125  0.00  0.00    +0.031 C 
ENDBRANCH  28  31
ENDBRANCH  24  28
ENDBRANCH  21  23
ENDBRANCH  20  21
ENDBRANCH   2  20
TORSDOF 7
ENDMDL
MODEL 8
REMARK VINA RESULT:     -12.7      2.175      3.952
REMARK  Name = 11677589
REMARK  7 active torsions:
REMARK  status: ('A' for Active; 'I' for Inactive)
REMARK    1  A    between atoms: C_1  and  N_7
REMARK    2  A    between atoms: C_2  and  C_20
REMARK    3  A    between atoms: C_11  and  C_18
REMARK    4  A    between atoms: C_20  and  C_21
REMARK    5  A    between atoms: C_21  and  N_23
REMARK    6  A    between atoms: N_24  and  S_28
REMARK    7  A    between atoms: S_28  and  C_31
REMARK                            x       y       z     vdW  Elec       q    Type
REMARK                         _______ _______ _______ _____ _____    ______ ____
ROOT
ATOM      1  C   UNL     1      34.577 -21.684 -18.948  0.00  0.00    +0.058 C 
ATOM      2  C   UNL     1      34.661 -20.252 -21.326  0.00  0.00    -0.020 C 
ATOM      3  C   UNL     1      33.391 -21.271 -19.541  0.00  0.00    +0.015 C 
ATOM      4  C   UNL     1      35.804 -21.392 -19.528  0.00  0.00    +0.015 C 
ATOM      5  C   UNL     1      33.434 -20.551 -20.735  0.00  0.00    -0.003 C 
ATOM      6  C   UNL     1      35.847 -20.672 -20.723  0.00  0.00    -0.003 C 
ENDROOT
BRANCH   1   7
ATOM      7  N   UNL     1      34.535 -22.404 -17.753  0.00  0.00    -0.242 N 
ATOM      8  N   UNL     1      35.253 -23.465 -15.936  0.00  0.00    -0.387 NA
ATOM      9  N   UNL     1      31.630 -23.979 -15.363  0.00  0.00    -0.408 NA
ATOM     10  C   UNL     1      33.404 -22.841 -17.114  0.00  0.00    +0.091 C 
ATOM     11  C   UNL     1      35.614 -22.801 -17.011  0.00  0.00    +0.168 C 
ATOM     12  C   UNL     1      33.880 -23.500 -15.983  0.00  0.00    +0.172 C 
ATOM     13  C   UNL     1      32.054 -22.725 -17.412  0.00  0.00    +0.045 C 
ATOM     14  C   UNL     1      32.958 -24.071 -15.106  0.00  0.00    +0.140 C 
ATOM     15  C   UNL     1      31.221 -23.326 -16.478  0.00  0.00    +0.110 C 
ATOM     16  C   UNL     1      33.355 -24.800 -13.866  0.00  0.00    +0.069 C 
ATOM     17  C   UNL     1      29.744 -23.263 -16.696  0.00  0.00    +0.066 C 
BRANCH  11  18
ATOM     18  C   UNL     1      37.007 -22.500 -17.406  0.00  0.00    +0.075 C 
ATOM     19  C   UNL     1      37.731 -21.615 -16.386  0.00  0.00    +0.009 C 
ENDBRANCH  11  18
ENDBRANCH   1   7
BRANCH   2  20
ATOM     20  C   UNL     1      34.706 -19.482 -22.602  0.00  0.00    +0.048 C 
BRANCH  20  21
ATOM     21  C   UNL     1      35.732 -18.342 -22.594  0.00  0.00    +0.096 C 
BRANCH  21  23
ATOM     22  O   UNL     1      34.832 -16.480 -24.588  0.00  0.00    -0.251 OA
ATOM     23  N   UNL     1      35.121 -17.060 -22.367  0.00  0.00    -0.287 N 
ATOM     24  N   UNL     1      34.142 -15.000 -22.916  0.00  0.00    -0.169 N 
ATOM     25  C   UNL     1      34.716 -16.222 -23.393  0.00  0.00    +0.319 C 
ATOM     26  H   UNL     1      34.986 -16.763 -21.438  0.00  0.00    +0.151 HD
ATOM     27  H   UNL     1      34.092 -14.875 -21.941  0.00  0.00    +0.178 HD
BRANCH  24  28
ATOM     28  S   UNL     1      33.538 -13.741 -23.901  0.00  0.00    +0.077 S 
ATOM     29  O   UNL     1      34.646 -13.050 -24.531  0.00  0.00    -0.150 OA
ATOM     30  O   UNL     1      32.435 -14.244 -24.699  0.00  0.00    -0.150 OA
BRANCH  28  31
ATOM     31  C   UNL     1      32.838 -12.666 -22.685  0.00  0.00    +0.125 C 
ATOM     32  C   UNL     1      32.520 -13.173 -21.437  0.00  0.00    +0.020 C 
ATOM     33  C   UNL     1      32.621 -11.337 -23.002  0.00  0.00    +0.020 C 
ATOM     34  C   UNL     1      31.743 -10.982 -20.780  0.00  0.00    -0.022 C 
ATOM     35  C   UNL     1      31.969 -12.324 -20.477  0.00  0.00    -0.003 C 
ATOM     36  C   UNL     1      32.070 -10.488 -22.043  0.00  0.00    -0.003 C 
ATOM     37  C   UNL     1      31.155 -10.075 -19.753  0.00  0.00    +0.031 C 
ENDBRANCH  28  31
ENDBRANCH  24  28
ENDBRANCH  21  23
ENDBRANCH  20  21
ENDBRANCH   2  20
TORSDOF 7
ENDMDL
MODEL 9
REMARK VINA RESULT:     -12.6      7.489     11.871
REMARK  Name = 11677589
REMARK  7 active torsions:
REMARK  status: ('A' for Active; 'I' for Inactive)
REMARK    1  A    between atoms: C_1  and  N_7
REMARK    2  A    between atoms: C_2  and  C_20
REMARK    3  A    between atoms: C_11  and  C_18
REMARK    4  A    between atoms: C_20  and  C_21
REMARK    5  A    between atoms: C_21  and  N_23
REMARK    6  A    between atoms: N_24  and  S_28
REMARK    7  A    between atoms: S_28  and  C_31
REMARK                            x       y       z     vdW  Elec       q    Type
REMARK                         _______ _______ _______ _____ _____    ______ ____
ROOT
ATOM      1  C   UNL     1      33.475 -13.933 -23.817  0.00  0.00    +0.058 C 
ATOM      2  C   UNL     1      32.888 -11.445 -22.733  0.00  0.00    -0.020 C 
ATOM      3  C   UNL     1      34.144 -12.808 -24.282  0.00  0.00    +0.015 C 
ATOM      4  C   UNL     1      32.516 -13.831 -22.818  0.00  0.00    +0.015 C 
ATOM      5  C   UNL     1      33.849 -11.558 -23.737  0.00  0.00    -0.003 C 
ATOM      6  C   UNL     1      32.221 -12.581 -22.273  0.00  0.00    -0.003 C 
ENDROOT
BRANCH   1   7
ATOM      7  N   UNL     1      33.770 -15.184 -24.362  0.00  0.00    -0.242 N 
ATOM      8  N   UNL     1      33.895 -16.828 -25.853  0.00  0.00    -0.387 NA
ATOM      9  N   UNL     1      35.521 -18.627 -23.053  0.00  0.00    -0.408 NA
ATOM     10  C   UNL     1      34.385 -16.222 -23.711  0.00  0.00    +0.091 C 
ATOM     11  C   UNL     1      33.497 -15.594 -25.638  0.00  0.00    +0.168 C 
ATOM     12  C   UNL     1      34.450 -17.235 -24.663  0.00  0.00    +0.172 C 
ATOM     13  C   UNL     1      34.872 -16.362 -22.419  0.00  0.00    +0.045 C 
ATOM     14  C   UNL     1      35.033 -18.451 -24.306  0.00  0.00    +0.140 C 
ATOM     15  C   UNL     1      35.431 -17.607 -22.165  0.00  0.00    +0.110 C 
ATOM     16  C   UNL     1      35.156 -19.604 -25.244  0.00  0.00    +0.069 C 
ATOM     17  C   UNL     1      35.989 -17.872 -20.804  0.00  0.00    +0.066 C 
BRANCH  11  18
ATOM     18  C   UNL     1      32.831 -14.723 -26.630  0.00  0.00    +0.075 C 
ATOM     19  C   UNL     1      33.812 -13.793 -27.352  0.00  0.00    +0.009 C 
ENDBRANCH  11  18
ENDBRANCH   1   7
BRANCH   2  20
ATOM     20  C   UNL     1      32.571 -10.108 -22.151  0.00  0.00    +0.048 C 
BRANCH  20  21
ATOM     21  C   UNL     1      31.109  -9.688 -22.341  0.00  0.00    +0.096 C 
BRANCH  21  23
ATOM     22  O   UNL     1      31.958  -6.967 -21.984  0.00  0.00    -0.251 OA
ATOM     23  N   UNL     1      30.969  -8.608 -23.280  0.00  0.00    -0.287 N 
ATOM     24  N   UNL     1      31.153  -6.420 -24.108  0.00  0.00    -0.169 N 
ATOM     25  C   UNL     1      31.409  -7.319 -23.024  0.00  0.00    +0.319 C 
ATOM     26  H   UNL     1      30.539  -8.792 -24.146  0.00  0.00    +0.151 HD
ATOM     27  H   UNL     1      30.704  -6.788 -24.903  0.00  0.00    +0.178 HD
BRANCH  24  28
ATOM     28  S   UNL     1      31.561  -4.761 -24.134  0.00  0.00    +0.077 S 
ATOM     29  O   UNL     1      30.503  -4.016 -24.789  0.00  0.00    -0.150 OA
ATOM     30  O   UNL     1      32.036  -4.364 -22.822  0.00  0.00    -0.150 OA
BRANCH  28  31
ATOM     31  C   UNL     1      32.968  -4.775 -25.204  0.00  0.00    +0.125 C 
ATOM     32  C   UNL     1      33.926  -5.762 -25.048  0.00  0.00    +0.020 C 
ATOM     33  C   UNL     1      33.085  -3.799 -26.179  0.00  0.00    +0.020 C 
ATOM     34  C   UNL     1      35.171  -4.797 -26.880  0.00  0.00    -0.022 C 
ATOM     35  C   UNL     1      35.036  -5.773 -25.893  0.00  0.00    -0.003 C 
ATOM     36  C   UNL     1      34.196  -3.810 -27.024  0.00  0.00    -0.003 C 
ATOM     37  C   UNL     1      36.356  -4.810 -27.784  0.00  0.00    +0.031 C 
ENDBRANCH  28  31
ENDBRANCH  24  28
ENDBRANCH  21  23
ENDBRANCH  20  21
ENDBRANCH   2  20
TORSDOF 7
ENDMDL
