MODEL 1
REMARK VINA RESULT:     -12.9      0.000      0.000
REMARK  Name = 54671008
REMARK  7 active torsions:
REMARK  status: ('A' for Active; 'I' for Inactive)
REMARK    1  A    between atoms: C_4  and  C_21
REMARK    2  A    between atoms: C_6  and  C_11
REMARK    3  A    between atoms: C_8  and  O_34
REMARK    4  A    between atoms: N_10  and  C_13
REMARK    5  A    between atoms: C_13  and  C_15
REMARK    6  A    between atoms: C_21  and  N_25
REMARK    7  A    between atoms: C_26  and  C_31
REMARK                            x       y       z     vdW  Elec       q    Type
REMARK                         _______ _______ _______ _____ _____    ______ ____
ROOT
ATOM      1  O   UNL     1      36.133 -23.339 -14.794  0.00  0.00    -0.271 OA
ATOM      2  N   UNL     1      33.809 -23.627 -14.765  0.00  0.00    -0.232 N 
ATOM      3  N   UNL     1      32.582 -23.338 -16.781  0.00  0.00    -0.386 NA
ATOM      4  C   UNL     1      32.634 -23.606 -15.512  0.00  0.00    +0.182 C 
ATOM      5  C   UNL     1      35.042 -23.350 -15.362  0.00  0.00    +0.265 C 
ATOM      6  C   UNL     1      33.767 -23.062 -17.406  0.00  0.00    +0.199 C 
ATOM      7  C   UNL     1      33.752 -23.943 -13.339  0.00  0.00    +0.122 C 
ATOM      8  C   UNL     1      34.971 -23.045 -16.818  0.00  0.00    +0.245 C 
ENDROOT
BRANCH   6  11
ATOM      9  O   UNL     1      33.833 -23.651 -19.679  0.00  0.00    -0.268 OA
ATOM     10  N   UNL     1      33.428 -21.429 -19.099  0.00  0.00    -0.295 N 
ATOM     11  C   UNL     1      33.683 -22.764 -18.843  0.00  0.00    +0.275 C 
ATOM     12  H   UNL     1      33.328 -20.817 -18.335  0.00  0.00    +0.150 HD
BRANCH  10  13
ATOM     13  C   UNL     1      33.301 -20.889 -20.434  0.00  0.00    +0.117 C 
BRANCH  13  15
ATOM     14  F   UNL     1      38.076 -18.482 -22.196  0.00  0.00    -0.204 F 
ATOM     15  C   UNL     1      34.575 -20.247 -20.904  0.00  0.00    -0.002 C 
ATOM     16  C   UNL     1      35.774 -20.509 -20.240  0.00  0.00    -0.000 C 
ATOM     17  C   UNL     1      34.559 -19.389 -22.003  0.00  0.00    -0.000 C 
ATOM     18  C   UNL     1      36.956 -19.912 -20.677  0.00  0.00    +0.029 C 
ATOM     19  C   UNL     1      35.742 -18.793 -22.440  0.00  0.00    +0.029 C 
ATOM     20  C   UNL     1      36.940 -19.054 -21.776  0.00  0.00    +0.140 C 
ENDBRANCH  13  15
ENDBRANCH  10  13
ENDBRANCH   6  11
BRANCH   4  21
ATOM     21  C   UNL     1      31.336 -23.914 -14.806  0.00  0.00    +0.117 C 
ATOM     22  C   UNL     1      31.202 -25.418 -14.609  0.00  0.00    +0.028 C 
ATOM     23  C   UNL     1      31.283 -23.172 -13.477  0.00  0.00    +0.028 C 
BRANCH  21  25
ATOM     24  O   UNL     1      28.581 -24.711 -14.931  0.00  0.00    -0.265 OA
ATOM     25  N   UNL     1      30.338 -23.418 -15.718  0.00  0.00    -0.293 N 
ATOM     26  C   UNL     1      29.024 -23.865 -15.703  0.00  0.00    +0.302 C 
ATOM     27  H   UNL     1      30.599 -22.734 -16.378  0.00  0.00    +0.150 HD
BRANCH  26  31
ATOM     28  O   UNL     1      27.404 -22.155 -16.435  0.00  0.00    -0.416 OA
ATOM     29  N   UNL     1      27.925 -23.722 -17.943  0.00  0.00    -0.102 NA
ATOM     30  N   UNL     1      27.015 -22.859 -18.522  0.00  0.00    -0.111 NA
ATOM     31  C   UNL     1      28.123 -23.273 -16.726  0.00  0.00    +0.304 A 
ATOM     32  C   UNL     1      26.739 -21.960 -17.606  0.00  0.00    +0.227 A 
ATOM     33  C   UNL     1      25.836 -20.804 -17.669  0.00  0.00    +0.097 C 
ENDBRANCH  26  31
ENDBRANCH  21  25
ENDBRANCH   4  21
BRANCH   8  34
ATOM     34  O   UNL     1      36.142 -22.762 -17.483  0.00  0.00    -0.370 OA
ATOM     35  H   UNL     1      36.117 -22.490 -18.380  0.00  0.00    +0.211 HD
ENDBRANCH   8  34
TORSDOF 7
ENDMDL
MODEL 2
REMARK VINA RESULT:     -11.6      7.463     11.065
REMARK  Name = 54671008
REMARK  7 active torsions:
REMARK  status: ('A' for Active; 'I' for Inactive)
REMARK    1  A    between atoms: C_4  and  C_21
REMARK    2  A    between atoms: C_6  and  C_11
REMARK    3  A    between atoms: C_8  and  O_34
REMARK    4  A    between atoms: N_10  and  C_13
REMARK    5  A    between atoms: C_13  and  C_15
REMARK    6  A    between atoms: C_21  and  N_25
REMARK    7  A    between atoms: C_26  and  C_31
REMARK                            x       y       z     vdW  Elec       q    Type
REMARK                         _______ _______ _______ _____ _____    ______ ____
ROOT
ATOM      1  O   UNL     1      33.697 -14.771 -26.336  0.00  0.00    -0.271 OA
ATOM      2  N   UNL     1      33.573 -14.398 -24.028  0.00  0.00    -0.232 N 
ATOM      3  N   UNL     1      34.389 -16.063 -22.540  0.00  0.00    -0.386 NA
ATOM      4  C   UNL     1      33.840 -14.908 -22.760  0.00  0.00    +0.182 C 
ATOM      5  C   UNL     1      33.893 -15.129 -25.175  0.00  0.00    +0.265 C 
ATOM      6  C   UNL     1      34.720 -16.812 -23.636  0.00  0.00    +0.199 C 
ATOM      7  C   UNL     1      32.952 -13.081 -24.159  0.00  0.00    +0.122 C 
ATOM      8  C   UNL     1      34.523 -16.452 -24.912  0.00  0.00    +0.245 C 
ENDROOT
BRANCH   6  11
ATOM      9  O   UNL     1      35.363 -18.994 -24.220  0.00  0.00    -0.268 OA
ATOM     10  N   UNL     1      35.860 -18.204 -22.084  0.00  0.00    -0.295 N 
ATOM     11  C   UNL     1      35.341 -18.116 -23.362  0.00  0.00    +0.275 C 
ATOM     12  H   UNL     1      35.776 -17.423 -21.490  0.00  0.00    +0.150 HD
BRANCH  10  13
ATOM     13  C   UNL     1      36.520 -19.385 -21.577  0.00  0.00    +0.117 C 
BRANCH  13  15
ATOM     14  F   UNL     1      33.019 -22.652 -18.616  0.00  0.00    -0.204 F 
ATOM     15  C   UNL     1      35.586 -20.256 -20.787  0.00  0.00    -0.002 C 
ATOM     16  C   UNL     1      36.097 -21.260 -19.964  0.00  0.00    -0.000 C 
ATOM     17  C   UNL     1      34.208 -20.062 -20.876  0.00  0.00    -0.000 C 
ATOM     18  C   UNL     1      35.230 -22.069 -19.231  0.00  0.00    +0.029 C 
ATOM     19  C   UNL     1      33.340 -20.872 -20.143  0.00  0.00    +0.029 C 
ATOM     20  C   UNL     1      33.852 -21.875 -19.320  0.00  0.00    +0.140 C 
ENDBRANCH  13  15
ENDBRANCH  10  13
ENDBRANCH   6  11
BRANCH   4  21
ATOM     21  C   UNL     1      33.470 -14.067 -21.561  0.00  0.00    +0.117 C 
ATOM     22  C   UNL     1      32.302 -14.708 -20.825  0.00  0.00    +0.028 C 
ATOM     23  C   UNL     1      34.680 -13.905 -20.652  0.00  0.00    +0.028 C 
BRANCH  21  25
ATOM     24  O   UNL     1      32.218 -11.861 -20.218  0.00  0.00    -0.265 OA
ATOM     25  N   UNL     1      33.087 -12.809 -22.148  0.00  0.00    -0.293 N 
ATOM     26  C   UNL     1      32.484 -11.796 -21.415  0.00  0.00    +0.302 C 
ATOM     27  H   UNL     1      33.261 -12.661 -23.106  0.00  0.00    +0.150 HD
BRANCH  26  31
ATOM     28  O   UNL     1      33.100  -9.690 -22.541  0.00  0.00    -0.416 OA
ATOM     29  N   UNL     1      30.923 -10.207 -22.549  0.00  0.00    -0.102 NA
ATOM     30  N   UNL     1      31.080  -9.008 -23.218  0.00  0.00    -0.111 NA
ATOM     31  C   UNL     1      32.128 -10.568 -22.172  0.00  0.00    +0.304 A 
ATOM     32  C   UNL     1      32.365  -8.745 -23.189  0.00  0.00    +0.227 A 
ATOM     33  C   UNL     1      33.100  -7.601 -23.744  0.00  0.00    +0.097 C 
ENDBRANCH  26  31
ENDBRANCH  21  25
ENDBRANCH   4  21
BRANCH   8  34
ATOM     34  O   UNL     1      34.870 -17.235 -25.989  0.00  0.00    -0.370 OA
ATOM     35  H   UNL     1      34.760 -16.910 -26.860  0.00  0.00    +0.211 HD
ENDBRANCH   8  34
TORSDOF 7
ENDMDL
MODEL 3
REMARK VINA RESULT:     -11.4      2.478      6.146
REMARK  Name = 54671008
REMARK  7 active torsions:
REMARK  status: ('A' for Active; 'I' for Inactive)
REMARK    1  A    between atoms: C_4  and  C_21
REMARK    2  A    between atoms: C_6  and  C_11
REMARK    3  A    between atoms: C_8  and  O_34
REMARK    4  A    between atoms: N_10  and  C_13
REMARK    5  A    between atoms: C_13  and  C_15
REMARK    6  A    between atoms: C_21  and  N_25
REMARK    7  A    between atoms: C_26  and  C_31
REMARK                            x       y       z     vdW  Elec       q    Type
REMARK                         _______ _______ _______ _____ _____    ______ ____
ROOT
ATOM      1  O   UNL     1      30.102 -22.255 -17.100  0.00  0.00    -0.271 OA
ATOM      2  N   UNL     1      31.676 -23.266 -15.691  0.00  0.00    -0.232 N 
ATOM      3  N   UNL     1      33.903 -23.562 -16.468  0.00  0.00    -0.386 NA
ATOM      4  C   UNL     1      32.995 -23.689 -15.550  0.00  0.00    +0.182 C 
ATOM      5  C   UNL     1      31.241 -22.660 -16.873  0.00  0.00    +0.265 C 
ATOM      6  C   UNL     1      33.521 -22.973 -17.642  0.00  0.00    +0.199 C 
ATOM      7  C   UNL     1      30.735 -23.457 -14.589  0.00  0.00    +0.122 C 
ATOM      8  C   UNL     1      32.291 -22.519 -17.920  0.00  0.00    +0.245 C 
ENDROOT
BRANCH   6  11
ATOM      9  O   UNL     1      34.551 -23.539 -19.675  0.00  0.00    -0.268 OA
ATOM     10  N   UNL     1      35.509 -21.879 -18.348  0.00  0.00    -0.295 N 
ATOM     11  C   UNL     1      34.567 -22.839 -18.666  0.00  0.00    +0.275 C 
ATOM     12  H   UNL     1      35.407 -21.385 -17.503  0.00  0.00    +0.150 HD
BRANCH  10  13
ATOM     13  C   UNL     1      36.636 -21.564 -19.197  0.00  0.00    +0.117 C 
BRANCH  13  15
ATOM     14  F   UNL     1      35.393 -17.553 -22.948  0.00  0.00    -0.204 F 
ATOM     15  C   UNL     1      36.304 -20.494 -20.197  0.00  0.00    -0.002 C 
ATOM     16  C   UNL     1      37.299 -19.624 -20.643  0.00  0.00    -0.000 C 
ATOM     17  C   UNL     1      35.002 -20.371 -20.681  0.00  0.00    -0.000 C 
ATOM     18  C   UNL     1      36.991 -18.631 -21.572  0.00  0.00    +0.029 C 
ATOM     19  C   UNL     1      34.694 -19.377 -21.610  0.00  0.00    +0.029 C 
ATOM     20  C   UNL     1      35.689 -18.507 -22.055  0.00  0.00    +0.140 C 
ENDBRANCH  13  15
ENDBRANCH  10  13
ENDBRANCH   6  11
BRANCH   4  21
ATOM     21  C   UNL     1      33.400 -24.336 -14.247  0.00  0.00    +0.117 C 
ATOM     22  C   UNL     1      33.548 -23.272 -13.168  0.00  0.00    +0.028 C 
ATOM     23  C   UNL     1      32.371 -25.388 -13.853  0.00  0.00    +0.028 C 
BRANCH  21  25
ATOM     24  O   UNL     1      35.548 -24.854 -12.414  0.00  0.00    -0.265 OA
ATOM     25  N   UNL     1      34.669 -24.940 -14.559  0.00  0.00    -0.293 N 
ATOM     26  C   UNL     1      35.651 -25.152 -13.601  0.00  0.00    +0.302 C 
ATOM     27  H   UNL     1      34.846 -25.215 -15.488  0.00  0.00    +0.150 HD
BRANCH  26  31
ATOM     28  O   UNL     1      38.106 -25.152 -13.841  0.00  0.00    -0.416 OA
ATOM     29  N   UNL     1      37.029 -26.881 -14.767  0.00  0.00    -0.102 NA
ATOM     30  N   UNL     1      38.382 -27.046 -14.998  0.00  0.00    -0.111 NA
ATOM     31  C   UNL     1      36.915 -25.763 -14.089  0.00  0.00    +0.304 A 
ATOM     32  C   UNL     1      38.971 -26.015 -14.441  0.00  0.00    +0.227 A 
ATOM     33  C   UNL     1      40.397 -25.673 -14.376  0.00  0.00    +0.097 C 
ENDBRANCH  26  31
ENDBRANCH  21  25
ENDBRANCH   4  21
BRANCH   8  34
ATOM     34  O   UNL     1      31.946 -21.931 -19.115  0.00  0.00    -0.370 OA
ATOM     35  H   UNL     1      32.531 -21.976 -19.845  0.00  0.00    +0.211 HD
ENDBRANCH   8  34
TORSDOF 7
ENDMDL
MODEL 4
REMARK VINA RESULT:     -11.3      6.340      9.894
REMARK  Name = 54671008
REMARK  7 active torsions:
REMARK  status: ('A' for Active; 'I' for Inactive)
REMARK    1  A    between atoms: C_4  and  C_21
REMARK    2  A    between atoms: C_6  and  C_11
REMARK    3  A    between atoms: C_8  and  O_34
REMARK    4  A    between atoms: N_10  and  C_13
REMARK    5  A    between atoms: C_13  and  C_15
REMARK    6  A    between atoms: C_21  and  N_25
REMARK    7  A    between atoms: C_26  and  C_31
REMARK                            x       y       z     vdW  Elec       q    Type
REMARK                         _______ _______ _______ _____ _____    ______ ____
ROOT
ATOM      1  O   UNL     1      33.656 -15.752 -25.954  0.00  0.00    -0.271 OA
ATOM      2  N   UNL     1      34.679 -17.234 -24.458  0.00  0.00    -0.232 N 
ATOM      3  N   UNL     1      34.873 -16.618 -22.169  0.00  0.00    -0.386 NA
ATOM      4  C   UNL     1      35.067 -17.458 -23.139  0.00  0.00    +0.182 C 
ATOM      5  C   UNL     1      34.035 -16.048 -24.822  0.00  0.00    +0.265 C 
ATOM      6  C   UNL     1      34.244 -15.444 -22.482  0.00  0.00    +0.199 C 
ATOM      7  C   UNL     1      34.947 -18.252 -25.471  0.00  0.00    +0.122 C 
ATOM      8  C   UNL     1      33.816 -15.092 -23.702  0.00  0.00    +0.245 C 
ENDROOT
BRANCH   6  11
ATOM      9  O   UNL     1      34.976 -14.139 -20.671  0.00  0.00    -0.268 OA
ATOM     10  N   UNL     1      32.711 -14.136 -21.223  0.00  0.00    -0.295 N 
ATOM     11  C   UNL     1      34.034 -14.510 -21.366  0.00  0.00    +0.275 C 
ATOM     12  H   UNL     1      32.048 -14.508 -21.849  0.00  0.00    +0.150 HD
BRANCH  10  13
ATOM     13  C   UNL     1      32.252 -13.226 -20.197  0.00  0.00    +0.117 C 
BRANCH  13  15
ATOM     14  F   UNL     1      31.556  -8.000 -22.174  0.00  0.00    -0.204 F 
ATOM     15  C   UNL     1      32.067 -11.833 -20.725  0.00  0.00    -0.002 C 
ATOM     16  C   UNL     1      32.051 -10.751 -19.844  0.00  0.00    -0.000 C 
ATOM     17  C   UNL     1      31.910 -11.620 -22.094  0.00  0.00    -0.000 C 
ATOM     18  C   UNL     1      31.879  -9.456 -20.334  0.00  0.00    +0.029 C 
ATOM     19  C   UNL     1      31.737 -10.325 -22.584  0.00  0.00    +0.029 C 
ATOM     20  C   UNL     1      31.721  -9.243 -21.703  0.00  0.00    +0.140 C 
ENDBRANCH  13  15
ENDBRANCH  10  13
ENDBRANCH   6  11
BRANCH   4  21
ATOM     21  C   UNL     1      35.758 -18.760 -22.812  0.00  0.00    +0.117 C 
ATOM     22  C   UNL     1      35.929 -19.584 -24.081  0.00  0.00    +0.028 C 
ATOM     23  C   UNL     1      37.098 -18.479 -22.147  0.00  0.00    +0.028 C 
BRANCH  21  25
ATOM     24  O   UNL     1      36.418 -20.717 -20.818  0.00  0.00    -0.265 OA
ATOM     25  N   UNL     1      34.846 -19.397 -21.898  0.00  0.00    -0.293 N 
ATOM     26  C   UNL     1      35.260 -20.336 -20.963  0.00  0.00    +0.302 C 
ATOM     27  H   UNL     1      33.892 -19.156 -21.937  0.00  0.00    +0.150 HD
BRANCH  26  31
ATOM     28  O   UNL     1      34.494 -21.904 -19.219  0.00  0.00    -0.416 OA
ATOM     29  N   UNL     1      32.924 -20.582 -20.110  0.00  0.00    -0.102 NA
ATOM     30  N   UNL     1      32.319 -21.385 -19.161  0.00  0.00    -0.111 NA
ATOM     31  C   UNL     1      34.192 -20.919 -20.109  0.00  0.00    +0.304 A 
ATOM     32  C   UNL     1      33.272 -22.140 -18.668  0.00  0.00    +0.227 A 
ATOM     33  C   UNL     1      33.204 -23.176 -17.630  0.00  0.00    +0.097 C 
ENDBRANCH  26  31
ENDBRANCH  21  25
ENDBRANCH   4  21
BRANCH   8  34
ATOM     34  O   UNL     1      33.187 -13.899 -23.976  0.00  0.00    -0.370 OA
ATOM     35  H   UNL     1      32.995 -13.300 -23.281  0.00  0.00    +0.211 HD
ENDBRANCH   8  34
TORSDOF 7
ENDMDL
MODEL 5
REMARK VINA RESULT:     -11.2      2.125      3.018
REMARK  Name = 54671008
REMARK  7 active torsions:
REMARK  status: ('A' for Active; 'I' for Inactive)
REMARK    1  A    between atoms: C_4  and  C_21
REMARK    2  A    between atoms: C_6  and  C_11
REMARK    3  A    between atoms: C_8  and  O_34
REMARK    4  A    between atoms: N_10  and  C_13
REMARK    5  A    between atoms: C_13  and  C_15
REMARK    6  A    between atoms: C_21  and  N_25
REMARK    7  A    between atoms: C_26  and  C_31
REMARK                            x       y       z     vdW  Elec       q    Type
REMARK                         _______ _______ _______ _____ _____    ______ ____
ROOT
ATOM      1  O   UNL     1      38.197 -21.286 -16.732  0.00  0.00    -0.271 OA
ATOM      2  N   UNL     1      36.540 -22.694 -15.864  0.00  0.00    -0.232 N 
ATOM      3  N   UNL     1      34.614 -23.161 -17.176  0.00  0.00    -0.386 NA
ATOM      4  C   UNL     1      35.308 -23.302 -16.089  0.00  0.00    +0.182 C 
ATOM      5  C   UNL     1      37.119 -21.869 -16.832  0.00  0.00    +0.265 C 
ATOM      6  C   UNL     1      35.144 -22.363 -18.152  0.00  0.00    +0.199 C 
ATOM      7  C   UNL     1      37.237 -22.924 -14.599  0.00  0.00    +0.122 C 
ATOM      8  C   UNL     1      36.316 -21.716 -18.076  0.00  0.00    +0.245 C 
ENDROOT
BRANCH   6  11
ATOM      9  O   UNL     1      33.755 -23.186 -19.858  0.00  0.00    -0.268 OA
ATOM     10  N   UNL     1      34.342 -20.930 -19.869  0.00  0.00    -0.295 N 
ATOM     11  C   UNL     1      34.341 -22.220 -19.375  0.00  0.00    +0.275 C 
ATOM     12  H   UNL     1      34.856 -20.243 -19.385  0.00  0.00    +0.150 HD
BRANCH  10  13
ATOM     13  C   UNL     1      33.626 -20.538 -21.062  0.00  0.00    +0.117 C 
BRANCH  13  15
ATOM     14  F   UNL     1      36.049 -16.154 -23.633  0.00  0.00    -0.204 F 
ATOM     15  C   UNL     1      34.272 -19.369 -21.748  0.00  0.00    -0.002 C 
ATOM     16  C   UNL     1      34.594 -18.224 -21.019  0.00  0.00    -0.000 C 
ATOM     17  C   UNL     1      34.551 -19.428 -23.113  0.00  0.00    -0.000 C 
ATOM     18  C   UNL     1      35.193 -17.138 -21.656  0.00  0.00    +0.029 C 
ATOM     19  C   UNL     1      35.151 -18.342 -23.750  0.00  0.00    +0.029 C 
ATOM     20  C   UNL     1      35.472 -17.197 -23.021  0.00  0.00    +0.140 C 
ENDBRANCH  13  15
ENDBRANCH  10  13
ENDBRANCH   6  11
BRANCH   4  21
ATOM     21  C   UNL     1      34.738 -24.181 -15.001  0.00  0.00    +0.117 C 
ATOM     22  C   UNL     1      35.309 -25.587 -15.125  0.00  0.00    +0.028 C 
ATOM     23  C   UNL     1      35.041 -23.575 -13.637  0.00  0.00    +0.028 C 
BRANCH  21  25
ATOM     24  O   UNL     1      32.641 -24.978 -13.210  0.00  0.00    -0.265 OA
ATOM     25  N   UNL     1      33.324 -24.169 -15.274  0.00  0.00    -0.293 N 
ATOM     26  C   UNL     1      32.380 -24.574 -14.340  0.00  0.00    +0.302 C 
ATOM     27  H   UNL     1      33.016 -23.859 -16.156  0.00  0.00    +0.150 HD
BRANCH  26  31
ATOM     28  O   UNL     1      30.426 -23.352 -15.220  0.00  0.00    -0.416 OA
ATOM     29  N   UNL     1      30.119 -25.530 -14.809  0.00  0.00    -0.102 NA
ATOM     30  N   UNL     1      28.931 -25.015 -15.292  0.00  0.00    -0.111 NA
ATOM     31  C   UNL     1      30.963 -24.525 -14.785  0.00  0.00    +0.304 A 
ATOM     32  C   UNL     1      29.156 -23.742 -15.518  0.00  0.00    +0.227 A 
ATOM     33  C   UNL     1      28.252 -22.707 -16.035  0.00  0.00    +0.097 C 
ENDBRANCH  26  31
ENDBRANCH  21  25
ENDBRANCH   4  21
BRANCH   8  34
ATOM     34  O   UNL     1      36.815 -20.920 -19.081  0.00  0.00    -0.370 OA
ATOM     35  H   UNL     1      37.714 -20.656 -19.067  0.00  0.00    +0.211 HD
ENDBRANCH   8  34
TORSDOF 7
ENDMDL
MODEL 6
REMARK VINA RESULT:     -10.6      9.780     13.444
REMARK  Name = 54671008
REMARK  7 active torsions:
REMARK  status: ('A' for Active; 'I' for Inactive)
REMARK    1  A    between atoms: C_4  and  C_21
REMARK    2  A    between atoms: C_6  and  C_11
REMARK    3  A    between atoms: C_8  and  O_34
REMARK    4  A    between atoms: N_10  and  C_13
REMARK    5  A    between atoms: C_13  and  C_15
REMARK    6  A    between atoms: C_21  and  N_25
REMARK    7  A    between atoms: C_26  and  C_31
REMARK                            x       y       z     vdW  Elec       q    Type
REMARK                         _______ _______ _______ _____ _____    ______ ____
ROOT
ATOM      1  O   UNL     1      32.305 -13.501 -20.075  0.00  0.00    -0.271 OA
ATOM      2  N   UNL     1      32.902 -13.546 -22.339  0.00  0.00    -0.232 N 
ATOM      3  N   UNL     1      32.780 -11.539 -23.608  0.00  0.00    -0.386 NA
ATOM      4  C   UNL     1      33.039 -12.807 -23.511  0.00  0.00    +0.182 C 
ATOM      5  C   UNL     1      32.462 -12.941 -21.159  0.00  0.00    +0.265 C 
ATOM      6  C   UNL     1      32.348 -10.906 -22.475  0.00  0.00    +0.199 C 
ATOM      7  C   UNL     1      33.224 -14.972 -22.343  0.00  0.00    +0.122 C 
ATOM      8  C   UNL     1      32.169 -11.486 -21.280  0.00  0.00    +0.245 C 
ENDROOT
BRANCH   6  11
ATOM      9  O   UNL     1      31.049  -9.082 -23.183  0.00  0.00    -0.268 OA
ATOM     10  N   UNL     1      33.036  -8.675 -22.035  0.00  0.00    -0.295 N 
ATOM     11  C   UNL     1      32.063  -9.470 -22.609  0.00  0.00    +0.275 C 
ATOM     12  H   UNL     1      33.805  -9.113 -21.603  0.00  0.00    +0.150 HD
BRANCH  10  13
ATOM     13  C   UNL     1      32.982  -7.230 -22.038  0.00  0.00    +0.117 C 
BRANCH  13  15
ATOM     14  F   UNL     1      34.749  -5.062 -26.924  0.00  0.00    -0.204 F 
ATOM     15  C   UNL     1      33.453  -6.652 -23.341  0.00  0.00    -0.002 C 
ATOM     16  C   UNL     1      32.626  -5.789 -24.060  0.00  0.00    -0.000 C 
ATOM     17  C   UNL     1      34.718  -6.977 -23.831  0.00  0.00    -0.000 C 
ATOM     18  C   UNL     1      33.064  -5.253 -25.271  0.00  0.00    +0.029 C 
ATOM     19  C   UNL     1      35.156  -6.440 -25.042  0.00  0.00    +0.029 C 
ATOM     20  C   UNL     1      34.329  -5.578 -25.762  0.00  0.00    +0.140 C 
ENDBRANCH  13  15
ENDBRANCH  10  13
ENDBRANCH   6  11
BRANCH   4  21
ATOM     21  C   UNL     1      33.520 -13.522 -24.751  0.00  0.00    +0.117 C 
ATOM     22  C   UNL     1      32.352 -13.741 -25.703  0.00  0.00    +0.028 C 
ATOM     23  C   UNL     1      34.633 -12.719 -25.410  0.00  0.00    +0.028 C 
BRANCH  21  25
ATOM     24  O   UNL     1      34.312 -15.811 -26.292  0.00  0.00    -0.265 OA
ATOM     25  N   UNL     1      34.014 -14.774 -24.239  0.00  0.00    -0.293 N 
ATOM     26  C   UNL     1      34.375 -15.829 -25.066  0.00  0.00    +0.302 C 
ATOM     27  H   UNL     1      34.101 -14.885 -23.264  0.00  0.00    +0.150 HD
BRANCH  26  31
ATOM     28  O   UNL     1      35.646 -16.969 -23.286  0.00  0.00    -0.416 OA
ATOM     29  N   UNL     1      34.560 -18.298 -24.721  0.00  0.00    -0.102 NA
ATOM     30  N   UNL     1      35.210 -19.101 -23.804  0.00  0.00    -0.111 NA
ATOM     31  C   UNL     1      34.842 -17.062 -24.381  0.00  0.00    +0.304 A 
ATOM     32  C   UNL     1      35.831 -18.284 -22.986  0.00  0.00    +0.227 A 
ATOM     33  C   UNL     1      36.674 -18.585 -21.822  0.00  0.00    +0.097 C 
ENDBRANCH  26  31
ENDBRANCH  21  25
ENDBRANCH   4  21
BRANCH   8  34
ATOM     34  O   UNL     1      31.731 -10.813 -20.163  0.00  0.00    -0.370 OA
ATOM     35  H   UNL     1      30.989 -10.243 -20.220  0.00  0.00    +0.211 HD
ENDBRANCH   8  34
TORSDOF 7
ENDMDL
MODEL 7
REMARK VINA RESULT:     -10.2      4.901      8.702
REMARK  Name = 54671008
REMARK  7 active torsions:
REMARK  status: ('A' for Active; 'I' for Inactive)
REMARK    1  A    between atoms: C_4  and  C_21
REMARK    2  A    between atoms: C_6  and  C_11
REMARK    3  A    between atoms: C_8  and  O_34
REMARK    4  A    between atoms: N_10  and  C_13
REMARK    5  A    between atoms: C_13  and  C_15
REMARK    6  A    between atoms: C_21  and  N_25
REMARK    7  A    between atoms: C_26  and  C_31
REMARK                            x       y       z     vdW  Elec       q    Type
REMARK                         _______ _______ _______ _____ _____    ______ ____
ROOT
ATOM      1  O   UNL     1      32.637 -22.096 -19.880  0.00  0.00    -0.271 OA
ATOM      2  N   UNL     1      34.273 -20.611 -20.654  0.00  0.00    -0.232 N 
ATOM      3  N   UNL     1      36.391 -20.557 -19.575  0.00  0.00    -0.386 NA
ATOM      4  C   UNL     1      35.571 -20.133 -20.487  0.00  0.00    +0.182 C 
ATOM      5  C   UNL     1      33.765 -21.609 -19.818  0.00  0.00    +0.265 C 
ATOM      6  C   UNL     1      35.935 -21.536 -18.736  0.00  0.00    +0.199 C 
ATOM      7  C   UNL     1      33.434 -20.062 -21.717  0.00  0.00    +0.122 C 
ATOM      8  C   UNL     1      34.714 -22.089 -18.777  0.00  0.00    +0.245 C 
ENDROOT
BRANCH   6  11
ATOM      9  O   UNL     1      38.006 -22.385 -18.026  0.00  0.00    -0.268 OA
ATOM     10  N   UNL     1      36.360 -21.948 -16.434  0.00  0.00    -0.295 N 
ATOM     11  C   UNL     1      36.882 -22.001 -17.713  0.00  0.00    +0.275 C 
ATOM     12  H   UNL     1      35.439 -21.618 -16.318  0.00  0.00    +0.150 HD
BRANCH  10  13
ATOM     13  C   UNL     1      37.098 -22.352 -15.259  0.00  0.00    +0.117 C 
BRANCH  13  15
ATOM     14  F   UNL     1      37.442 -27.954 -14.809  0.00  0.00    -0.204 F 
ATOM     15  C   UNL     1      37.190 -23.846 -15.139  0.00  0.00    -0.002 C 
ATOM     16  C   UNL     1      36.040 -24.627 -15.257  0.00  0.00    -0.000 C 
ATOM     17  C   UNL     1      38.425 -24.453 -14.910  0.00  0.00    -0.000 C 
ATOM     18  C   UNL     1      36.126 -26.014 -15.145  0.00  0.00    +0.029 C 
ATOM     19  C   UNL     1      38.510 -25.840 -14.798  0.00  0.00    +0.029 C 
ATOM     20  C   UNL     1      37.360 -26.621 -14.915  0.00  0.00    +0.140 C 
ENDBRANCH  13  15
ENDBRANCH  10  13
ENDBRANCH   6  11
BRANCH   4  21
ATOM     21  C   UNL     1      36.058 -19.054 -21.423  0.00  0.00    +0.117 C 
ATOM     22  C   UNL     1      37.501 -18.699 -21.093  0.00  0.00    +0.028 C 
ATOM     23  C   UNL     1      35.916 -19.521 -22.866  0.00  0.00    +0.028 C 
BRANCH  21  25
ATOM     24  O   UNL     1      35.713 -16.689 -23.014  0.00  0.00    -0.265 OA
ATOM     25  N   UNL     1      35.174 -17.952 -21.144  0.00  0.00    -0.293 N 
ATOM     26  C   UNL     1      35.074 -16.845 -21.976  0.00  0.00    +0.302 C 
ATOM     27  H   UNL     1      34.619 -17.985 -20.331  0.00  0.00    +0.150 HD
BRANCH  26  31
ATOM     28  O   UNL     1      33.744 -14.813 -22.408  0.00  0.00    -0.416 OA
ATOM     29  N   UNL     1      33.610 -15.653 -20.339  0.00  0.00    -0.102 NA
ATOM     30  N   UNL     1      32.808 -14.529 -20.396  0.00  0.00    -0.111 NA
ATOM     31  C   UNL     1      34.136 -15.781 -21.534  0.00  0.00    +0.304 A 
ATOM     32  C   UNL     1      32.917 -14.072 -21.621  0.00  0.00    +0.227 A 
ATOM     33  C   UNL     1      32.286 -12.901 -22.244  0.00  0.00    +0.097 C 
ENDBRANCH  26  31
ENDBRANCH  21  25
ENDBRANCH   4  21
BRANCH   8  34
ATOM     34  O   UNL     1      34.293 -23.073 -17.913  0.00  0.00    -0.370 OA
ATOM     35  H   UNL     1      34.116 -22.865 -17.016  0.00  0.00    +0.211 HD
ENDBRANCH   8  34
TORSDOF 7
ENDMDL
