MODEL 1
REMARK VINA RESULT:     -13.1      0.000      0.000
REMARK  Name = 25184541
REMARK  4 active torsions:
REMARK  status: ('A' for Active; 'I' for Inactive)
REMARK    1  A    between atoms: C_4  and  N_19
REMARK    2  A    between atoms: C_5  and  N_11
REMARK    3  A    between atoms: C_20  and  C_23
REMARK    4  A    between atoms: C_23  and  N_25
REMARK                            x       y       z     vdW  Elec       q    Type
REMARK                         _______ _______ _______ _____ _____    ______ ____
ROOT
ATOM      1  F   UNL     1      32.495 -21.550 -19.334  0.00  0.00    -0.200 F 
ATOM      2  F   UNL     1      32.578 -19.900 -21.490  0.00  0.00    -0.200 F 
ATOM      3  F   UNL     1      37.324 -19.888 -21.297  0.00  0.00    -0.203 F 
ATOM      4  C   UNL     1      34.866 -21.566 -19.208  0.00  0.00    +0.089 C 
ATOM      5  C   UNL     1      34.952 -19.871 -21.422  0.00  0.00    +0.110 C 
ATOM      6  C   UNL     1      33.681 -21.145 -19.810  0.00  0.00    +0.182 C 
ATOM      7  C   UNL     1      36.095 -21.140 -19.714  0.00  0.00    +0.048 C 
ATOM      8  C   UNL     1      33.724 -20.297 -20.918  0.00  0.00    +0.184 C 
ATOM      9  C   UNL     1      36.137 -20.292 -20.820  0.00  0.00    +0.157 C 
ENDROOT
BRANCH   5  11
ATOM     10  O   UNL     1      35.052 -16.478 -25.741  0.00  0.00    -0.291 OA
ATOM     11  N   UNL     1      34.996 -19.006 -22.547  0.00  0.00    -0.282 N 
ATOM     12  C   UNL     1      35.457 -17.624 -22.324  0.00  0.00    +0.104 C 
ATOM     13  C   UNL     1      34.849 -16.673 -23.353  0.00  0.00    +0.091 C 
ATOM     14  C   UNL     1      34.803 -19.441 -23.849  0.00  0.00    +0.068 C 
ATOM     15  C   UNL     1      34.943 -17.215 -24.764  0.00  0.00    +0.176 C 
ATOM     16  C   UNL     1      34.803 -18.678 -24.947  0.00  0.00    +0.054 C 
ENDBRANCH   5  11
BRANCH   4  19
ATOM     17  O   UNL     1      35.348 -23.488 -16.154  0.00  0.00    -0.434 OA
ATOM     18  O   UNL     1      36.804 -21.913 -16.890  0.00  0.00    -0.226 OA
ATOM     19  N   UNL     1      34.826 -22.432 -18.079  0.00  0.00    -0.219 N 
ATOM     20  C   UNL     1      34.008 -23.885 -16.474  0.00  0.00    +0.210 C 
ATOM     21  C   UNL     1      33.819 -23.446 -17.910  0.00  0.00    +0.147 C 
ATOM     22  C   UNL     1      35.756 -22.523 -17.047  0.00  0.00    +0.409 C 
BRANCH  20  23
ATOM     23  C   UNL     1      33.049 -23.203 -15.507  0.00  0.00    +0.134 C 
BRANCH  23  25
ATOM     24  O   UNL     1      29.143 -22.745 -17.287  0.00  0.00    -0.349 OA
ATOM     25  N   UNL     1      31.838 -23.975 -15.389  0.00  0.00    -0.312 N 
ATOM     26  N   UNL     1      30.466 -22.636 -16.878  0.00  0.00    -0.062 NA
ATOM     27  C   UNL     1      30.658 -23.668 -16.051  0.00  0.00    +0.171 C 
ATOM     28  C   UNL     1      29.504 -24.454 -15.902  0.00  0.00    +0.081 C 
ATOM     29  C   UNL     1      28.580 -23.832 -16.699  0.00  0.00    +0.215 C 
ATOM     30  H   UNL     1      31.849 -24.767 -14.804  0.00  0.00    +0.148 HD
ENDBRANCH  23  25
ENDBRANCH  20  23
ENDBRANCH   4  19
TORSDOF 4
ENDMDL
MODEL 2
REMARK VINA RESULT:     -13.0      8.393     13.338
REMARK  Name = 25184541
REMARK  4 active torsions:
REMARK  status: ('A' for Active; 'I' for Inactive)
REMARK    1  A    between atoms: C_4  and  N_19
REMARK    2  A    between atoms: C_5  and  N_11
REMARK    3  A    between atoms: C_20  and  C_23
REMARK    4  A    between atoms: C_23  and  N_25
REMARK                            x       y       z     vdW  Elec       q    Type
REMARK                         _______ _______ _______ _____ _____    ______ ____
ROOT
ATOM      1  F   UNL     1      31.237 -11.677 -20.792  0.00  0.00    -0.200 F 
ATOM      2  F   UNL     1      31.946 -14.088 -21.822  0.00  0.00    -0.200 F 
ATOM      3  F   UNL     1      34.630 -11.908 -25.078  0.00  0.00    -0.203 F 
ATOM      4  C   UNL     1      32.570 -10.555 -22.405  0.00  0.00    +0.089 C 
ATOM      5  C   UNL     1      33.296 -13.031 -23.464  0.00  0.00    +0.110 C 
ATOM      6  C   UNL     1      32.068 -11.728 -21.843  0.00  0.00    +0.182 C 
ATOM      7  C   UNL     1      33.435 -10.619 -23.498  0.00  0.00    +0.048 C 
ATOM      8  C   UNL     1      32.432 -12.966 -22.372  0.00  0.00    +0.184 C 
ATOM      9  C   UNL     1      33.798 -11.857 -24.027  0.00  0.00    +0.157 C 
ENDROOT
BRANCH   5  11
ATOM     10  O   UNL     1      34.804 -17.879 -25.562  0.00  0.00    -0.291 OA
ATOM     11  N   UNL     1      33.664 -14.291 -24.005  0.00  0.00    -0.282 N 
ATOM     12  C   UNL     1      34.438 -15.201 -23.143  0.00  0.00    +0.104 C 
ATOM     13  C   UNL     1      35.306 -16.139 -23.979  0.00  0.00    +0.091 C 
ATOM     14  C   UNL     1      33.184 -14.768 -25.216  0.00  0.00    +0.068 C 
ATOM     15  C   UNL     1      34.541 -16.759 -25.130  0.00  0.00    +0.176 C 
ATOM     16  C   UNL     1      33.510 -15.929 -25.794  0.00  0.00    +0.054 C 
ENDBRANCH   5  11
BRANCH   4  19
ATOM     17  O   UNL     1      31.871  -7.565 -20.449  0.00  0.00    -0.434 OA
ATOM     18  O   UNL     1      32.824  -9.434 -19.589  0.00  0.00    -0.226 OA
ATOM     19  N   UNL     1      32.201  -9.289 -21.867  0.00  0.00    -0.219 N 
ATOM     20  C   UNL     1      31.588  -7.060 -21.761  0.00  0.00    +0.210 C 
ATOM     21  C   UNL     1      31.485  -8.298 -22.626  0.00  0.00    +0.147 C 
ATOM     22  C   UNL     1      32.362  -8.846 -20.557  0.00  0.00    +0.409 C 
BRANCH  20  23
ATOM     23  C   UNL     1      32.715  -6.126 -22.182  0.00  0.00    +0.134 C 
BRANCH  23  25
ATOM     24  O   UNL     1      34.762  -5.868 -25.974  0.00  0.00    -0.349 OA
ATOM     25  N   UNL     1      32.374  -5.472 -23.420  0.00  0.00    -0.312 N 
ATOM     26  N   UNL     1      34.350  -6.121 -24.672  0.00  0.00    -0.062 NA
ATOM     27  C   UNL     1      33.173  -5.500 -24.554  0.00  0.00    +0.171 C 
ATOM     28  C   UNL     1      32.794  -4.845 -25.737  0.00  0.00    +0.081 C 
ATOM     29  C   UNL     1      33.826  -5.107 -26.599  0.00  0.00    +0.215 C 
ATOM     30  H   UNL     1      31.524  -4.976 -23.463  0.00  0.00    +0.148 HD
ENDBRANCH  23  25
ENDBRANCH  20  23
ENDBRANCH   4  19
TORSDOF 4
ENDMDL
MODEL 3
REMARK VINA RESULT:     -12.9      8.928     13.581
REMARK  Name = 25184541
REMARK  4 active torsions:
REMARK  status: ('A' for Active; 'I' for Inactive)
REMARK    1  A    between atoms: C_4  and  N_19
REMARK    2  A    between atoms: C_5  and  N_11
REMARK    3  A    between atoms: C_20  and  C_23
REMARK    4  A    between atoms: C_23  and  N_25
REMARK                            x       y       z     vdW  Elec       q    Type
REMARK                         _______ _______ _______ _____ _____    ______ ____
ROOT
ATOM      1  F   UNL     1      31.217 -11.619 -20.815  0.00  0.00    -0.200 F 
ATOM      2  F   UNL     1      31.928 -14.027 -21.850  0.00  0.00    -0.200 F 
ATOM      3  F   UNL     1      34.641 -11.837 -25.077  0.00  0.00    -0.203 F 
ATOM      4  C   UNL     1      32.564 -10.492 -22.413  0.00  0.00    +0.089 C 
ATOM      5  C   UNL     1      33.293 -12.965 -23.478  0.00  0.00    +0.110 C 
ATOM      6  C   UNL     1      32.056 -11.667 -21.860  0.00  0.00    +0.182 C 
ATOM      7  C   UNL     1      33.437 -10.554 -23.499  0.00  0.00    +0.048 C 
ATOM      8  C   UNL     1      32.421 -12.903 -22.392  0.00  0.00    +0.184 C 
ATOM      9  C   UNL     1      33.801 -11.790 -24.032  0.00  0.00    +0.157 C 
ENDROOT
BRANCH   5  11
ATOM     10  O   UNL     1      34.806 -17.806 -25.588  0.00  0.00    -0.291 OA
ATOM     11  N   UNL     1      33.662 -14.223 -24.022  0.00  0.00    -0.282 N 
ATOM     12  C   UNL     1      34.445 -15.131 -23.165  0.00  0.00    +0.104 C 
ATOM     13  C   UNL     1      35.312 -16.065 -24.009  0.00  0.00    +0.091 C 
ATOM     14  C   UNL     1      33.176 -14.702 -25.230  0.00  0.00    +0.068 C 
ATOM     15  C   UNL     1      34.541 -16.687 -25.154  0.00  0.00    +0.176 C 
ATOM     16  C   UNL     1      33.503 -15.861 -25.810  0.00  0.00    +0.054 C 
ENDBRANCH   5  11
BRANCH   4  19
ATOM     17  O   UNL     1      31.858  -7.509 -20.449  0.00  0.00    -0.434 OA
ATOM     18  O   UNL     1      32.805  -9.383 -19.591  0.00  0.00    -0.226 OA
ATOM     19  N   UNL     1      32.194  -9.228 -21.872  0.00  0.00    -0.219 N 
ATOM     20  C   UNL     1      31.583  -6.999 -21.760  0.00  0.00    +0.210 C 
ATOM     21  C   UNL     1      31.483  -8.234 -22.630  0.00  0.00    +0.147 C 
ATOM     22  C   UNL     1      32.349  -8.790 -20.559  0.00  0.00    +0.409 C 
BRANCH  20  23
ATOM     23  C   UNL     1      32.713  -6.064 -22.172  0.00  0.00    +0.134 C 
BRANCH  23  25
ATOM     24  O   UNL     1      30.418  -2.729 -23.669  0.00  0.00    -0.349 OA
ATOM     25  N   UNL     1      32.482  -5.574 -23.507  0.00  0.00    -0.312 N 
ATOM     26  N   UNL     1      31.056  -3.702 -22.911  0.00  0.00    -0.062 NA
ATOM     27  C   UNL     1      31.700  -4.466 -23.798  0.00  0.00    +0.171 C 
ATOM     28  C   UNL     1      31.506  -4.028 -25.118  0.00  0.00    +0.081 C 
ATOM     29  C   UNL     1      30.694  -2.933 -24.983  0.00  0.00    +0.215 C 
ATOM     30  H   UNL     1      32.904  -6.054 -24.256  0.00  0.00    +0.148 HD
ENDBRANCH  23  25
ENDBRANCH  20  23
ENDBRANCH   4  19
TORSDOF 4
ENDMDL
MODEL 4
REMARK VINA RESULT:     -12.8      8.405     13.434
REMARK  Name = 25184541
REMARK  4 active torsions:
REMARK  status: ('A' for Active; 'I' for Inactive)
REMARK    1  A    between atoms: C_4  and  N_19
REMARK    2  A    between atoms: C_5  and  N_11
REMARK    3  A    between atoms: C_20  and  C_23
REMARK    4  A    between atoms: C_23  and  N_25
REMARK                            x       y       z     vdW  Elec       q    Type
REMARK                         _______ _______ _______ _____ _____    ______ ____
ROOT
ATOM      1  F   UNL     1      33.908  -9.468 -23.941  0.00  0.00    -0.200 F 
ATOM      2  F   UNL     1      34.607 -11.868 -25.005  0.00  0.00    -0.200 F 
ATOM      3  F   UNL     1      31.917 -14.081 -21.775  0.00  0.00    -0.203 F 
ATOM      4  C   UNL     1      32.553 -10.543 -22.312  0.00  0.00    +0.089 C 
ATOM      5  C   UNL     1      33.272 -13.007 -23.404  0.00  0.00    +0.110 C 
ATOM      6  C   UNL     1      33.418 -10.596 -23.406  0.00  0.00    +0.182 C 
ATOM      7  C   UNL     1      32.048 -11.722 -21.765  0.00  0.00    +0.048 C 
ATOM      8  C   UNL     1      33.777 -11.828 -23.952  0.00  0.00    +0.184 C 
ATOM      9  C   UNL     1      32.408 -12.954 -22.311  0.00  0.00    +0.157 C 
ENDROOT
BRANCH   5  11
ATOM     10  O   UNL     1      34.780 -17.834 -25.549  0.00  0.00    -0.291 OA
ATOM     11  N   UNL     1      33.640 -14.261 -23.957  0.00  0.00    -0.282 N 
ATOM     12  C   UNL     1      34.406 -15.183 -23.101  0.00  0.00    +0.104 C 
ATOM     13  C   UNL     1      35.278 -16.114 -23.944  0.00  0.00    +0.091 C 
ATOM     14  C   UNL     1      33.166 -14.724 -25.176  0.00  0.00    +0.068 C 
ATOM     15  C   UNL     1      34.517 -16.719 -25.105  0.00  0.00    +0.176 C 
ATOM     16  C   UNL     1      33.493 -15.878 -25.765  0.00  0.00    +0.054 C 
ENDBRANCH   5  11
BRANCH   4  19
ATOM     17  O   UNL     1      31.857  -7.583 -20.309  0.00  0.00    -0.434 OA
ATOM     18  O   UNL     1      32.825  -9.461 -19.483  0.00  0.00    -0.226 OA
ATOM     19  N   UNL     1      32.184  -9.286 -21.753  0.00  0.00    -0.219 N 
ATOM     20  C   UNL     1      31.562  -7.062 -21.611  0.00  0.00    +0.210 C 
ATOM     21  C   UNL     1      31.458  -8.288 -22.493  0.00  0.00    +0.147 C 
ATOM     22  C   UNL     1      32.353  -8.861 -20.439  0.00  0.00    +0.409 C 
BRANCH  20  23
ATOM     23  C   UNL     1      32.682  -6.117 -22.028  0.00  0.00    +0.134 C 
BRANCH  23  25
ATOM     24  O   UNL     1      34.708  -5.915 -25.835  0.00  0.00    -0.349 OA
ATOM     25  N   UNL     1      32.342  -5.469 -23.269  0.00  0.00    -0.312 N 
ATOM     26  N   UNL     1      34.302  -6.152 -24.528  0.00  0.00    -0.062 NA
ATOM     27  C   UNL     1      33.133  -5.516 -24.408  0.00  0.00    +0.171 C 
ATOM     28  C   UNL     1      32.755  -4.866 -25.594  0.00  0.00    +0.081 C 
ATOM     29  C   UNL     1      33.778  -5.147 -26.460  0.00  0.00    +0.215 C 
ATOM     30  H   UNL     1      31.498  -4.962 -23.311  0.00  0.00    +0.148 HD
ENDBRANCH  23  25
ENDBRANCH  20  23
ENDBRANCH   4  19
TORSDOF 4
ENDMDL
MODEL 5
REMARK VINA RESULT:     -12.6      9.030     13.725
REMARK  Name = 25184541
REMARK  4 active torsions:
REMARK  status: ('A' for Active; 'I' for Inactive)
REMARK    1  A    between atoms: C_4  and  N_19
REMARK    2  A    between atoms: C_5  and  N_11
REMARK    3  A    between atoms: C_20  and  C_23
REMARK    4  A    between atoms: C_23  and  N_25
REMARK                            x       y       z     vdW  Elec       q    Type
REMARK                         _______ _______ _______ _____ _____    ______ ____
ROOT
ATOM      1  F   UNL     1      33.983  -9.261 -23.882  0.00  0.00    -0.200 F 
ATOM      2  F   UNL     1      34.771 -11.599 -25.018  0.00  0.00    -0.200 F 
ATOM      3  F   UNL     1      31.928 -13.992 -22.059  0.00  0.00    -0.203 F 
ATOM      4  C   UNL     1      32.551 -10.426 -22.388  0.00  0.00    +0.089 C 
ATOM      5  C   UNL     1      33.361 -12.827 -23.553  0.00  0.00    +0.110 C 
ATOM      6  C   UNL     1      33.477 -10.418 -23.431  0.00  0.00    +0.182 C 
ATOM      7  C   UNL     1      32.029 -11.635 -21.928  0.00  0.00    +0.048 C 
ATOM      8  C   UNL     1      33.881 -11.619 -24.014  0.00  0.00    +0.184 C 
ATOM      9  C   UNL     1      32.435 -12.835 -22.510  0.00  0.00    +0.157 C 
ENDROOT
BRANCH   5  11
ATOM     10  O   UNL     1      34.880 -17.590 -25.832  0.00  0.00    -0.291 OA
ATOM     11  N   UNL     1      33.775 -14.050 -24.144  0.00  0.00    -0.282 N 
ATOM     12  C   UNL     1      33.317 -14.332 -25.516  0.00  0.00    +0.104 C 
ATOM     13  C   UNL     1      33.235 -15.837 -25.766  0.00  0.00    +0.091 C 
ATOM     14  C   UNL     1      34.719 -14.890 -23.572  0.00  0.00    +0.068 C 
ATOM     15  C   UNL     1      34.471 -16.568 -25.285  0.00  0.00    +0.176 C 
ATOM     16  C   UNL     1      35.131 -16.064 -24.059  0.00  0.00    +0.054 C 
ENDBRANCH   5  11
BRANCH   4  19
ATOM     17  O   UNL     1      31.706  -7.574 -20.289  0.00  0.00    -0.434 OA
ATOM     18  O   UNL     1      32.648  -9.479 -19.499  0.00  0.00    -0.226 OA
ATOM     19  N   UNL     1      32.135  -9.201 -21.792  0.00  0.00    -0.219 N 
ATOM     20  C   UNL     1      31.478  -6.993 -21.579  0.00  0.00    +0.210 C 
ATOM     21  C   UNL     1      31.439  -8.176 -22.523  0.00  0.00    +0.147 C 
ATOM     22  C   UNL     1      32.224  -8.839 -20.451  0.00  0.00    +0.409 C 
BRANCH  20  23
ATOM     23  C   UNL     1      32.608  -6.018 -21.886  0.00  0.00    +0.134 C 
BRANCH  23  25
ATOM     24  O   UNL     1      30.448  -2.837 -23.849  0.00  0.00    -0.349 OA
ATOM     25  N   UNL     1      32.540  -5.606 -23.265  0.00  0.00    -0.312 N 
ATOM     26  N   UNL     1      31.006  -3.749 -22.962  0.00  0.00    -0.062 NA
ATOM     27  C   UNL     1      31.776  -4.539 -23.716  0.00  0.00    +0.171 C 
ATOM     28  C   UNL     1      31.744  -4.178 -25.072  0.00  0.00    +0.081 C 
ATOM     29  C   UNL     1      30.896  -3.103 -25.104  0.00  0.00    +0.215 C 
ATOM     30  H   UNL     1      33.066  -6.112 -23.926  0.00  0.00    +0.148 HD
ENDBRANCH  23  25
ENDBRANCH  20  23
ENDBRANCH   4  19
TORSDOF 4
ENDMDL
MODEL 6
REMARK VINA RESULT:     -12.3      2.699      8.740
REMARK  Name = 25184541
REMARK  4 active torsions:
REMARK  status: ('A' for Active; 'I' for Inactive)
REMARK    1  A    between atoms: C_4  and  N_19
REMARK    2  A    between atoms: C_5  and  N_11
REMARK    3  A    between atoms: C_20  and  C_23
REMARK    4  A    between atoms: C_23  and  N_25
REMARK                            x       y       z     vdW  Elec       q    Type
REMARK                         _______ _______ _______ _____ _____    ______ ____
ROOT
ATOM      1  F   UNL     1      37.406 -19.029 -22.107  0.00  0.00    -0.200 F 
ATOM      2  F   UNL     1      37.342 -20.854 -20.096  0.00  0.00    -0.200 F 
ATOM      3  F   UNL     1      32.596 -20.664 -20.075  0.00  0.00    -0.203 F 
ATOM      4  C   UNL     1      35.034 -18.910 -22.124  0.00  0.00    +0.089 C 
ATOM      5  C   UNL     1      34.969 -20.783 -20.058  0.00  0.00    +0.110 C 
ATOM      6  C   UNL     1      36.224 -19.426 -21.612  0.00  0.00    +0.182 C 
ATOM      7  C   UNL     1      33.810 -19.332 -21.602  0.00  0.00    +0.048 C 
ATOM      8  C   UNL     1      36.191 -20.363 -20.579  0.00  0.00    +0.184 C 
ATOM      9  C   UNL     1      33.778 -20.267 -20.570  0.00  0.00    +0.157 C 
ENDROOT
BRANCH   5  11
ATOM     10  O   UNL     1      34.763 -24.426 -15.951  0.00  0.00    -0.291 OA
ATOM     11  N   UNL     1      34.935 -21.734 -19.004  0.00  0.00    -0.282 N 
ATOM     12  C   UNL     1      33.899 -22.780 -19.065  0.00  0.00    +0.104 C 
ATOM     13  C   UNL     1      33.535 -23.270 -17.665  0.00  0.00    +0.091 C 
ATOM     14  C   UNL     1      35.923 -21.833 -18.036  0.00  0.00    +0.068 C 
ATOM     15  C   UNL     1      34.758 -23.557 -16.820  0.00  0.00    +0.176 C 
ATOM     16  C   UNL     1      35.939 -22.683 -17.005  0.00  0.00    +0.054 C 
ENDBRANCH   5  11
BRANCH   4  19
ATOM     17  O   UNL     1      34.933 -16.987 -25.213  0.00  0.00    -0.434 OA
ATOM     18  O   UNL     1      34.477 -19.205 -25.100  0.00  0.00    -0.226 OA
ATOM     19  N   UNL     1      35.064 -17.955 -23.179  0.00  0.00    -0.219 N 
ATOM     20  C   UNL     1      35.091 -15.916 -24.273  0.00  0.00    +0.210 C 
ATOM     21  C   UNL     1      35.512 -16.601 -22.991  0.00  0.00    +0.147 C 
ATOM     22  C   UNL     1      34.784 -18.170 -24.526  0.00  0.00    +0.409 C 
BRANCH  20  23
ATOM     23  C   UNL     1      33.767 -15.172 -24.149  0.00  0.00    +0.134 C 
BRANCH  23  25
ATOM     24  O   UNL     1      31.861 -11.852 -22.153  0.00  0.00    -0.349 OA
ATOM     25  N   UNL     1      33.475 -14.919 -22.761  0.00  0.00    -0.312 N 
ATOM     26  N   UNL     1      32.420 -12.752 -23.051  0.00  0.00    -0.062 NA
ATOM     27  C   UNL     1      32.844 -13.773 -22.300  0.00  0.00    +0.171 C 
ATOM     28  C   UNL     1      32.582 -13.575 -20.934  0.00  0.00    +0.081 C 
ATOM     29  C   UNL     1      31.963 -12.353 -20.895  0.00  0.00    +0.215 C 
ATOM     30  H   UNL     1      33.739 -15.601 -22.100  0.00  0.00    +0.148 HD
ENDBRANCH  23  25
ENDBRANCH  20  23
ENDBRANCH   4  19
TORSDOF 4
ENDMDL
MODEL 7
REMARK VINA RESULT:     -12.2      3.295      9.128
REMARK  Name = 25184541
REMARK  4 active torsions:
REMARK  status: ('A' for Active; 'I' for Inactive)
REMARK    1  A    between atoms: C_4  and  N_19
REMARK    2  A    between atoms: C_5  and  N_11
REMARK    3  A    between atoms: C_20  and  C_23
REMARK    4  A    between atoms: C_23  and  N_25
REMARK                            x       y       z     vdW  Elec       q    Type
REMARK                         _______ _______ _______ _____ _____    ______ ____
ROOT
ATOM      1  F   UNL     1      37.311 -21.013 -18.501  0.00  0.00    -0.200 F 
ATOM      2  F   UNL     1      37.911 -22.397 -16.242  0.00  0.00    -0.200 F 
ATOM      3  F   UNL     1      33.543 -24.262 -16.224  0.00  0.00    -0.203 F 
ATOM      4  C   UNL     1      35.119 -21.927 -18.522  0.00  0.00    +0.089 C 
ATOM      5  C   UNL     1      35.735 -23.347 -16.202  0.00  0.00    +0.110 C 
ATOM      6  C   UNL     1      36.384 -21.807 -17.946  0.00  0.00    +0.182 C 
ATOM      7  C   UNL     1      34.163 -22.758 -17.938  0.00  0.00    +0.048 C 
ATOM      8  C   UNL     1      36.692 -22.518 -16.786  0.00  0.00    +0.184 C 
ATOM      9  C   UNL     1      34.471 -23.467 -16.778  0.00  0.00    +0.157 C 
ENDROOT
BRANCH   5  11
ATOM     10  O   UNL     1      37.001 -26.071 -11.602  0.00  0.00    -0.291 OA
ATOM     11  N   UNL     1      36.048 -24.068 -15.019  0.00  0.00    -0.282 N 
ATOM     12  C   UNL     1      35.562 -23.519 -13.741  0.00  0.00    +0.104 C 
ATOM     13  C   UNL     1      36.468 -23.942 -12.585  0.00  0.00    +0.091 C 
ATOM     14  C   UNL     1      36.619 -25.331 -15.026  0.00  0.00    +0.068 C 
ATOM     15  C   UNL     1      36.797 -25.420 -12.624  0.00  0.00    +0.176 C 
ATOM     16  C   UNL     1      36.963 -26.051 -13.953  0.00  0.00    +0.054 C 
ENDBRANCH   5  11
BRANCH   4  19
ATOM     17  O   UNL     1      33.672 -20.112 -21.327  0.00  0.00    -0.434 OA
ATOM     18  O   UNL     1      32.456 -20.921 -19.593  0.00  0.00    -0.226 OA
ATOM     19  N   UNL     1      34.802 -21.205 -19.707  0.00  0.00    -0.219 N 
ATOM     20  C   UNL     1      35.064 -19.905 -21.604  0.00  0.00    +0.210 C 
ATOM     21  C   UNL     1      35.776 -20.911 -20.725  0.00  0.00    +0.147 C 
ATOM     22  C   UNL     1      33.547 -20.769 -20.124  0.00  0.00    +0.409 C 
BRANCH  20  23
ATOM     23  C   UNL     1      35.422 -18.462 -21.275  0.00  0.00    +0.134 C 
BRANCH  23  25
ATOM     24  O   UNL     1      34.494 -14.285 -21.853  0.00  0.00    -0.349 OA
ATOM     25  N   UNL     1      35.327 -17.650 -22.461  0.00  0.00    -0.312 N 
ATOM     26  N   UNL     1      34.753 -15.560 -21.366  0.00  0.00    -0.062 NA
ATOM     27  C   UNL     1      35.011 -16.299 -22.450  0.00  0.00    +0.171 C 
ATOM     28  C   UNL     1      34.930 -15.551 -23.636  0.00  0.00    +0.081 C 
ATOM     29  C   UNL     1      34.603 -14.292 -23.207  0.00  0.00    +0.215 C 
ATOM     30  H   UNL     1      35.495 -18.079 -23.332  0.00  0.00    +0.148 HD
ENDBRANCH  23  25
ENDBRANCH  20  23
ENDBRANCH   4  19
TORSDOF 4
ENDMDL
MODEL 8
REMARK VINA RESULT:     -12.2      5.622      8.168
REMARK  Name = 25184541
REMARK  4 active torsions:
REMARK  status: ('A' for Active; 'I' for Inactive)
REMARK    1  A    between atoms: C_4  and  N_19
REMARK    2  A    between atoms: C_5  and  N_11
REMARK    3  A    between atoms: C_20  and  C_23
REMARK    4  A    between atoms: C_23  and  N_25
REMARK                            x       y       z     vdW  Elec       q    Type
REMARK                         _______ _______ _______ _____ _____    ______ ____
ROOT
ATOM      1  F   UNL     1      34.558 -25.047 -13.263  0.00  0.00    -0.200 F 
ATOM      2  F   UNL     1      31.881 -24.614 -13.419  0.00  0.00    -0.200 F 
ATOM      3  F   UNL     1      32.422 -22.861 -17.801  0.00  0.00    -0.203 F 
ATOM      4  C   UNL     1      34.864 -24.176 -15.451  0.00  0.00    +0.089 C 
ATOM      5  C   UNL     1      32.116 -23.731 -15.611  0.00  0.00    +0.110 C 
ATOM      6  C   UNL     1      34.040 -24.510 -14.377  0.00  0.00    +0.182 C 
ATOM      7  C   UNL     1      34.314 -23.620 -16.606  0.00  0.00    +0.048 C 
ATOM      8  C   UNL     1      32.665 -24.287 -14.457  0.00  0.00    +0.184 C 
ATOM      9  C   UNL     1      32.940 -23.397 -16.686  0.00  0.00    +0.157 C 
ENDROOT
BRANCH   5  11
ATOM     10  O   UNL     1      26.709 -22.845 -16.014  0.00  0.00    -0.291 OA
ATOM     11  N   UNL     1      30.717 -23.501 -15.692  0.00  0.00    -0.282 N 
ATOM     12  C   UNL     1      29.866 -24.628 -16.114  0.00  0.00    +0.104 C 
ATOM     13  C   UNL     1      28.590 -24.126 -16.789  0.00  0.00    +0.091 C 
ATOM     14  C   UNL     1      30.108 -22.344 -15.228  0.00  0.00    +0.068 C 
ATOM     15  C   UNL     1      27.926 -23.012 -16.007  0.00  0.00    +0.176 C 
ATOM     16  C   UNL     1      28.805 -22.053 -15.299  0.00  0.00    +0.054 C 
ENDBRANCH   5  11
BRANCH   4  19
ATOM     17  O   UNL     1      38.500 -24.085 -15.292  0.00  0.00    -0.434 OA
ATOM     18  O   UNL     1      37.204 -22.233 -15.477  0.00  0.00    -0.226 OA
ATOM     19  N   UNL     1      36.268 -24.403 -15.373  0.00  0.00    -0.219 N 
ATOM     20  C   UNL     1      38.286 -25.469 -14.988  0.00  0.00    +0.210 C 
ATOM     21  C   UNL     1      36.845 -25.721 -15.380  0.00  0.00    +0.147 C 
ATOM     22  C   UNL     1      37.282 -23.450 -15.381  0.00  0.00    +0.409 C 
BRANCH  20  23
ATOM     23  C   UNL     1      38.551 -25.694 -13.505  0.00  0.00    +0.134 C 
BRANCH  23  25
ATOM     24  O   UNL     1      35.567 -25.303 -10.409  0.00  0.00    -0.349 OA
ATOM     25  N   UNL     1      38.091 -24.558 -12.746  0.00  0.00    -0.312 N 
ATOM     26  N   UNL     1      36.444 -25.728 -11.399  0.00  0.00    -0.062 NA
ATOM     27  C   UNL     1      37.104 -24.628 -11.774  0.00  0.00    +0.171 C 
ATOM     28  C   UNL     1      36.690 -23.490 -11.063  0.00  0.00    +0.081 C 
ATOM     29  C   UNL     1      35.723 -23.967 -10.217  0.00  0.00    +0.215 C 
ATOM     30  H   UNL     1      38.500 -23.682 -12.930  0.00  0.00    +0.148 HD
ENDBRANCH  23  25
ENDBRANCH  20  23
ENDBRANCH   4  19
TORSDOF 4
ENDMDL
MODEL 9
REMARK VINA RESULT:     -12.0      6.639     10.897
REMARK  Name = 25184541
REMARK  4 active torsions:
REMARK  status: ('A' for Active; 'I' for Inactive)
REMARK    1  A    between atoms: C_4  and  N_19
REMARK    2  A    between atoms: C_5  and  N_11
REMARK    3  A    between atoms: C_20  and  C_23
REMARK    4  A    between atoms: C_23  and  N_25
REMARK                            x       y       z     vdW  Elec       q    Type
REMARK                         _______ _______ _______ _____ _____    ______ ____
ROOT
ATOM      1  F   UNL     1      34.926 -11.771 -25.122  0.00  0.00    -0.200 F 
ATOM      2  F   UNL     1      34.469  -9.506 -23.695  0.00  0.00    -0.200 F 
ATOM      3  F   UNL     1      30.818 -11.618 -21.511  0.00  0.00    -0.203 F 
ATOM      4  C   UNL     1      33.107 -12.858 -24.049  0.00  0.00    +0.089 C 
ATOM      5  C   UNL     1      32.637 -10.531 -22.585  0.00  0.00    +0.110 C 
ATOM      6  C   UNL     1      33.917 -11.739 -24.239  0.00  0.00    +0.182 C 
ATOM      7  C   UNL     1      32.061 -12.814 -23.126  0.00  0.00    +0.048 C 
ATOM      8  C   UNL     1      33.682 -10.575 -23.506  0.00  0.00    +0.184 C 
ATOM      9  C   UNL     1      31.827 -11.650 -22.395  0.00  0.00    +0.157 C 
ENDROOT
BRANCH   5  11
ATOM     10  O   UNL     1      31.770  -5.906 -19.750  0.00  0.00    -0.291 OA
ATOM     11  N   UNL     1      32.395  -9.346 -21.841  0.00  0.00    -0.282 N 
ATOM     12  C   UNL     1      31.815  -8.198 -22.560  0.00  0.00    +0.104 C 
ATOM     13  C   UNL     1      32.220  -6.880 -21.902  0.00  0.00    +0.091 C 
ATOM     14  C   UNL     1      32.508  -9.278 -20.460  0.00  0.00    +0.068 C 
ATOM     15  C   UNL     1      32.048  -6.913 -20.398  0.00  0.00    +0.176 C 
ATOM     16  C   UNL     1      32.323  -8.192 -19.704  0.00  0.00    +0.054 C 
ENDBRANCH   5  11
BRANCH   4  19
ATOM     17  O   UNL     1      33.712 -15.489 -26.491  0.00  0.00    -0.434 OA
ATOM     18  O   UNL     1      33.462 -13.303 -27.037  0.00  0.00    -0.226 OA
ATOM     19  N   UNL     1      33.345 -14.048 -24.795  0.00  0.00    -0.219 N 
ATOM     20  C   UNL     1      33.919 -16.235 -25.284  0.00  0.00    +0.210 C 
ATOM     21  C   UNL     1      33.343 -15.356 -24.196  0.00  0.00    +0.147 C 
ATOM     22  C   UNL     1      33.507 -14.166 -26.172  0.00  0.00    +0.409 C 
BRANCH  20  23
ATOM     23  C   UNL     1      35.411 -16.496 -25.117  0.00  0.00    +0.134 C 
BRANCH  23  25
ATOM     24  O   UNL     1      35.005 -19.860 -22.442  0.00  0.00    -0.349 OA
ATOM     25  N   UNL     1      35.727 -16.662 -23.722  0.00  0.00    -0.312 N 
ATOM     26  N   UNL     1      35.015 -18.973 -23.512  0.00  0.00    -0.062 NA
ATOM     27  C   UNL     1      35.523 -17.840 -23.018  0.00  0.00    +0.171 C 
ATOM     28  C   UNL     1      35.848 -17.950 -21.656  0.00  0.00    +0.081 C 
ATOM     29  C   UNL     1      35.504 -19.239 -21.342  0.00  0.00    +0.215 C 
ATOM     30  H   UNL     1      36.110 -15.893 -23.239  0.00  0.00    +0.148 HD
ENDBRANCH  23  25
ENDBRANCH  20  23
ENDBRANCH   4  19
TORSDOF 4
ENDMDL
