MODEL 1
REMARK VINA RESULT:     -13.1      0.000      0.000
REMARK  Name = 154000
REMARK  7 active torsions:
REMARK  status: ('A' for Active; 'I' for Inactive)
REMARK    1  A    between atoms: O_1  and  C_5
REMARK    2  A    between atoms: O_1  and  C_17
REMARK    3  A    between atoms: C_2  and  C_8
REMARK    4  A    between atoms: C_8  and  C_13
REMARK    5  A    between atoms: C_17  and  C_18
REMARK    6  A    between atoms: C_18  and  C_21
REMARK    7  A    between atoms: C_23  and  C_25
REMARK                            x       y       z     vdW  Elec       q    Type
REMARK                         _______ _______ _______ _____ _____    ______ ____
ROOT
ATOM      1  O   UNL     1      33.169 -14.446 -22.342  0.00  0.00    -0.475 OA
ENDROOT
BRANCH   1   5
ATOM      2  C   UNL     1      32.052 -10.466 -22.326  0.00  0.00    -0.021 C 
ATOM      3  C   UNL     1      31.599 -11.304 -21.318  0.00  0.00    -0.001 C 
ATOM      4  C   UNL     1      32.872 -10.939 -23.339  0.00  0.00    -0.001 C 
ATOM      5  C   UNL     1      32.800 -13.136 -22.336  0.00  0.00    +0.139 C 
ATOM      6  C   UNL     1      31.976 -12.647 -21.323  0.00  0.00    +0.037 C 
ATOM      7  C   UNL     1      33.248 -12.282 -23.344  0.00  0.00    +0.037 C 
BRANCH   2   8
ATOM      8  C   UNL     1      31.643  -9.015 -22.321  0.00  0.00    +0.047 C 
BRANCH   8  13
ATOM      9  O   UNL     1      32.769  -5.792 -21.884  0.00  0.00    -0.346 OA
ATOM     10  O   UNL     1      32.047  -8.181 -19.440  0.00  0.00    -0.272 OA
ATOM     11  O   UNL     1      33.256  -6.919 -23.825  0.00  0.00    -0.247 OA
ATOM     12  N   UNL     1      32.406  -6.179 -20.577  0.00  0.00    -0.144 N 
ATOM     13  C   UNL     1      32.735  -8.119 -21.767  0.00  0.00    +0.184 C 
ATOM     14  C   UNL     1      32.348  -7.545 -20.438  0.00  0.00    +0.264 C 
ATOM     15  C   UNL     1      32.956  -6.914 -22.643  0.00  0.00    +0.348 C 
ATOM     16  H   UNL     1      32.216  -5.544 -19.849  0.00  0.00    +0.196 HD
ENDBRANCH   8  13
ENDBRANCH   2   8
ENDBRANCH   1   5
BRANCH   1  17
ATOM     17  C   UNL     1      33.897 -14.911 -23.479  0.00  0.00    +0.213 C 
BRANCH  17  18
ATOM     18  C   UNL     1      35.177 -15.604 -23.023  0.00  0.00    +0.105 C 
BRANCH  18  21
ATOM     19  O   UNL     1      34.687 -19.219 -23.127  0.00  0.00    -0.449 OA
ATOM     20  N   UNL     1      35.075 -17.611 -21.584  0.00  0.00    -0.373 NA
ATOM     21  C   UNL     1      35.003 -17.082 -22.829  0.00  0.00    +0.134 C 
ATOM     22  C   UNL     1      34.772 -18.023 -23.774  0.00  0.00    +0.216 C 
ATOM     23  C   UNL     1      34.878 -18.889 -21.821  0.00  0.00    +0.277 C 
ATOM     24  C   UNL     1      34.605 -18.038 -25.231  0.00  0.00    +0.055 C 
BRANCH  23  25
ATOM     25  C   UNL     1      34.837 -19.991 -20.899  0.00  0.00    +0.066 C 
ATOM     26  C   UNL     1      36.024 -20.546 -20.412  0.00  0.00    +0.006 C 
ATOM     27  C   UNL     1      33.610 -20.517 -20.488  0.00  0.00    +0.006 C 
ATOM     28  C   UNL     1      35.983 -21.617 -19.520  0.00  0.00    +0.000 C 
ATOM     29  C   UNL     1      33.568 -21.588 -19.595  0.00  0.00    +0.000 C 
ATOM     30  C   UNL     1      34.755 -22.138 -19.111  0.00  0.00    +0.000 C 
ENDBRANCH  23  25
ENDBRANCH  18  21
ENDBRANCH  17  18
ENDBRANCH   1  17
TORSDOF 7
ENDMDL
MODEL 2
REMARK VINA RESULT:     -13.1      2.751     10.938
REMARK  Name = 154000
REMARK  7 active torsions:
REMARK  status: ('A' for Active; 'I' for Inactive)
REMARK    1  A    between atoms: O_1  and  C_5
REMARK    2  A    between atoms: O_1  and  C_17
REMARK    3  A    between atoms: C_2  and  C_8
REMARK    4  A    between atoms: C_8  and  C_13
REMARK    5  A    between atoms: C_17  and  C_18
REMARK    6  A    between atoms: C_18  and  C_21
REMARK    7  A    between atoms: C_23  and  C_25
REMARK                            x       y       z     vdW  Elec       q    Type
REMARK                         _______ _______ _______ _____ _____    ______ ____
ROOT
ATOM      1  O   UNL     1      31.286 -11.743 -20.953  0.00  0.00    -0.475 OA
ENDROOT
BRANCH   1   5
ATOM      2  C   UNL     1      33.964 -14.325 -22.755  0.00  0.00    -0.021 C 
ATOM      3  C   UNL     1      33.440 -14.646 -21.511  0.00  0.00    -0.001 C 
ATOM      4  C   UNL     1      33.607 -13.153 -23.404  0.00  0.00    -0.001 C 
ATOM      5  C   UNL     1      32.168 -12.593 -21.546  0.00  0.00    +0.139 C 
ATOM      6  C   UNL     1      32.536 -13.776 -20.903  0.00  0.00    +0.037 C 
ATOM      7  C   UNL     1      32.703 -12.282 -22.795  0.00  0.00    +0.037 C 
BRANCH   2   8
ATOM      8  C   UNL     1      34.943 -15.266 -23.411  0.00  0.00    +0.047 C 
BRANCH   8  13
ATOM      9  O   UNL     1      35.011 -17.701 -25.842  0.00  0.00    -0.346 OA
ATOM     10  O   UNL     1      34.986 -18.109 -22.374  0.00  0.00    -0.272 OA
ATOM     11  O   UNL     1      34.075 -15.654 -26.301  0.00  0.00    -0.247 OA
ATOM     12  N   UNL     1      35.281 -18.426 -24.663  0.00  0.00    -0.144 N 
ATOM     13  C   UNL     1      34.251 -16.475 -24.012  0.00  0.00    +0.184 C 
ATOM     14  C   UNL     1      34.874 -17.753 -23.536  0.00  0.00    +0.264 C 
ATOM     15  C   UNL     1      34.414 -16.517 -25.508  0.00  0.00    +0.348 C 
ATOM     16  H   UNL     1      35.711 -19.311 -24.649  0.00  0.00    +0.196 HD
ENDBRANCH   8  13
ENDBRANCH   2   8
ENDBRANCH   1   5
BRANCH   1  17
ATOM     17  C   UNL     1      31.199 -10.422 -21.488  0.00  0.00    +0.213 C 
BRANCH  17  18
ATOM     18  C   UNL     1      31.949  -9.449 -20.582  0.00  0.00    +0.105 C 
BRANCH  18  21
ATOM     19  O   UNL     1      32.749  -6.101 -21.794  0.00  0.00    -0.449 OA
ATOM     20  N   UNL     1      32.779  -8.227 -22.565  0.00  0.00    -0.373 NA
ATOM     21  C   UNL     1      32.337  -8.180 -21.285  0.00  0.00    +0.134 C 
ATOM     22  C   UNL     1      32.309  -6.919 -20.797  0.00  0.00    +0.216 C 
ATOM     23  C   UNL     1      33.010  -6.958 -22.818  0.00  0.00    +0.277 C 
ATOM     24  C   UNL     1      31.937  -6.284 -19.528  0.00  0.00    +0.055 C 
BRANCH  23  25
ATOM     25  C   UNL     1      33.500  -6.343 -24.021  0.00  0.00    +0.066 C 
ATOM     26  C   UNL     1      32.691  -5.459 -24.740  0.00  0.00    +0.006 C 
ATOM     27  C   UNL     1      34.789  -6.628 -24.480  0.00  0.00    +0.006 C 
ATOM     28  C   UNL     1      33.167  -4.864 -25.908  0.00  0.00    +0.000 C 
ATOM     29  C   UNL     1      35.265  -6.033 -25.648  0.00  0.00    +0.000 C 
ATOM     30  C   UNL     1      34.454  -5.151 -26.363  0.00  0.00    +0.000 C 
ENDBRANCH  23  25
ENDBRANCH  18  21
ENDBRANCH  17  18
ENDBRANCH   1  17
TORSDOF 7
ENDMDL
MODEL 3
REMARK VINA RESULT:     -12.9      3.946     11.268
REMARK  Name = 154000
REMARK  7 active torsions:
REMARK  status: ('A' for Active; 'I' for Inactive)
REMARK    1  A    between atoms: O_1  and  C_5
REMARK    2  A    between atoms: O_1  and  C_17
REMARK    3  A    between atoms: C_2  and  C_8
REMARK    4  A    between atoms: C_8  and  C_13
REMARK    5  A    between atoms: C_17  and  C_18
REMARK    6  A    between atoms: C_18  and  C_21
REMARK    7  A    between atoms: C_23  and  C_25
REMARK                            x       y       z     vdW  Elec       q    Type
REMARK                         _______ _______ _______ _____ _____    ______ ____
ROOT
ATOM      1  O   UNL     1      34.531 -19.210 -21.453  0.00  0.00    -0.475 OA
ENDROOT
BRANCH   1   5
ATOM      2  C   UNL     1      33.928 -22.406 -18.902  0.00  0.00    -0.021 C 
ATOM      3  C   UNL     1      32.837 -21.673 -19.345  0.00  0.00    -0.001 C 
ATOM      4  C   UNL     1      35.217 -22.086 -19.299  0.00  0.00    -0.001 C 
ATOM      5  C   UNL     1      34.332 -20.262 -20.613  0.00  0.00    +0.139 C 
ATOM      6  C   UNL     1      33.040 -20.594 -20.205  0.00  0.00    +0.037 C 
ATOM      7  C   UNL     1      35.420 -21.007 -20.160  0.00  0.00    +0.037 C 
BRANCH   2   8
ATOM      8  C   UNL     1      33.708 -23.571 -17.970  0.00  0.00    +0.047 C 
BRANCH   8  13
ATOM      9  O   UNL     1      32.721 -24.230 -14.740  0.00  0.00    -0.346 OA
ATOM     10  O   UNL     1      35.966 -24.102 -16.026  0.00  0.00    -0.272 OA
ATOM     11  O   UNL     1      31.390 -22.946 -16.102  0.00  0.00    -0.247 OA
ATOM     12  N   UNL     1      34.090 -24.571 -14.727  0.00  0.00    -0.144 N 
ATOM     13  C   UNL     1      33.784 -23.155 -16.514  0.00  0.00    +0.184 C 
ATOM     14  C   UNL     1      34.780 -23.985 -15.761  0.00  0.00    +0.264 C 
ATOM     15  C   UNL     1      32.480 -23.402 -15.801  0.00  0.00    +0.348 C 
ATOM     16  H   UNL     1      34.502 -25.161 -14.055  0.00  0.00    +0.196 HD
ENDBRANCH   8  13
ENDBRANCH   2   8
ENDBRANCH   1   5
BRANCH   1  17
ATOM     17  C   UNL     1      35.625 -19.305 -22.365  0.00  0.00    +0.213 C 
BRANCH  17  18
ATOM     18  C   UNL     1      36.268 -17.933 -22.544  0.00  0.00    +0.105 C 
BRANCH  18  21
ATOM     19  O   UNL     1      33.853 -15.646 -24.049  0.00  0.00    -0.449 OA
ATOM     20  N   UNL     1      34.941 -15.899 -22.081  0.00  0.00    -0.373 NA
ATOM     21  C   UNL     1      35.282 -16.877 -22.955  0.00  0.00    +0.134 C 
ATOM     22  C   UNL     1      34.646 -16.751 -24.142  0.00  0.00    +0.216 C 
ATOM     23  C   UNL     1      34.086 -15.192 -22.787  0.00  0.00    +0.277 C 
ATOM     24  C   UNL     1      34.623 -17.484 -25.412  0.00  0.00    +0.055 C 
BRANCH  23  25
ATOM     25  C   UNL     1      33.358 -14.009 -22.419  0.00  0.00    +0.066 C 
ATOM     26  C   UNL     1      32.701 -13.942 -21.187  0.00  0.00    +0.006 C 
ATOM     27  C   UNL     1      33.301 -12.920 -23.292  0.00  0.00    +0.006 C 
ATOM     28  C   UNL     1      31.993 -12.794 -20.832  0.00  0.00    +0.000 C 
ATOM     29  C   UNL     1      32.594 -11.771 -22.937  0.00  0.00    +0.000 C 
ATOM     30  C   UNL     1      31.939 -11.708 -21.706  0.00  0.00    +0.000 C 
ENDBRANCH  23  25
ENDBRANCH  18  21
ENDBRANCH  17  18
ENDBRANCH   1  17
TORSDOF 7
ENDMDL
MODEL 4
REMARK VINA RESULT:     -12.9      5.573      9.762
REMARK  Name = 154000
REMARK  7 active torsions:
REMARK  status: ('A' for Active; 'I' for Inactive)
REMARK    1  A    between atoms: O_1  and  C_5
REMARK    2  A    between atoms: O_1  and  C_17
REMARK    3  A    between atoms: C_2  and  C_8
REMARK    4  A    between atoms: C_8  and  C_13
REMARK    5  A    between atoms: C_17  and  C_18
REMARK    6  A    between atoms: C_18  and  C_21
REMARK    7  A    between atoms: C_23  and  C_25
REMARK                            x       y       z     vdW  Elec       q    Type
REMARK                         _______ _______ _______ _____ _____    ______ ____
ROOT
ATOM      1  O   UNL     1      32.927 -22.463 -19.029  0.00  0.00    -0.475 OA
ENDROOT
BRANCH   1   5
ATOM      2  C   UNL     1      35.023 -19.640 -21.203  0.00  0.00    -0.021 C 
ATOM      3  C   UNL     1      33.636 -19.627 -21.228  0.00  0.00    -0.001 C 
ATOM      4  C   UNL     1      35.719 -20.583 -20.462  0.00  0.00    -0.001 C 
ATOM      5  C   UNL     1      33.617 -21.533 -19.745  0.00  0.00    +0.139 C 
ATOM      6  C   UNL     1      32.929 -20.579 -20.495  0.00  0.00    +0.037 C 
ATOM      7  C   UNL     1      35.012 -21.535 -19.729  0.00  0.00    +0.037 C 
BRANCH   2   8
ATOM      8  C   UNL     1      35.788 -18.611 -21.998  0.00  0.00    +0.047 C 
BRANCH   8  13
ATOM      9  O   UNL     1      35.425 -15.515 -23.455  0.00  0.00    -0.346 OA
ATOM     10  O   UNL     1      35.048 -18.658 -24.932  0.00  0.00    -0.272 OA
ATOM     11  O   UNL     1      35.062 -15.766 -21.201  0.00  0.00    -0.247 OA
ATOM     12  N   UNL     1      35.420 -16.387 -24.563  0.00  0.00    -0.144 N 
ATOM     13  C   UNL     1      34.863 -17.657 -22.728  0.00  0.00    +0.184 C 
ATOM     14  C   UNL     1      35.113 -17.678 -24.206  0.00  0.00    +0.264 C 
ATOM     15  C   UNL     1      35.119 -16.227 -22.329  0.00  0.00    +0.348 C 
ATOM     16  H   UNL     1      35.615 -16.104 -25.486  0.00  0.00    +0.196 HD
ENDBRANCH   8  13
ENDBRANCH   2   8
ENDBRANCH   1   5
BRANCH   1  17
ATOM     17  C   UNL     1      33.687 -23.319 -18.175  0.00  0.00    +0.213 C 
BRANCH  17  18
ATOM     18  C   UNL     1      33.125 -23.263 -16.758  0.00  0.00    +0.105 C 
BRANCH  18  21
ATOM     19  O   UNL     1      34.930 -24.740 -13.950  0.00  0.00    -0.449 OA
ATOM     20  N   UNL     1      35.390 -23.906 -16.002  0.00  0.00    -0.373 NA
ATOM     21  C   UNL     1      34.063 -23.839 -15.736  0.00  0.00    +0.134 C 
ATOM     22  C   UNL     1      33.759 -24.332 -14.514  0.00  0.00    +0.216 C 
ATOM     23  C   UNL     1      35.859 -24.451 -14.902  0.00  0.00    +0.277 C 
ATOM     24  C   UNL     1      32.538 -24.510 -13.720  0.00  0.00    +0.055 C 
BRANCH  23  25
ATOM     25  C   UNL     1      37.213 -24.789 -14.557  0.00  0.00    +0.066 C 
ATOM     26  C   UNL     1      37.490 -25.451 -13.358  0.00  0.00    +0.006 C 
ATOM     27  C   UNL     1      38.261 -24.455 -15.419  0.00  0.00    +0.006 C 
ATOM     28  C   UNL     1      38.804 -25.776 -13.024  0.00  0.00    +0.000 C 
ATOM     29  C   UNL     1      39.575 -24.781 -15.086  0.00  0.00    +0.000 C 
ATOM     30  C   UNL     1      39.847 -25.441 -13.888  0.00  0.00    +0.000 C 
ENDBRANCH  23  25
ENDBRANCH  18  21
ENDBRANCH  17  18
ENDBRANCH   1  17
TORSDOF 7
ENDMDL
MODEL 5
REMARK VINA RESULT:     -12.7      1.321      1.874
REMARK  Name = 154000
REMARK  7 active torsions:
REMARK  status: ('A' for Active; 'I' for Inactive)
REMARK    1  A    between atoms: O_1  and  C_5
REMARK    2  A    between atoms: O_1  and  C_17
REMARK    3  A    between atoms: C_2  and  C_8
REMARK    4  A    between atoms: C_8  and  C_13
REMARK    5  A    between atoms: C_17  and  C_18
REMARK    6  A    between atoms: C_18  and  C_21
REMARK    7  A    between atoms: C_23  and  C_25
REMARK                            x       y       z     vdW  Elec       q    Type
REMARK                         _______ _______ _______ _____ _____    ______ ____
ROOT
ATOM      1  O   UNL     1      34.216 -14.046 -24.760  0.00  0.00    -0.475 OA
ENDROOT
BRANCH   1   5
ATOM      2  C   UNL     1      32.216 -11.123 -22.630  0.00  0.00    -0.021 C 
ATOM      3  C   UNL     1      33.144 -10.750 -23.591  0.00  0.00    -0.001 C 
ATOM      4  C   UNL     1      31.947 -12.458 -22.371  0.00  0.00    -0.001 C 
ATOM      5  C   UNL     1      33.558 -13.083 -24.059  0.00  0.00    +0.139 C 
ATOM      6  C   UNL     1      33.819 -11.736 -24.310  0.00  0.00    +0.037 C 
ATOM      7  C   UNL     1      32.623 -13.444 -23.090  0.00  0.00    +0.037 C 
BRANCH   2   8
ATOM      8  C   UNL     1      31.487 -10.056 -21.852  0.00  0.00    +0.047 C 
BRANCH   8  13
ATOM      9  O   UNL     1      31.766  -6.778 -20.843  0.00  0.00    -0.346 OA
ATOM     10  O   UNL     1      32.695  -9.662 -19.105  0.00  0.00    -0.272 OA
ATOM     11  O   UNL     1      31.780  -7.289 -23.082  0.00  0.00    -0.247 OA
ATOM     12  N   UNL     1      32.039  -7.496 -19.660  0.00  0.00    -0.144 N 
ATOM     13  C   UNL     1      32.417  -8.943 -21.407  0.00  0.00    +0.184 C 
ATOM     14  C   UNL     1      32.414  -8.793 -19.916  0.00  0.00    +0.264 C 
ATOM     15  C   UNL     1      31.955  -7.603 -21.917  0.00  0.00    +0.348 C 
ATOM     16  H   UNL     1      31.970  -7.112 -18.756  0.00  0.00    +0.196 HD
ENDBRANCH   8  13
ENDBRANCH   2   8
ENDBRANCH   1   5
BRANCH   1  17
ATOM     17  C   UNL     1      33.758 -15.390 -24.605  0.00  0.00    +0.213 C 
BRANCH  17  18
ATOM     18  C   UNL     1      34.951 -16.321 -24.407  0.00  0.00    +0.105 C 
BRANCH  18  21
ATOM     19  O   UNL     1      34.942 -17.422 -20.927  0.00  0.00    -0.449 OA
ATOM     20  N   UNL     1      34.947 -18.348 -22.991  0.00  0.00    -0.373 NA
ATOM     21  C   UNL     1      34.947 -16.995 -23.065  0.00  0.00    +0.134 C 
ATOM     22  C   UNL     1      34.944 -16.414 -21.844  0.00  0.00    +0.216 C 
ATOM     23  C   UNL     1      34.944 -18.548 -21.692  0.00  0.00    +0.277 C 
ATOM     24  C   UNL     1      34.943 -15.041 -21.326  0.00  0.00    +0.055 C 
BRANCH  23  25
ATOM     25  C   UNL     1      34.942 -19.785 -20.960  0.00  0.00    +0.066 C 
ATOM     26  C   UNL     1      36.148 -20.385 -20.588  0.00  0.00    +0.006 C 
ATOM     27  C   UNL     1      33.732 -20.396 -20.619  0.00  0.00    +0.006 C 
ATOM     28  C   UNL     1      36.144 -21.587 -19.880  0.00  0.00    +0.000 C 
ATOM     29  C   UNL     1      33.728 -21.597 -19.910  0.00  0.00    +0.000 C 
ATOM     30  C   UNL     1      34.934 -22.193 -19.540  0.00  0.00    +0.000 C 
ENDBRANCH  23  25
ENDBRANCH  18  21
ENDBRANCH  17  18
ENDBRANCH   1  17
TORSDOF 7
ENDMDL
MODEL 6
REMARK VINA RESULT:     -12.7      6.413     10.435
REMARK  Name = 154000
REMARK  7 active torsions:
REMARK  status: ('A' for Active; 'I' for Inactive)
REMARK    1  A    between atoms: O_1  and  C_5
REMARK    2  A    between atoms: O_1  and  C_17
REMARK    3  A    between atoms: C_2  and  C_8
REMARK    4  A    between atoms: C_8  and  C_13
REMARK    5  A    between atoms: C_17  and  C_18
REMARK    6  A    between atoms: C_18  and  C_21
REMARK    7  A    between atoms: C_23  and  C_25
REMARK                            x       y       z     vdW  Elec       q    Type
REMARK                         _______ _______ _______ _____ _____    ______ ____
ROOT
ATOM      1  O   UNL     1      36.250 -22.899 -17.395  0.00  0.00    -0.475 OA
ENDROOT
BRANCH   1   5
ATOM      2  C   UNL     1      34.784 -20.628 -20.523  0.00  0.00    -0.021 C 
ATOM      3  C   UNL     1      33.903 -21.363 -19.744  0.00  0.00    -0.001 C 
ATOM      4  C   UNL     1      36.148 -20.641 -20.272  0.00  0.00    -0.001 C 
ATOM      5  C   UNL     1      35.767 -22.151 -18.425  0.00  0.00    +0.139 C 
ATOM      6  C   UNL     1      34.397 -22.129 -18.688  0.00  0.00    +0.037 C 
ATOM      7  C   UNL     1      36.642 -21.408 -19.216  0.00  0.00    +0.037 C 
BRANCH   2   8
ATOM      8  C   UNL     1      34.250 -19.801 -21.665  0.00  0.00    +0.047 C 
BRANCH   8  13
ATOM      9  O   UNL     1      35.069 -17.670 -24.240  0.00  0.00    -0.346 OA
ATOM     10  O   UNL     1      35.368 -17.124 -20.803  0.00  0.00    -0.272 OA
ATOM     11  O   UNL     1      35.103 -19.941 -24.581  0.00  0.00    -0.247 OA
ATOM     12  N   UNL     1      35.147 -16.837 -23.105  0.00  0.00    -0.144 N 
ATOM     13  C   UNL     1      35.342 -18.999 -22.345  0.00  0.00    +0.184 C 
ATOM     14  C   UNL     1      35.291 -17.556 -21.942  0.00  0.00    +0.264 C 
ATOM     15  C   UNL     1      35.159 -18.974 -23.840  0.00  0.00    +0.348 C 
ATOM     16  H   UNL     1      35.102 -15.854 -23.141  0.00  0.00    +0.196 HD
ENDBRANCH   8  13
ENDBRANCH   2   8
ENDBRANCH   1   5
BRANCH   1  17
ATOM     17  C   UNL     1      36.347 -22.263 -16.120  0.00  0.00    +0.213 C 
BRANCH  17  18
ATOM     18  C   UNL     1      36.366 -23.317 -15.018  0.00  0.00    +0.105 C 
BRANCH  18  21
ATOM     19  O   UNL     1      33.280 -24.407 -13.402  0.00  0.00    -0.449 OA
ATOM     20  N   UNL     1      33.936 -23.566 -15.397  0.00  0.00    -0.373 NA
ATOM     21  C   UNL     1      34.991 -23.707 -14.559  0.00  0.00    +0.134 C 
ATOM     22  C   UNL     1      34.627 -24.208 -13.356  0.00  0.00    +0.216 C 
ATOM     23  C   UNL     1      32.941 -23.999 -14.656  0.00  0.00    +0.277 C 
ATOM     24  C   UNL     1      35.312 -24.560 -12.107  0.00  0.00    +0.055 C 
BRANCH  23  25
ATOM     25  C   UNL     1      31.544 -24.104 -14.976  0.00  0.00    +0.066 C 
ATOM     26  C   UNL     1      30.916 -23.104 -15.725  0.00  0.00    +0.006 C 
ATOM     27  C   UNL     1      30.804 -25.205 -14.537  0.00  0.00    +0.006 C 
ATOM     28  C   UNL     1      29.560 -23.206 -16.032  0.00  0.00    +0.000 C 
ATOM     29  C   UNL     1      29.447 -25.307 -14.845  0.00  0.00    +0.000 C 
ATOM     30  C   UNL     1      28.825 -24.308 -15.593  0.00  0.00    +0.000 C 
ENDBRANCH  23  25
ENDBRANCH  18  21
ENDBRANCH  17  18
ENDBRANCH   1  17
TORSDOF 7
ENDMDL
MODEL 7
REMARK VINA RESULT:     -12.6      4.803     12.375
REMARK  Name = 154000
REMARK  7 active torsions:
REMARK  status: ('A' for Active; 'I' for Inactive)
REMARK    1  A    between atoms: O_1  and  C_5
REMARK    2  A    between atoms: O_1  and  C_17
REMARK    3  A    between atoms: C_2  and  C_8
REMARK    4  A    between atoms: C_8  and  C_13
REMARK    5  A    between atoms: C_17  and  C_18
REMARK    6  A    between atoms: C_18  and  C_21
REMARK    7  A    between atoms: C_23  and  C_25
REMARK                            x       y       z     vdW  Elec       q    Type
REMARK                         _______ _______ _______ _____ _____    ______ ____
ROOT
ATOM      1  O   UNL     1      35.688 -21.245 -20.564  0.00  0.00    -0.475 OA
ENDROOT
BRANCH   1   5
ATOM      2  C   UNL     1      35.583 -22.776 -16.725  0.00  0.00    -0.021 C 
ATOM      3  C   UNL     1      34.459 -22.884 -17.533  0.00  0.00    -0.001 C 
ATOM      4  C   UNL     1      36.739 -22.164 -17.183  0.00  0.00    -0.001 C 
ATOM      5  C   UNL     1      35.652 -21.749 -19.300  0.00  0.00    +0.139 C 
ATOM      6  C   UNL     1      34.494 -22.367 -18.828  0.00  0.00    +0.037 C 
ATOM      7  C   UNL     1      36.774 -21.647 -18.478  0.00  0.00    +0.037 C 
BRANCH   2   8
ATOM      8  C   UNL     1      35.543 -23.333 -15.325  0.00  0.00    +0.047 C 
BRANCH   8  13
ATOM      9  O   UNL     1      37.247 -25.176 -12.970  0.00  0.00    -0.346 OA
ATOM     10  O   UNL     1      35.830 -26.277 -15.967  0.00  0.00    -0.272 OA
ATOM     11  O   UNL     1      37.681 -22.932 -13.197  0.00  0.00    -0.247 OA
ATOM     12  N   UNL     1      36.690 -26.168 -13.805  0.00  0.00    -0.144 N 
ATOM     13  C   UNL     1      36.735 -24.226 -15.036  0.00  0.00    +0.184 C 
ATOM     14  C   UNL     1      36.346 -25.673 -15.040  0.00  0.00    +0.264 C 
ATOM     15  C   UNL     1      37.277 -23.990 -13.650  0.00  0.00    +0.348 C 
ATOM     16  H   UNL     1      36.564 -27.106 -13.533  0.00  0.00    +0.196 HD
ENDBRANCH   8  13
ENDBRANCH   2   8
ENDBRANCH   1   5
BRANCH   1  17
ATOM     17  C   UNL     1      34.977 -20.029 -20.798  0.00  0.00    +0.213 C 
BRANCH  17  18
ATOM     18  C   UNL     1      35.946 -18.949 -21.268  0.00  0.00    +0.105 C 
BRANCH  18  21
ATOM     19  O   UNL     1      34.376 -16.571 -23.549  0.00  0.00    -0.449 OA
ATOM     20  N   UNL     1      34.817 -16.750 -21.338  0.00  0.00    -0.373 NA
ATOM     21  C   UNL     1      35.263 -17.837 -22.012  0.00  0.00    +0.134 C 
ATOM     22  C   UNL     1      35.013 -17.757 -23.339  0.00  0.00    +0.216 C 
ATOM     23  C   UNL     1      34.297 -16.027 -22.304  0.00  0.00    +0.277 C 
ATOM     24  C   UNL     1      35.257 -18.601 -24.514  0.00  0.00    +0.055 C 
BRANCH  23  25
ATOM     25  C   UNL     1      33.654 -14.743 -22.237  0.00  0.00    +0.066 C 
ATOM     26  C   UNL     1      32.840 -14.419 -21.148  0.00  0.00    +0.006 C 
ATOM     27  C   UNL     1      33.837 -13.812 -23.263  0.00  0.00    +0.006 C 
ATOM     28  C   UNL     1      32.215 -13.175 -21.086  0.00  0.00    +0.000 C 
ATOM     29  C   UNL     1      33.212 -12.567 -23.201  0.00  0.00    +0.000 C 
ATOM     30  C   UNL     1      32.401 -12.248 -22.112  0.00  0.00    +0.000 C 
ENDBRANCH  23  25
ENDBRANCH  18  21
ENDBRANCH  17  18
ENDBRANCH   1  17
TORSDOF 7
ENDMDL
MODEL 8
REMARK VINA RESULT:     -12.5      2.543     10.155
REMARK  Name = 154000
REMARK  7 active torsions:
REMARK  status: ('A' for Active; 'I' for Inactive)
REMARK    1  A    between atoms: O_1  and  C_5
REMARK    2  A    between atoms: O_1  and  C_17
REMARK    3  A    between atoms: C_2  and  C_8
REMARK    4  A    between atoms: C_8  and  C_13
REMARK    5  A    between atoms: C_17  and  C_18
REMARK    6  A    between atoms: C_18  and  C_21
REMARK    7  A    between atoms: C_23  and  C_25
REMARK                            x       y       z     vdW  Elec       q    Type
REMARK                         _______ _______ _______ _____ _____    ______ ____
ROOT
ATOM      1  O   UNL     1      33.904 -14.577 -25.632  0.00  0.00    -0.475 OA
ENDROOT
BRANCH   1   5
ATOM      2  C   UNL     1      35.006 -18.049 -23.679  0.00  0.00    -0.021 C 
ATOM      3  C   UNL     1      35.336 -16.822 -23.124  0.00  0.00    -0.001 C 
ATOM      4  C   UNL     1      34.314 -18.133 -24.878  0.00  0.00    -0.001 C 
ATOM      5  C   UNL     1      34.267 -15.720 -24.989  0.00  0.00    +0.139 C 
ATOM      6  C   UNL     1      34.964 -15.650 -23.782  0.00  0.00    +0.037 C 
ATOM      7  C   UNL     1      33.943 -16.961 -25.536  0.00  0.00    +0.037 C 
BRANCH   2   8
ATOM      8  C   UNL     1      35.410 -19.316 -22.967  0.00  0.00    +0.047 C 
BRANCH   8  13
ATOM      9  O   UNL     1      35.257 -20.852 -19.891  0.00  0.00    -0.346 OA
ATOM     10  O   UNL     1      37.832 -18.890 -21.203  0.00  0.00    -0.272 OA
ATOM     11  O   UNL     1      33.318 -20.250 -20.965  0.00  0.00    -0.247 OA
ATOM     12  N   UNL     1      36.604 -20.440 -19.971  0.00  0.00    -0.144 N 
ATOM     13  C   UNL     1      35.431 -19.138 -21.461  0.00  0.00    +0.184 C 
ATOM     14  C   UNL     1      36.786 -19.439 -20.895  0.00  0.00    +0.264 C 
ATOM     15  C   UNL     1      34.516 -20.120 -20.777  0.00  0.00    +0.348 C 
ATOM     16  H   UNL     1      37.329 -20.826 -19.428  0.00  0.00    +0.196 HD
ENDBRANCH   8  13
ENDBRANCH   2   8
ENDBRANCH   1   5
BRANCH   1  17
ATOM     17  C   UNL     1      33.608 -13.441 -24.820  0.00  0.00    +0.213 C 
BRANCH  17  18
ATOM     18  C   UNL     1      32.493 -13.786 -23.837  0.00  0.00    +0.105 C 
BRANCH  18  21
ATOM     19  O   UNL     1      32.282 -11.902 -20.718  0.00  0.00    -0.449 OA
ATOM     20  N   UNL     1      32.360 -11.486 -22.940  0.00  0.00    -0.373 NA
ATOM     21  C   UNL     1      32.404 -12.817 -22.693  0.00  0.00    +0.134 C 
ATOM     22  C   UNL     1      32.359 -13.096 -21.370  0.00  0.00    +0.216 C 
ATOM     23  C   UNL     1      32.287 -10.987 -21.726  0.00  0.00    +0.277 C 
ATOM     24  C   UNL     1      32.373 -14.308 -20.544  0.00  0.00    +0.055 C 
BRANCH  23  25
ATOM     25  C   UNL     1      32.213  -9.615 -21.307  0.00  0.00    +0.066 C 
ATOM     26  C   UNL     1      32.473  -8.586 -22.216  0.00  0.00    +0.006 C 
ATOM     27  C   UNL     1      31.882  -9.301 -19.986  0.00  0.00    +0.006 C 
ATOM     28  C   UNL     1      32.404  -7.254 -21.808  0.00  0.00    +0.000 C 
ATOM     29  C   UNL     1      31.812  -7.969 -19.577  0.00  0.00    +0.000 C 
ATOM     30  C   UNL     1      32.072  -6.946 -20.488  0.00  0.00    +0.000 C 
ENDBRANCH  23  25
ENDBRANCH  18  21
ENDBRANCH  17  18
ENDBRANCH   1  17
TORSDOF 7
ENDMDL
MODEL 9
REMARK VINA RESULT:     -12.4      5.188      8.783
REMARK  Name = 154000
REMARK  7 active torsions:
REMARK  status: ('A' for Active; 'I' for Inactive)
REMARK    1  A    between atoms: O_1  and  C_5
REMARK    2  A    between atoms: O_1  and  C_17
REMARK    3  A    between atoms: C_2  and  C_8
REMARK    4  A    between atoms: C_8  and  C_13
REMARK    5  A    between atoms: C_17  and  C_18
REMARK    6  A    between atoms: C_18  and  C_21
REMARK    7  A    between atoms: C_23  and  C_25
REMARK                            x       y       z     vdW  Elec       q    Type
REMARK                         _______ _______ _______ _____ _____    ______ ____
ROOT
ATOM      1  O   UNL     1      37.016 -20.932 -19.172  0.00  0.00    -0.475 OA
ENDROOT
BRANCH   1   5
ATOM      2  C   UNL     1      35.279 -18.905 -22.327  0.00  0.00    -0.021 C 
ATOM      3  C   UNL     1      34.523 -19.815 -21.603  0.00  0.00    -0.001 C 
ATOM      4  C   UNL     1      36.607 -18.663 -22.012  0.00  0.00    -0.001 C 
ATOM      5  C   UNL     1      36.444 -20.265 -20.211  0.00  0.00    +0.139 C 
ATOM      6  C   UNL     1      35.108 -20.499 -20.539  0.00  0.00    +0.037 C 
ATOM      7  C   UNL     1      37.193 -19.348 -20.947  0.00  0.00    +0.037 C 
BRANCH   2   8
ATOM      8  C   UNL     1      34.645 -18.166 -23.480  0.00  0.00    +0.047 C 
BRANCH   8  13
ATOM      9  O   UNL     1      34.053 -14.993 -24.670  0.00  0.00    -0.346 OA
ATOM     10  O   UNL     1      34.508 -16.011 -21.360  0.00  0.00    -0.272 OA
ATOM     11  O   UNL     1      35.084 -16.543 -26.015  0.00  0.00    -0.247 OA
ATOM     12  N   UNL     1      33.885 -14.843 -23.277  0.00  0.00    -0.144 N 
ATOM     13  C   UNL     1      35.149 -16.740 -23.585  0.00  0.00    +0.184 C 
ATOM     14  C   UNL     1      34.492 -15.853 -22.571  0.00  0.00    +0.264 C 
ATOM     15  C   UNL     1      34.784 -16.123 -24.910  0.00  0.00    +0.348 C 
ATOM     16  H   UNL     1      33.389 -14.102 -22.861  0.00  0.00    +0.196 HD
ENDBRANCH   8  13
ENDBRANCH   2   8
ENDBRANCH   1   5
BRANCH   1  17
ATOM     17  C   UNL     1      36.199 -21.872 -18.474  0.00  0.00    +0.213 C 
BRANCH  17  18
ATOM     18  C   UNL     1      36.814 -22.177 -17.111  0.00  0.00    +0.105 C 
BRANCH  18  21
ATOM     19  O   UNL     1      34.878 -23.701 -14.418  0.00  0.00    -0.449 OA
ATOM     20  N   UNL     1      34.536 -22.932 -16.517  0.00  0.00    -0.373 NA
ATOM     21  C   UNL     1      35.832 -22.786 -16.152  0.00  0.00    +0.134 C 
ATOM     22  C   UNL     1      36.066 -23.238 -14.899  0.00  0.00    +0.216 C 
ATOM     23  C   UNL     1      34.012 -23.484 -15.445  0.00  0.00    +0.277 C 
ATOM     24  C   UNL     1      37.230 -23.334 -14.010  0.00  0.00    +0.055 C 
BRANCH  23  25
ATOM     25  C   UNL     1      32.656 -23.889 -15.198  0.00  0.00    +0.066 C 
ATOM     26  C   UNL     1      32.357 -24.726 -14.119  0.00  0.00    +0.006 C 
ATOM     27  C   UNL     1      31.628 -23.451 -16.037  0.00  0.00    +0.006 C 
ATOM     28  C   UNL     1      31.041 -25.121 -13.882  0.00  0.00    +0.000 C 
ATOM     29  C   UNL     1      30.312 -23.845 -15.800  0.00  0.00    +0.000 C 
ATOM     30  C   UNL     1      30.018 -24.680 -14.722  0.00  0.00    +0.000 C 
ENDBRANCH  23  25
ENDBRANCH  18  21
ENDBRANCH  17  18
ENDBRANCH   1  17
TORSDOF 7
ENDMDL
