MODEL 1
REMARK VINA RESULT:     -13.2      0.000      0.000
REMARK  Name = 447734
REMARK  5 active torsions:
REMARK  status: ('A' for Active; 'I' for Inactive)
REMARK    1  A    between atoms: C_3  and  C_19
REMARK    2  A    between atoms: C_9  and  C_13
REMARK    3  A    between atoms: N_18  and  C_24
REMARK    4  A    between atoms: C_21  and  O_27
REMARK    5  A    between atoms: O_27  and  C_28
REMARK                            x       y       z     vdW  Elec       q    Type
REMARK                         _______ _______ _______ _____ _____    ______ ____
ROOT
ATOM      1  C   UNL     1      36.119 -22.088 -17.844  0.00  0.00    +0.000 C 
ATOM      2  C   UNL     1      34.811 -22.622 -17.762  0.00  0.00    +0.000 C 
ATOM      3  C   UNL     1      35.496 -20.901 -19.873  0.00  0.00    +0.054 C 
ATOM      4  C   UNL     1      36.445 -21.229 -18.906  0.00  0.00    +0.005 C 
ATOM      5  C   UNL     1      33.868 -22.282 -18.745  0.00  0.00    +0.000 C 
ATOM      6  C   UNL     1      34.209 -21.426 -19.793  0.00  0.00    +0.005 C 
ATOM      7  C   UNL     1      34.485 -23.482 -16.700  0.00  0.00    +0.003 C 
ATOM      8  C   UNL     1      37.063 -22.429 -16.861  0.00  0.00    +0.000 C 
ATOM      9  C   UNL     1      35.435 -23.809 -15.732  0.00  0.00    +0.031 C 
ATOM     10  C   UNL     1      36.721 -23.284 -15.812  0.00  0.00    +0.003 C 
ENDROOT
BRANCH   9  13
ATOM     11  N   UNL     1      36.042 -25.488 -14.005  0.00  0.00    -0.343 N 
ATOM     12  N   UNL     1      33.827 -24.778 -14.232  0.00  0.00    -0.285 NA
ATOM     13  C   UNL     1      35.081 -24.701 -14.638  0.00  0.00    +0.117 C 
ATOM     14  H   UNL     1      35.780 -26.084 -13.266  0.00  0.00    +0.144 HD
ATOM     15  H   UNL     1      36.982 -25.446 -14.296  0.00  0.00    +0.144 HD
ATOM     16  H   UNL     1      33.585 -25.380 -13.492  0.00  0.00    +0.188 HD
ENDBRANCH   9  13
BRANCH   3  19
ATOM     17  O   UNL     1      37.044 -19.728 -21.153  0.00  0.00    -0.270 OA
ATOM     18  N   UNL     1      34.782 -19.555 -21.754  0.00  0.00    -0.280 N 
ATOM     19  C   UNL     1      35.849 -20.010 -20.967  0.00  0.00    +0.249 C 
ATOM     20  H   UNL     1      33.889 -19.864 -21.483  0.00  0.00    +0.155 HD
BRANCH  18  24
ATOM     21  C   UNL     1      34.837 -16.499 -23.824  0.00  0.00    +0.140 C 
ATOM     22  C   UNL     1      34.798 -17.334 -22.708  0.00  0.00    +0.052 C 
ATOM     23  C   UNL     1      34.900 -17.050 -25.104  0.00  0.00    +0.037 C 
ATOM     24  C   UNL     1      34.823 -18.707 -22.888  0.00  0.00    +0.054 C 
ATOM     25  C   UNL     1      34.924 -18.435 -25.268  0.00  0.00    +0.004 C 
ATOM     26  C   UNL     1      34.885 -19.269 -24.152  0.00  0.00    +0.015 C 
BRANCH  21  27
ATOM     27  O   UNL     1      34.813 -15.148 -23.666  0.00  0.00    -0.479 OA
BRANCH  27  28
ATOM     28  C   UNL     1      33.536 -14.525 -23.616  0.00  0.00    +0.166 C 
ATOM     29  C   UNL     1      33.012 -14.331 -25.031  0.00  0.00    +0.044 C 
ATOM     30  C   UNL     1      33.661 -13.101 -23.098  0.00  0.00    +0.044 C 
ATOM     31  C   UNL     1      33.735 -13.083 -25.539  0.00  0.00    +0.004 C 
ATOM     32  C   UNL     1      34.179 -12.310 -24.297  0.00  0.00    +0.004 C 
ENDBRANCH  27  28
ENDBRANCH  21  27
ENDBRANCH  18  24
ENDBRANCH   3  19
TORSDOF 5
ENDMDL
MODEL 2
REMARK VINA RESULT:     -13.1      5.142     11.601
REMARK  Name = 447734
REMARK  5 active torsions:
REMARK  status: ('A' for Active; 'I' for Inactive)
REMARK    1  A    between atoms: C_3  and  C_19
REMARK    2  A    between atoms: C_9  and  C_13
REMARK    3  A    between atoms: N_18  and  C_24
REMARK    4  A    between atoms: C_21  and  O_27
REMARK    5  A    between atoms: O_27  and  C_28
REMARK                            x       y       z     vdW  Elec       q    Type
REMARK                         _______ _______ _______ _____ _____    ______ ____
ROOT
ATOM      1  C   UNL     1      32.353 -10.000 -22.534  0.00  0.00    +0.000 C 
ATOM      2  C   UNL     1      31.968  -9.636 -21.222  0.00  0.00    +0.000 C 
ATOM      3  C   UNL     1      32.490 -12.326 -21.835  0.00  0.00    +0.054 C 
ATOM      4  C   UNL     1      32.610 -11.350 -22.824  0.00  0.00    +0.005 C 
ATOM      5  C   UNL     1      31.852 -10.631 -20.238  0.00  0.00    +0.000 C 
ATOM      6  C   UNL     1      32.111 -11.967 -20.544  0.00  0.00    +0.005 C 
ATOM      7  C   UNL     1      31.710  -8.285 -20.932  0.00  0.00    +0.003 C 
ATOM      8  C   UNL     1      32.469  -9.004 -23.517  0.00  0.00    +0.000 C 
ATOM      9  C   UNL     1      31.830  -7.309 -21.921  0.00  0.00    +0.031 C 
ATOM     10  C   UNL     1      32.208  -7.668 -23.212  0.00  0.00    +0.003 C 
ENDROOT
BRANCH   9  13
ATOM     11  N   UNL     1      30.845  -5.099 -22.479  0.00  0.00    -0.343 N 
ATOM     12  N   UNL     1      32.001  -5.401 -20.471  0.00  0.00    -0.285 NA
ATOM     13  C   UNL     1      31.560  -5.915 -21.605  0.00  0.00    +0.117 C 
ATOM     14  H   UNL     1      30.673  -4.158 -22.245  0.00  0.00    +0.144 HD
ATOM     15  H   UNL     1      30.511  -5.463 -23.331  0.00  0.00    +0.144 HD
ATOM     16  H   UNL     1      31.819  -4.458 -20.254  0.00  0.00    +0.188 HD
ENDBRANCH   9  13
BRANCH   3  19
ATOM     17  O   UNL     1      32.249 -14.608 -21.449  0.00  0.00    -0.270 OA
ATOM     18  N   UNL     1      33.579 -13.946 -23.266  0.00  0.00    -0.280 N 
ATOM     19  C   UNL     1      32.761 -13.719 -22.151  0.00  0.00    +0.249 C 
ATOM     20  H   UNL     1      33.911 -13.140 -23.723  0.00  0.00    +0.155 HD
BRANCH  18  24
ATOM     21  C   UNL     1      35.167 -17.260 -23.605  0.00  0.00    +0.140 C 
ATOM     22  C   UNL     1      34.761 -16.044 -23.058  0.00  0.00    +0.052 C 
ATOM     23  C   UNL     1      34.797 -17.598 -24.907  0.00  0.00    +0.037 C 
ATOM     24  C   UNL     1      33.990 -15.182 -23.821  0.00  0.00    +0.054 C 
ATOM     25  C   UNL     1      34.021 -16.718 -25.662  0.00  0.00    +0.004 C 
ATOM     26  C   UNL     1      33.615 -15.502 -25.115  0.00  0.00    +0.015 C 
BRANCH  21  27
ATOM     27  O   UNL     1      35.924 -18.119 -22.869  0.00  0.00    -0.479 OA
BRANCH  27  28
ATOM     28  C   UNL     1      35.750 -18.088 -21.458  0.00  0.00    +0.166 C 
ATOM     29  C   UNL     1      36.947 -18.745 -20.787  0.00  0.00    +0.044 C 
ATOM     30  C   UNL     1      34.592 -18.982 -21.047  0.00  0.00    +0.044 C 
ATOM     31  C   UNL     1      36.677 -20.245 -20.908  0.00  0.00    +0.004 C 
ATOM     32  C   UNL     1      35.169 -20.395 -21.106  0.00  0.00    +0.004 C 
ENDBRANCH  27  28
ENDBRANCH  21  27
ENDBRANCH  18  24
ENDBRANCH   3  19
TORSDOF 5
ENDMDL
MODEL 3
REMARK VINA RESULT:     -12.7      1.195      1.436
REMARK  Name = 447734
REMARK  5 active torsions:
REMARK  status: ('A' for Active; 'I' for Inactive)
REMARK    1  A    between atoms: C_3  and  C_19
REMARK    2  A    between atoms: C_9  and  C_13
REMARK    3  A    between atoms: N_18  and  C_24
REMARK    4  A    between atoms: C_21  and  O_27
REMARK    5  A    between atoms: O_27  and  C_28
REMARK                            x       y       z     vdW  Elec       q    Type
REMARK                         _______ _______ _______ _____ _____    ______ ____
ROOT
ATOM      1  C   UNL     1      35.916 -22.019 -17.984  0.00  0.00    +0.000 C 
ATOM      2  C   UNL     1      34.929 -22.804 -17.342  0.00  0.00    +0.000 C 
ATOM      3  C   UNL     1      34.269 -21.322 -19.634  0.00  0.00    +0.054 C 
ATOM      4  C   UNL     1      35.569 -21.284 -19.130  0.00  0.00    +0.005 C 
ATOM      5  C   UNL     1      33.626 -22.831 -17.862  0.00  0.00    +0.000 C 
ATOM      6  C   UNL     1      33.299 -22.094 -19.001  0.00  0.00    +0.005 C 
ATOM      7  C   UNL     1      35.276 -23.539 -16.195  0.00  0.00    +0.003 C 
ATOM      8  C   UNL     1      37.220 -21.992 -17.463  0.00  0.00    +0.000 C 
ATOM      9  C   UNL     1      36.576 -23.500 -15.691  0.00  0.00    +0.031 C 
ATOM     10  C   UNL     1      37.546 -22.728 -16.323  0.00  0.00    +0.003 C 
ENDROOT
BRANCH   9  13
ATOM     11  N   UNL     1      36.191 -25.397 -14.136  0.00  0.00    -0.343 N 
ATOM     12  N   UNL     1      37.934 -23.890 -13.747  0.00  0.00    -0.285 NA
ATOM     13  C   UNL     1      36.919 -24.267 -14.503  0.00  0.00    +0.117 C 
ATOM     14  H   UNL     1      36.441 -25.902 -13.328  0.00  0.00    +0.144 HD
ATOM     15  H   UNL     1      35.429 -25.692 -14.685  0.00  0.00    +0.144 HD
ATOM     16  H   UNL     1      38.168 -24.408 -12.943  0.00  0.00    +0.188 HD
ENDBRANCH   9  13
BRANCH   3  19
ATOM     17  O   UNL     1      32.743 -20.519 -21.195  0.00  0.00    -0.270 OA
ATOM     18  N   UNL     1      34.989 -19.887 -21.446  0.00  0.00    -0.280 N 
ATOM     19  C   UNL     1      33.927 -20.556 -20.822  0.00  0.00    +0.249 C 
ATOM     20  H   UNL     1      35.874 -20.012 -21.034  0.00  0.00    +0.155 HD
BRANCH  18  24
ATOM     21  C   UNL     1      34.890 -16.862 -23.558  0.00  0.00    +0.140 C 
ATOM     22  C   UNL     1      34.925 -17.681 -22.430  0.00  0.00    +0.052 C 
ATOM     23  C   UNL     1      34.886 -17.431 -24.832  0.00  0.00    +0.037 C 
ATOM     24  C   UNL     1      34.955 -19.056 -22.592  0.00  0.00    +0.054 C 
ATOM     25  C   UNL     1      34.915 -18.817 -24.977  0.00  0.00    +0.004 C 
ATOM     26  C   UNL     1      34.951 -19.636 -23.849  0.00  0.00    +0.015 C 
BRANCH  21  27
ATOM     27  O   UNL     1      34.860 -15.509 -23.417  0.00  0.00    -0.479 OA
BRANCH  27  28
ATOM     28  C   UNL     1      33.580 -14.893 -23.354  0.00  0.00    +0.166 C 
ATOM     29  C   UNL     1      33.111 -14.556 -24.762  0.00  0.00    +0.044 C 
ATOM     30  C   UNL     1      33.680 -13.529 -22.690  0.00  0.00    +0.044 C 
ATOM     31  C   UNL     1      33.849 -13.263 -25.111  0.00  0.00    +0.004 C 
ATOM     32  C   UNL     1      34.242 -12.621 -23.781  0.00  0.00    +0.004 C 
ENDBRANCH  27  28
ENDBRANCH  21  27
ENDBRANCH  18  24
ENDBRANCH   3  19
TORSDOF 5
ENDMDL
MODEL 4
REMARK VINA RESULT:     -12.7      3.172     10.317
REMARK  Name = 447734
REMARK  5 active torsions:
REMARK  status: ('A' for Active; 'I' for Inactive)
REMARK    1  A    between atoms: C_3  and  C_19
REMARK    2  A    between atoms: C_9  and  C_13
REMARK    3  A    between atoms: N_18  and  C_24
REMARK    4  A    between atoms: C_21  and  O_27
REMARK    5  A    between atoms: O_27  and  C_28
REMARK                            x       y       z     vdW  Elec       q    Type
REMARK                         _______ _______ _______ _____ _____    ______ ____
ROOT
ATOM      1  C   UNL     1      34.799 -16.964 -22.633  0.00  0.00    +0.000 C 
ATOM      2  C   UNL     1      34.634 -17.498 -23.933  0.00  0.00    +0.000 C 
ATOM      3  C   UNL     1      35.256 -19.198 -21.786  0.00  0.00    +0.054 C 
ATOM      4  C   UNL     1      35.110 -17.828 -21.570  0.00  0.00    +0.005 C 
ATOM      5  C   UNL     1      34.785 -18.879 -24.133  0.00  0.00    +0.000 C 
ATOM      6  C   UNL     1      35.094 -19.723 -23.066  0.00  0.00    +0.005 C 
ATOM      7  C   UNL     1      34.323 -16.633 -24.996  0.00  0.00    +0.003 C 
ATOM      8  C   UNL     1      34.648 -15.582 -22.434  0.00  0.00    +0.000 C 
ATOM      9  C   UNL     1      34.177 -15.262 -24.780  0.00  0.00    +0.031 C 
ATOM     10  C   UNL     1      34.339 -14.738 -23.501  0.00  0.00    +0.003 C 
ENDROOT
BRANCH   9  13
ATOM     11  N   UNL     1      33.655 -13.016 -25.698  0.00  0.00    -0.343 N 
ATOM     12  N   UNL     1      33.743 -14.875 -27.111  0.00  0.00    -0.285 NA
ATOM     13  C   UNL     1      33.855 -14.381 -25.891  0.00  0.00    +0.117 C 
ATOM     14  H   UNL     1      33.438 -12.437 -26.465  0.00  0.00    +0.144 HD
ATOM     15  H   UNL     1      33.731 -12.629 -24.796  0.00  0.00    +0.144 HD
ATOM     16  H   UNL     1      33.525 -14.280 -27.865  0.00  0.00    +0.188 HD
ENDBRANCH   9  13
BRANCH   3  19
ATOM     17  O   UNL     1      36.755 -20.158 -20.288  0.00  0.00    -0.270 OA
ATOM     18  N   UNL     1      34.495 -20.765 -20.106  0.00  0.00    -0.280 N 
ATOM     19  C   UNL     1      35.577 -20.080 -20.675  0.00  0.00    +0.249 C 
ATOM     20  H   UNL     1      33.619 -20.602 -20.522  0.00  0.00    +0.155 HD
BRANCH  18  24
ATOM     21  C   UNL     1      33.309 -23.117 -17.520  0.00  0.00    +0.140 C 
ATOM     22  C   UNL     1      33.306 -22.235 -18.600  0.00  0.00    +0.052 C 
ATOM     23  C   UNL     1      34.506 -23.415 -16.867  0.00  0.00    +0.037 C 
ATOM     24  C   UNL     1      34.499 -21.663 -19.010  0.00  0.00    +0.054 C 
ATOM     25  C   UNL     1      35.698 -22.829 -17.293  0.00  0.00    +0.004 C 
ATOM     26  C   UNL     1      35.694 -21.947 -18.373  0.00  0.00    +0.015 C 
BRANCH  21  27
ATOM     27  O   UNL     1      32.147 -23.687 -17.103  0.00  0.00    -0.479 OA
BRANCH  27  28
ATOM     28  C   UNL     1      31.290 -22.893 -16.292  0.00  0.00    +0.166 C 
ATOM     29  C   UNL     1      31.469 -23.285 -14.833  0.00  0.00    +0.044 C 
ATOM     30  C   UNL     1      29.834 -23.236 -16.564  0.00  0.00    +0.044 C 
ATOM     31  C   UNL     1      30.637 -24.558 -14.674  0.00  0.00    +0.004 C 
ATOM     32  C   UNL     1      29.609 -24.542 -15.805  0.00  0.00    +0.004 C 
ENDBRANCH  27  28
ENDBRANCH  21  27
ENDBRANCH  18  24
ENDBRANCH   3  19
TORSDOF 5
ENDMDL
MODEL 5
REMARK VINA RESULT:     -12.6      5.153     11.379
REMARK  Name = 447734
REMARK  5 active torsions:
REMARK  status: ('A' for Active; 'I' for Inactive)
REMARK    1  A    between atoms: C_3  and  C_19
REMARK    2  A    between atoms: C_9  and  C_13
REMARK    3  A    between atoms: N_18  and  C_24
REMARK    4  A    between atoms: C_21  and  O_27
REMARK    5  A    between atoms: O_27  and  C_28
REMARK                            x       y       z     vdW  Elec       q    Type
REMARK                         _______ _______ _______ _____ _____    ______ ____
ROOT
ATOM      1  C   UNL     1      32.200 -10.298 -21.034  0.00  0.00    +0.000 C 
ATOM      2  C   UNL     1      32.522  -9.411 -22.089  0.00  0.00    +0.000 C 
ATOM      3  C   UNL     1      32.780 -12.183 -22.457  0.00  0.00    +0.054 C 
ATOM      4  C   UNL     1      32.334 -11.681 -21.235  0.00  0.00    +0.005 C 
ATOM      5  C   UNL     1      32.969  -9.934 -23.313  0.00  0.00    +0.000 C 
ATOM      6  C   UNL     1      33.097 -11.311 -23.495  0.00  0.00    +0.005 C 
ATOM      7  C   UNL     1      32.388  -8.027 -21.888  0.00  0.00    +0.003 C 
ATOM      8  C   UNL     1      31.753  -9.774 -19.809  0.00  0.00    +0.000 C 
ATOM      9  C   UNL     1      31.943  -7.525 -20.665  0.00  0.00    +0.031 C 
ATOM     10  C   UNL     1      31.626  -8.397 -19.627  0.00  0.00    +0.003 C 
ENDROOT
BRANCH   9  13
ATOM     11  N   UNL     1      30.982  -5.323 -21.292  0.00  0.00    -0.343 N 
ATOM     12  N   UNL     1      32.486  -5.488 -19.511  0.00  0.00    -0.285 NA
ATOM     13  C   UNL     1      31.810  -6.089 -20.473  0.00  0.00    +0.117 C 
ATOM     14  H   UNL     1      30.906  -4.352 -21.144  0.00  0.00    +0.144 HD
ATOM     15  H   UNL     1      30.472  -5.752 -22.017  0.00  0.00    +0.144 HD
ATOM     16  H   UNL     1      32.397  -4.516 -19.379  0.00  0.00    +0.188 HD
ENDBRANCH   9  13
BRANCH   3  19
ATOM     17  O   UNL     1      32.221 -14.386 -21.959  0.00  0.00    -0.270 OA
ATOM     18  N   UNL     1      33.817 -14.022 -23.642  0.00  0.00    -0.280 N 
ATOM     19  C   UNL     1      32.912 -13.619 -22.649  0.00  0.00    +0.249 C 
ATOM     20  H   UNL     1      34.294 -13.297 -24.105  0.00  0.00    +0.155 HD
BRANCH  18  24
ATOM     21  C   UNL     1      35.267 -17.416 -23.687  0.00  0.00    +0.140 C 
ATOM     22  C   UNL     1      34.954 -16.122 -23.271  0.00  0.00    +0.052 C 
ATOM     23  C   UNL     1      34.755 -17.905 -24.889  0.00  0.00    +0.037 C 
ATOM     24  C   UNL     1      34.134 -15.337 -24.063  0.00  0.00    +0.054 C 
ATOM     25  C   UNL     1      33.931 -17.100 -25.675  0.00  0.00    +0.004 C 
ATOM     26  C   UNL     1      33.617 -15.807 -25.259  0.00  0.00    +0.015 C 
BRANCH  21  27
ATOM     27  O   UNL     1      36.072 -18.201 -22.921  0.00  0.00    -0.479 OA
BRANCH  27  28
ATOM     28  C   UNL     1      35.939 -18.082 -21.510  0.00  0.00    +0.166 C 
ATOM     29  C   UNL     1      37.053 -18.863 -20.829  0.00  0.00    +0.044 C 
ATOM     30  C   UNL     1      34.681 -18.793 -21.034  0.00  0.00    +0.044 C 
ATOM     31  C   UNL     1      36.582 -20.317 -20.872  0.00  0.00    +0.004 C 
ATOM     32  C   UNL     1      35.063 -20.271 -21.035  0.00  0.00    +0.004 C 
ENDBRANCH  27  28
ENDBRANCH  21  27
ENDBRANCH  18  24
ENDBRANCH   3  19
TORSDOF 5
ENDMDL
MODEL 6
REMARK VINA RESULT:     -12.5      3.362     10.801
REMARK  Name = 447734
REMARK  5 active torsions:
REMARK  status: ('A' for Active; 'I' for Inactive)
REMARK    1  A    between atoms: C_3  and  C_19
REMARK    2  A    between atoms: C_9  and  C_13
REMARK    3  A    between atoms: N_18  and  C_24
REMARK    4  A    between atoms: C_21  and  O_27
REMARK    5  A    between atoms: O_27  and  C_28
REMARK                            x       y       z     vdW  Elec       q    Type
REMARK                         _______ _______ _______ _____ _____    ______ ____
ROOT
ATOM      1  C   UNL     1      35.346 -20.225 -20.771  0.00  0.00    +0.000 C 
ATOM      2  C   UNL     1      34.144 -19.758 -21.354  0.00  0.00    +0.000 C 
ATOM      3  C   UNL     1      34.067 -21.779 -19.406  0.00  0.00    +0.054 C 
ATOM      4  C   UNL     1      35.290 -21.236 -19.798  0.00  0.00    +0.005 C 
ATOM      5  C   UNL     1      32.922 -20.316 -20.948  0.00  0.00    +0.000 C 
ATOM      6  C   UNL     1      32.885 -21.320 -19.980  0.00  0.00    +0.005 C 
ATOM      7  C   UNL     1      34.201 -18.747 -22.328  0.00  0.00    +0.003 C 
ATOM      8  C   UNL     1      36.569 -19.666 -21.178  0.00  0.00    +0.000 C 
ATOM      9  C   UNL     1      35.424 -18.204 -22.721  0.00  0.00    +0.031 C 
ATOM     10  C   UNL     1      36.606 -18.663 -22.147  0.00  0.00    +0.003 C 
ENDROOT
BRANCH   9  13
ATOM     11  N   UNL     1      35.217 -17.435 -25.072  0.00  0.00    -0.343 N 
ATOM     12  N   UNL     1      35.747 -15.915 -23.379  0.00  0.00    -0.285 NA
ATOM     13  C   UNL     1      35.465 -17.157 -23.730  0.00  0.00    +0.117 C 
ATOM     14  H   UNL     1      35.250 -16.711 -25.739  0.00  0.00    +0.144 HD
ATOM     15  H   UNL     1      35.009 -18.355 -25.355  0.00  0.00    +0.144 HD
ATOM     16  H   UNL     1      35.774 -15.205 -24.060  0.00  0.00    +0.188 HD
ENDBRANCH   9  13
BRANCH   3  19
ATOM     17  O   UNL     1      33.872 -24.005 -18.755  0.00  0.00    -0.270 OA
ATOM     18  N   UNL     1      34.192 -22.402 -17.070  0.00  0.00    -0.280 N 
ATOM     19  C   UNL     1      34.026 -22.825 -18.397  0.00  0.00    +0.249 C 
ATOM     20  H   UNL     1      34.302 -21.433 -16.941  0.00  0.00    +0.155 HD
BRANCH  18  24
ATOM     21  C   UNL     1      35.461 -24.197 -14.106  0.00  0.00    +0.140 C 
ATOM     22  C   UNL     1      35.433 -23.423 -15.265  0.00  0.00    +0.052 C 
ATOM     23  C   UNL     1      34.277 -24.725 -13.591  0.00  0.00    +0.037 C 
ATOM     24  C   UNL     1      34.220 -23.188 -15.892  0.00  0.00    +0.054 C 
ATOM     25  C   UNL     1      33.065 -24.479 -14.235  0.00  0.00    +0.004 C 
ATOM     26  C   UNL     1      33.036 -23.704 -15.394  0.00  0.00    +0.015 C 
BRANCH  21  27
ATOM     27  O   UNL     1      36.643 -24.439 -13.477  0.00  0.00    -0.479 OA
BRANCH  27  28
ATOM     28  C   UNL     1      37.014 -25.800 -13.295  0.00  0.00    +0.166 C 
ATOM     29  C   UNL     1      38.312 -25.869 -12.506  0.00  0.00    +0.044 C 
ATOM     30  C   UNL     1      37.387 -26.429 -14.628  0.00  0.00    +0.044 C 
ATOM     31  C   UNL     1      39.403 -25.585 -13.538  0.00  0.00    +0.004 C 
ATOM     32  C   UNL     1      38.798 -25.915 -14.903  0.00  0.00    +0.004 C 
ENDBRANCH  27  28
ENDBRANCH  21  27
ENDBRANCH  18  24
ENDBRANCH   3  19
TORSDOF 5
ENDMDL
MODEL 7
REMARK VINA RESULT:     -12.3      5.882     10.239
REMARK  Name = 447734
REMARK  5 active torsions:
REMARK  status: ('A' for Active; 'I' for Inactive)
REMARK    1  A    between atoms: C_3  and  C_19
REMARK    2  A    between atoms: C_9  and  C_13
REMARK    3  A    between atoms: N_18  and  C_24
REMARK    4  A    between atoms: C_21  and  O_27
REMARK    5  A    between atoms: O_27  and  C_28
REMARK                            x       y       z     vdW  Elec       q    Type
REMARK                         _______ _______ _______ _____ _____    ______ ____
ROOT
ATOM      1  C   UNL     1      33.797 -13.932 -22.831  0.00  0.00    +0.000 C 
ATOM      2  C   UNL     1      33.605 -14.652 -21.628  0.00  0.00    +0.000 C 
ATOM      3  C   UNL     1      32.380 -12.149 -21.978  0.00  0.00    +0.054 C 
ATOM      4  C   UNL     1      33.177 -12.682 -22.990  0.00  0.00    +0.005 C 
ATOM      5  C   UNL     1      32.799 -14.100 -20.619  0.00  0.00    +0.000 C 
ATOM      6  C   UNL     1      32.191 -12.857 -20.794  0.00  0.00    +0.005 C 
ATOM      7  C   UNL     1      34.226 -15.902 -21.469  0.00  0.00    +0.003 C 
ATOM      8  C   UNL     1      34.604 -14.484 -23.840  0.00  0.00    +0.000 C 
ATOM      9  C   UNL     1      35.024 -16.435 -22.481  0.00  0.00    +0.031 C 
ATOM     10  C   UNL     1      35.213 -15.727 -23.665  0.00  0.00    +0.003 C 
ENDROOT
BRANCH   9  13
ATOM     11  N   UNL     1      35.766 -18.316 -21.041  0.00  0.00    -0.343 N 
ATOM     12  N   UNL     1      36.153 -18.372 -23.345  0.00  0.00    -0.285 NA
ATOM     13  C   UNL     1      35.659 -17.731 -22.301  0.00  0.00    +0.117 C 
ATOM     14  H   UNL     1      36.200 -19.195 -20.942  0.00  0.00    +0.144 HD
ATOM     15  H   UNL     1      35.407 -17.852 -20.250  0.00  0.00    +0.144 HD
ATOM     16  H   UNL     1      36.583 -19.250 -23.225  0.00  0.00    +0.188 HD
ENDBRANCH   9  13
BRANCH   3  19
ATOM     17  O   UNL     1      30.504 -10.791 -22.200  0.00  0.00    -0.270 OA
ATOM     18  N   UNL     1      32.610  -9.755 -22.248  0.00  0.00    -0.280 N 
ATOM     19  C   UNL     1      31.744 -10.854 -22.158  0.00  0.00    +0.249 C 
ATOM     20  H   UNL     1      33.570  -9.962 -22.200  0.00  0.00    +0.155 HD
BRANCH  18  24
ATOM     21  C   UNL     1      32.076  -6.447 -23.797  0.00  0.00    +0.140 C 
ATOM     22  C   UNL     1      32.397  -7.796 -23.648  0.00  0.00    +0.052 C 
ATOM     23  C   UNL     1      31.644  -5.708 -22.696  0.00  0.00    +0.037 C 
ATOM     24  C   UNL     1      32.282  -8.385 -22.400  0.00  0.00    +0.054 C 
ATOM     25  C   UNL     1      31.534  -6.317 -21.446  0.00  0.00    +0.004 C 
ATOM     26  C   UNL     1      31.855  -7.665 -21.297  0.00  0.00    +0.015 C 
BRANCH  21  27
ATOM     27  O   UNL     1      32.183  -5.852 -25.016  0.00  0.00    -0.479 OA
BRANCH  27  28
ATOM     28  C   UNL     1      33.140  -4.808 -25.144  0.00  0.00    +0.166 C 
ATOM     29  C   UNL     1      32.444  -3.539 -25.614  0.00  0.00    +0.044 C 
ATOM     30  C   UNL     1      34.105  -5.110 -26.279  0.00  0.00    +0.044 C 
ATOM     31  C   UNL     1      32.273  -3.731 -27.121  0.00  0.00    +0.004 C 
ATOM     32  C   UNL     1      33.320  -4.763 -27.542  0.00  0.00    +0.004 C 
ENDBRANCH  27  28
ENDBRANCH  21  27
ENDBRANCH  18  24
ENDBRANCH   3  19
TORSDOF 5
ENDMDL
MODEL 8
REMARK VINA RESULT:     -12.2      2.294      4.358
REMARK  Name = 447734
REMARK  5 active torsions:
REMARK  status: ('A' for Active; 'I' for Inactive)
REMARK    1  A    between atoms: C_3  and  C_19
REMARK    2  A    between atoms: C_9  and  C_13
REMARK    3  A    between atoms: N_18  and  C_24
REMARK    4  A    between atoms: C_21  and  O_27
REMARK    5  A    between atoms: O_27  and  C_28
REMARK                            x       y       z     vdW  Elec       q    Type
REMARK                         _______ _______ _______ _____ _____    ______ ____
ROOT
ATOM      1  C   UNL     1      34.193 -19.859 -21.035  0.00  0.00    +0.000 C 
ATOM      2  C   UNL     1      35.478 -20.246 -20.586  0.00  0.00    +0.000 C 
ATOM      3  C   UNL     1      35.218 -18.237 -22.530  0.00  0.00    +0.054 C 
ATOM      4  C   UNL     1      34.081 -18.853 -22.008  0.00  0.00    +0.005 C 
ATOM      5  C   UNL     1      36.612 -19.616 -21.122  0.00  0.00    +0.000 C 
ATOM      6  C   UNL     1      36.482 -18.618 -22.088  0.00  0.00    +0.005 C 
ATOM      7  C   UNL     1      35.590 -21.254 -19.612  0.00  0.00    +0.003 C 
ATOM      8  C   UNL     1      33.058 -20.490 -20.499  0.00  0.00    +0.000 C 
ATOM      9  C   UNL     1      34.452 -21.870 -19.091  0.00  0.00    +0.031 C 
ATOM     10  C   UNL     1      33.189 -21.489 -19.533  0.00  0.00    +0.003 C 
ENDROOT
BRANCH   9  13
ATOM     11  N   UNL     1      35.517 -22.806 -17.052  0.00  0.00    -0.343 N 
ATOM     12  N   UNL     1      33.819 -23.985 -18.142  0.00  0.00    -0.285 NA
ATOM     13  C   UNL     1      34.586 -22.911 -18.084  0.00  0.00    +0.117 C 
ATOM     14  H   UNL     1      35.590 -23.522 -16.380  0.00  0.00    +0.144 HD
ATOM     15  H   UNL     1      36.100 -22.014 -16.993  0.00  0.00    +0.144 HD
ATOM     16  H   UNL     1      33.908 -24.691 -17.461  0.00  0.00    +0.188 HD
ENDBRANCH   9  13
BRANCH   3  19
ATOM     17  O   UNL     1      35.585 -17.374 -24.659  0.00  0.00    -0.270 OA
ATOM     18  N   UNL     1      34.362 -16.059 -23.148  0.00  0.00    -0.280 N 
ATOM     19  C   UNL     1      35.084 -17.195 -23.536  0.00  0.00    +0.249 C 
ATOM     20  H   UNL     1      34.026 -16.061 -22.223  0.00  0.00    +0.155 HD
BRANCH  18  24
ATOM     21  C   UNL     1      33.689 -12.541 -24.039  0.00  0.00    +0.140 C 
ATOM     22  C   UNL     1      33.996 -13.674 -23.287  0.00  0.00    +0.052 C 
ATOM     23  C   UNL     1      33.444 -12.659 -25.408  0.00  0.00    +0.037 C 
ATOM     24  C   UNL     1      34.052 -14.908 -23.913  0.00  0.00    +0.054 C 
ATOM     25  C   UNL     1      33.503 -13.909 -26.022  0.00  0.00    +0.004 C 
ATOM     26  C   UNL     1      33.810 -15.042 -25.270  0.00  0.00    +0.015 C 
BRANCH  21  27
ATOM     27  O   UNL     1      33.630 -11.321 -23.441  0.00  0.00    -0.479 OA
BRANCH  27  28
ATOM     28  C   UNL     1      32.369 -10.664 -23.433  0.00  0.00    +0.166 C 
ATOM     29  C   UNL     1      32.560  -9.205 -23.046  0.00  0.00    +0.044 C 
ATOM     30  C   UNL     1      31.497 -11.206 -22.311  0.00  0.00    +0.044 C 
ATOM     31  C   UNL     1      32.693  -9.228 -21.523  0.00  0.00    +0.004 C 
ATOM     32  C   UNL     1      32.038 -10.527 -21.054  0.00  0.00    +0.004 C 
ENDBRANCH  27  28
ENDBRANCH  21  27
ENDBRANCH  18  24
ENDBRANCH   3  19
TORSDOF 5
ENDMDL
MODEL 9
REMARK VINA RESULT:     -12.1      4.053     10.970
REMARK  Name = 447734
REMARK  5 active torsions:
REMARK  status: ('A' for Active; 'I' for Inactive)
REMARK    1  A    between atoms: C_3  and  C_19
REMARK    2  A    between atoms: C_9  and  C_13
REMARK    3  A    between atoms: N_18  and  C_24
REMARK    4  A    between atoms: C_21  and  O_27
REMARK    5  A    between atoms: O_27  and  C_28
REMARK                            x       y       z     vdW  Elec       q    Type
REMARK                         _______ _______ _______ _____ _____    ______ ____
ROOT
ATOM      1  C   UNL     1      32.467 -12.025 -22.327  0.00  0.00    +0.000 C 
ATOM      2  C   UNL     1      33.067 -11.033 -23.138  0.00  0.00    +0.000 C 
ATOM      3  C   UNL     1      33.532 -13.751 -23.670  0.00  0.00    +0.054 C 
ATOM      4  C   UNL     1      32.709 -13.380 -22.607  0.00  0.00    +0.005 C 
ATOM      5  C   UNL     1      33.892 -11.424 -24.205  0.00  0.00    +0.000 C 
ATOM      6  C   UNL     1      34.122 -12.775 -24.468  0.00  0.00    +0.005 C 
ATOM      7  C   UNL     1      32.824  -9.678 -22.858  0.00  0.00    +0.003 C 
ATOM      8  C   UNL     1      31.641 -11.633 -21.260  0.00  0.00    +0.000 C 
ATOM      9  C   UNL     1      32.002  -9.306 -21.794  0.00  0.00    +0.031 C 
ATOM     10  C   UNL     1      31.412 -10.282 -20.997  0.00  0.00    +0.003 C 
ENDROOT
BRANCH   9  13
ATOM     11  N   UNL     1      31.231  -7.051 -22.488  0.00  0.00    -0.343 N 
ATOM     12  N   UNL     1      32.052  -7.403 -20.329  0.00  0.00    -0.285 NA
ATOM     13  C   UNL     1      31.761  -7.899 -21.518  0.00  0.00    +0.117 C 
ATOM     14  H   UNL     1      31.075  -6.101 -22.279  0.00  0.00    +0.144 HD
ATOM     15  H   UNL     1      31.011  -7.401 -23.382  0.00  0.00    +0.144 HD
ATOM     16  H   UNL     1      31.890  -6.450 -20.140  0.00  0.00    +0.188 HD
ENDBRANCH   9  13
BRANCH   3  19
ATOM     17  O   UNL     1      33.489 -15.609 -25.069  0.00  0.00    -0.270 OA
ATOM     18  N   UNL     1      34.341 -15.899 -22.902  0.00  0.00    -0.280 N 
ATOM     19  C   UNL     1      33.772 -15.158 -23.947  0.00  0.00    +0.249 C 
ATOM     20  H   UNL     1      34.509 -15.403 -22.069  0.00  0.00    +0.155 HD
BRANCH  18  24
ATOM     21  C   UNL     1      35.173 -19.274 -21.662  0.00  0.00    +0.140 C 
ATOM     22  C   UNL     1      34.813 -17.928 -21.676  0.00  0.00    +0.052 C 
ATOM     23  C   UNL     1      35.421 -19.942 -22.862  0.00  0.00    +0.037 C 
ATOM     24  C   UNL     1      34.706 -17.268 -22.888  0.00  0.00    +0.054 C 
ATOM     25  C   UNL     1      35.309 -19.262 -24.075  0.00  0.00    +0.004 C 
ATOM     26  C   UNL     1      34.949 -17.915 -24.088  0.00  0.00    +0.015 C 
BRANCH  21  27
ATOM     27  O   UNL     1      35.283 -19.938 -20.480  0.00  0.00    -0.479 OA
BRANCH  27  28
ATOM     28  C   UNL     1      35.591 -21.326 -20.543  0.00  0.00    +0.166 C 
ATOM     29  C   UNL     1      34.542 -22.112 -19.771  0.00  0.00    +0.044 C 
ATOM     30  C   UNL     1      36.872 -21.619 -19.778  0.00  0.00    +0.044 C 
ATOM     31  C   UNL     1      34.954 -21.964 -18.306  0.00  0.00    +0.004 C 
ATOM     32  C   UNL     1      36.443 -21.617 -18.313  0.00  0.00    +0.004 C 
ENDBRANCH  27  28
ENDBRANCH  21  27
ENDBRANCH  18  24
ENDBRANCH   3  19
TORSDOF 5
ENDMDL
