MODEL 1
REMARK VINA RESULT:     -13.2      0.000      0.000
REMARK  Name = 6914614
REMARK  7 active torsions:
REMARK  status: ('A' for Active; 'I' for Inactive)
REMARK    1  A    between atoms: O_1  and  C_4
REMARK    2  A    between atoms: O_1  and  C_18
REMARK    3  A    between atoms: C_9  and  C_13
REMARK    4  A    between atoms: C_18  and  C_19
REMARK    5  A    between atoms: C_19  and  N_20
REMARK    6  A    between atoms: C_19  and  C_24
REMARK    7  A    between atoms: C_24  and  C_26
REMARK                            x       y       z     vdW  Elec       q    Type
REMARK                         _______ _______ _______ _____ _____    ______ ____
ROOT
ATOM      1  O   UNL     1      34.345 -13.944 -23.563  0.00  0.00    -0.476 OA
ENDROOT
BRANCH   1   4
ATOM      2  N   UNL     1      34.903 -18.705 -22.981  0.00  0.00    -0.404 NA
ATOM      3  N   UNL     1      34.433 -16.658 -25.967  0.00  0.00    -0.258 NA
ATOM      4  C   UNL     1      34.441 -15.214 -24.039  0.00  0.00    +0.159 C 
ATOM      5  C   UNL     1      34.630 -16.319 -23.199  0.00  0.00    +0.063 C 
ATOM      6  C   UNL     1      34.722 -17.610 -23.745  0.00  0.00    +0.136 C 
ATOM      7  C   UNL     1      34.732 -16.184 -21.808  0.00  0.00    +0.008 C 
ATOM      8  C   UNL     1      34.351 -15.437 -25.401  0.00  0.00    +0.130 C 
ATOM      9  C   UNL     1      34.997 -18.533 -21.642  0.00  0.00    +0.131 C 
ATOM     10  C   UNL     1      34.920 -17.307 -21.012  0.00  0.00    +0.032 C 
ATOM     11  C   UNL     1      34.615 -17.701 -25.123  0.00  0.00    +0.184 C 
BRANCH   9  13
ATOM     12  N   UNL     1      35.565 -22.103 -19.423  0.00  0.00    -0.242 NA
ATOM     13  C   UNL     1      35.190 -19.748 -20.886  0.00  0.00    +0.033 C 
ATOM     14  C   UNL     1      36.474 -20.167 -20.551  0.00  0.00    +0.023 C 
ATOM     15  C   UNL     1      34.094 -20.508 -20.489  0.00  0.00    +0.023 C 
ATOM     16  C   UNL     1      36.607 -21.340 -19.825  0.00  0.00    +0.099 C 
ATOM     17  C   UNL     1      34.333 -21.666 -19.766  0.00  0.00    +0.099 C 
ENDBRANCH   9  13
ENDBRANCH   1   4
BRANCH   1  18
ATOM     18  C   UNL     1      33.033 -13.436 -23.321  0.00  0.00    +0.184 C 
BRANCH  18  19
ATOM     19  C   UNL     1      33.069 -12.014 -22.748  0.00  0.00    -0.017 C 
BRANCH  19  20
ATOM     20  N   UNL     1      33.420 -11.083 -23.827  0.00  0.00    +0.384 N 
ATOM     21  H   UNL     1      32.713 -10.350 -23.887  0.00  0.00    -0.089 HD
ATOM     22  H   UNL     1      33.462 -11.588 -24.712  0.00  0.00    -0.089 HD
ATOM     23  H   UNL     1      34.329 -10.663 -23.631  0.00  0.00    -0.089 HD
ENDBRANCH  19  20
BRANCH  19  24
ATOM     24  C   UNL     1      31.737 -11.557 -22.121  0.00  0.00    +0.009 C 
BRANCH  24  26
ATOM     25  N   UNL     1      32.217  -9.508 -19.137  0.00  0.00    -0.312 N 
ATOM     26  C   UNL     1      31.901 -10.491 -21.074  0.00  0.00    -0.008 C 
ATOM     27  C   UNL     1      31.842  -9.103 -21.298  0.00  0.00    +0.011 C 
ATOM     28  C   UNL     1      32.045  -8.497 -20.056  0.00  0.00    +0.048 C 
ATOM     29  C   UNL     1      32.130 -10.727 -19.754  0.00  0.00    +0.058 C 
ATOM     30  C   UNL     1      31.638  -8.283 -22.427  0.00  0.00    +0.001 C 
ATOM     31  C   UNL     1      32.055  -7.108 -19.885  0.00  0.00    +0.015 C 
ATOM     32  C   UNL     1      31.644  -6.893 -22.271  0.00  0.00    +0.000 C 
ATOM     33  C   UNL     1      31.849  -6.316 -21.018  0.00  0.00    +0.001 C 
ATOM     34  H   UNL     1      32.379  -9.373 -18.176  0.00  0.00    +0.152 HD
ENDBRANCH  24  26
ENDBRANCH  19  24
ENDBRANCH  18  19
ENDBRANCH   1  18
TORSDOF 7
ENDMDL
MODEL 2
REMARK VINA RESULT:     -13.2      1.708      2.315
REMARK  Name = 6914614
REMARK  7 active torsions:
REMARK  status: ('A' for Active; 'I' for Inactive)
REMARK    1  A    between atoms: O_1  and  C_4
REMARK    2  A    between atoms: O_1  and  C_18
REMARK    3  A    between atoms: C_9  and  C_13
REMARK    4  A    between atoms: C_18  and  C_19
REMARK    5  A    between atoms: C_19  and  N_20
REMARK    6  A    between atoms: C_19  and  C_24
REMARK    7  A    between atoms: C_24  and  C_26
REMARK                            x       y       z     vdW  Elec       q    Type
REMARK                         _______ _______ _______ _____ _____    ______ ____
ROOT
ATOM      1  O   UNL     1      34.508 -13.744 -23.418  0.00  0.00    -0.476 OA
ENDROOT
BRANCH   1   4
ATOM      2  N   UNL     1      34.866 -18.542 -23.003  0.00  0.00    -0.404 NA
ATOM      3  N   UNL     1      34.417 -16.378 -25.909  0.00  0.00    -0.258 NA
ATOM      4  C   UNL     1      34.536 -15.001 -23.937  0.00  0.00    +0.159 C 
ATOM      5  C   UNL     1      34.695 -16.140 -23.137  0.00  0.00    +0.063 C 
ATOM      6  C   UNL     1      34.716 -17.415 -23.727  0.00  0.00    +0.136 C 
ATOM      7  C   UNL     1      34.837 -16.056 -21.746  0.00  0.00    +0.008 C 
ATOM      8  C   UNL     1      34.403 -15.174 -25.302  0.00  0.00    +0.130 C 
ATOM      9  C   UNL     1      35.000 -18.418 -21.662  0.00  0.00    +0.131 C 
ATOM     10  C   UNL     1      34.993 -17.211 -20.992  0.00  0.00    +0.032 C 
ATOM     11  C   UNL     1      34.572 -17.456 -25.104  0.00  0.00    +0.184 C 
BRANCH   9  13
ATOM     12  N   UNL     1      35.460 -22.080 -19.570  0.00  0.00    -0.242 NA
ATOM     13  C   UNL     1      35.157 -19.664 -20.950  0.00  0.00    +0.033 C 
ATOM     14  C   UNL     1      34.038 -20.409 -20.588  0.00  0.00    +0.023 C 
ATOM     15  C   UNL     1      36.427 -20.129 -20.621  0.00  0.00    +0.023 C 
ATOM     16  C   UNL     1      34.241 -21.599 -19.907  0.00  0.00    +0.099 C 
ATOM     17  C   UNL     1      36.523 -21.331 -19.937  0.00  0.00    +0.099 C 
ENDBRANCH   9  13
ENDBRANCH   1   4
BRANCH   1  18
ATOM     18  C   UNL     1      33.815 -12.745 -24.167  0.00  0.00    +0.184 C 
BRANCH  18  19
ATOM     19  C   UNL     1      32.673 -12.118 -23.359  0.00  0.00    -0.017 C 
BRANCH  19  20
ATOM     20  N   UNL     1      32.086 -13.151 -22.497  0.00  0.00    +0.384 N 
ATOM     21  H   UNL     1      32.510 -13.102 -21.570  0.00  0.00    -0.089 HD
ATOM     22  H   UNL     1      32.259 -14.070 -22.902  0.00  0.00    -0.089 HD
ATOM     23  H   UNL     1      31.080 -12.997 -22.418  0.00  0.00    -0.089 HD
ENDBRANCH  19  20
BRANCH  19  24
ATOM     24  C   UNL     1      33.106 -10.932 -22.476  0.00  0.00    +0.009 C 
BRANCH  24  26
ATOM     25  N   UNL     1      31.150  -7.993 -23.409  0.00  0.00    -0.312 N 
ATOM     26  C   UNL     1      32.557  -9.610 -22.933  0.00  0.00    -0.008 C 
ATOM     27  C   UNL     1      33.313  -8.537 -23.441  0.00  0.00    +0.011 C 
ATOM     28  C   UNL     1      32.401  -7.521 -23.736  0.00  0.00    +0.048 C 
ATOM     29  C   UNL     1      31.240  -9.268 -22.917  0.00  0.00    +0.058 C 
ATOM     30  C   UNL     1      34.683  -8.310 -23.685  0.00  0.00    +0.001 C 
ATOM     31  C   UNL     1      32.791  -6.286 -24.266  0.00  0.00    +0.015 C 
ATOM     32  C   UNL     1      35.088  -7.080 -24.215  0.00  0.00    +0.000 C 
ATOM     33  C   UNL     1      34.155  -6.084 -24.500  0.00  0.00    +0.001 C 
ATOM     34  H   UNL     1      30.313  -7.487 -23.512  0.00  0.00    +0.152 HD
ENDBRANCH  24  26
ENDBRANCH  19  24
ENDBRANCH  18  19
ENDBRANCH   1  18
TORSDOF 7
ENDMDL
MODEL 3
REMARK VINA RESULT:     -13.0      4.377      8.197
REMARK  Name = 6914614
REMARK  7 active torsions:
REMARK  status: ('A' for Active; 'I' for Inactive)
REMARK    1  A    between atoms: O_1  and  C_4
REMARK    2  A    between atoms: O_1  and  C_18
REMARK    3  A    between atoms: C_9  and  C_13
REMARK    4  A    between atoms: C_18  and  C_19
REMARK    5  A    between atoms: C_19  and  N_20
REMARK    6  A    between atoms: C_19  and  C_24
REMARK    7  A    between atoms: C_24  and  C_26
REMARK                            x       y       z     vdW  Elec       q    Type
REMARK                         _______ _______ _______ _____ _____    ______ ____
ROOT
ATOM      1  O   UNL     1      36.078 -20.915 -20.017  0.00  0.00    -0.476 OA
ENDROOT
BRANCH   1   4
ATOM      2  N   UNL     1      35.415 -23.417 -15.940  0.00  0.00    -0.404 NA
ATOM      3  N   UNL     1      33.193 -22.711 -18.750  0.00  0.00    -0.258 NA
ATOM      4  C   UNL     1      35.323 -21.668 -19.174  0.00  0.00    +0.159 C 
ATOM      5  C   UNL     1      35.815 -22.153 -17.956  0.00  0.00    +0.063 C 
ATOM      6  C   UNL     1      34.989 -22.927 -17.122  0.00  0.00    +0.136 C 
ATOM      7  C   UNL     1      37.123 -21.892 -17.527  0.00  0.00    +0.008 C 
ATOM      8  C   UNL     1      34.018 -21.973 -19.520  0.00  0.00    +0.130 C 
ATOM      9  C   UNL     1      36.685 -23.142 -15.562  0.00  0.00    +0.131 C 
ATOM     10  C   UNL     1      37.570 -22.393 -16.312  0.00  0.00    +0.032 C 
ATOM     11  C   UNL     1      33.704 -23.162 -17.580  0.00  0.00    +0.184 C 
BRANCH   9  13
ATOM     12  N   UNL     1      37.821 -24.777 -11.817  0.00  0.00    -0.242 NA
ATOM     13  C   UNL     1      37.072 -23.698 -14.288  0.00  0.00    +0.033 C 
ATOM     14  C   UNL     1      38.076 -24.659 -14.219  0.00  0.00    +0.023 C 
ATOM     15  C   UNL     1      36.442 -23.278 -13.120  0.00  0.00    +0.023 C 
ATOM     16  C   UNL     1      38.412 -25.161 -12.972  0.00  0.00    +0.099 C 
ATOM     17  C   UNL     1      36.850 -23.843 -11.922  0.00  0.00    +0.099 C 
ENDBRANCH   9  13
ENDBRANCH   1   4
BRANCH   1  18
ATOM     18  C   UNL     1      35.385 -20.144 -20.999  0.00  0.00    +0.184 C 
BRANCH  18  19
ATOM     19  C   UNL     1      36.085 -18.806 -21.271  0.00  0.00    -0.017 C 
BRANCH  19  20
ATOM     20  N   UNL     1      37.534 -18.999 -21.131  0.00  0.00    +0.384 N 
ATOM     21  H   UNL     1      37.978 -18.103 -20.927  0.00  0.00    -0.089 HD
ATOM     22  H   UNL     1      37.912 -19.376 -21.999  0.00  0.00    -0.089 HD
ATOM     23  H   UNL     1      37.718 -19.650 -20.367  0.00  0.00    -0.089 HD
ENDBRANCH  19  20
BRANCH  19  24
ATOM     24  C   UNL     1      35.802 -18.222 -22.668  0.00  0.00    +0.009 C 
BRANCH  24  26
ATOM     25  N   UNL     1      34.283 -14.992 -21.899  0.00  0.00    -0.312 N 
ATOM     26  C   UNL     1      35.112 -16.888 -22.633  0.00  0.00    -0.008 C 
ATOM     27  C   UNL     1      34.526 -16.236 -23.734  0.00  0.00    +0.011 C 
ATOM     28  C   UNL     1      34.006 -15.035 -23.247  0.00  0.00    +0.048 C 
ATOM     29  C   UNL     1      34.959 -16.121 -21.519  0.00  0.00    +0.058 C 
ATOM     30  C   UNL     1      34.377 -16.533 -25.104  0.00  0.00    +0.001 C 
ATOM     31  C   UNL     1      33.343 -14.112 -24.063  0.00  0.00    +0.015 C 
ATOM     32  C   UNL     1      33.715 -15.620 -25.933  0.00  0.00    +0.000 C 
ATOM     33  C   UNL     1      33.206 -14.428 -25.418  0.00  0.00    +0.001 C 
ATOM     34  H   UNL     1      34.033 -14.256 -21.296  0.00  0.00    +0.152 HD
ENDBRANCH  24  26
ENDBRANCH  19  24
ENDBRANCH  18  19
ENDBRANCH   1  18
TORSDOF 7
ENDMDL
MODEL 4
REMARK VINA RESULT:     -12.9      1.871      9.935
REMARK  Name = 6914614
REMARK  7 active torsions:
REMARK  status: ('A' for Active; 'I' for Inactive)
REMARK    1  A    between atoms: O_1  and  C_4
REMARK    2  A    between atoms: O_1  and  C_18
REMARK    3  A    between atoms: C_9  and  C_13
REMARK    4  A    between atoms: C_18  and  C_19
REMARK    5  A    between atoms: C_19  and  N_20
REMARK    6  A    between atoms: C_19  and  C_24
REMARK    7  A    between atoms: C_24  and  C_26
REMARK                            x       y       z     vdW  Elec       q    Type
REMARK                         _______ _______ _______ _____ _____    ______ ____
ROOT
ATOM      1  O   UNL     1      35.684 -17.662 -23.395  0.00  0.00    -0.476 OA
ENDROOT
BRANCH   1   4
ATOM      2  N   UNL     1      32.973 -13.697 -23.892  0.00  0.00    -0.404 NA
ATOM      3  N   UNL     1      33.819 -16.373 -26.226  0.00  0.00    -0.258 NA
ATOM      4  C   UNL     1      34.887 -16.829 -24.115  0.00  0.00    +0.159 C 
ATOM      5  C   UNL     1      34.340 -15.658 -23.574  0.00  0.00    +0.063 C 
ATOM      6  C   UNL     1      33.523 -14.833 -24.365  0.00  0.00    +0.136 C 
ATOM      7  C   UNL     1      34.581 -15.271 -22.249  0.00  0.00    +0.008 C 
ATOM      8  C   UNL     1      34.598 -17.136 -25.432  0.00  0.00    +0.130 C 
ATOM      9  C   UNL     1      33.230 -13.357 -22.607  0.00  0.00    +0.131 C 
ATOM     10  C   UNL     1      34.018 -14.102 -21.753  0.00  0.00    +0.032 C 
ATOM     11  C   UNL     1      33.309 -15.249 -25.668  0.00  0.00    +0.184 C 
BRANCH   9  13
ATOM     12  N   UNL     1      31.408  -9.750 -21.318  0.00  0.00    -0.242 NA
ATOM     13  C   UNL     1      32.609 -12.130 -22.168  0.00  0.00    +0.033 C 
ATOM     14  C   UNL     1      32.682 -10.987 -22.959  0.00  0.00    +0.023 C 
ATOM     15  C   UNL     1      31.936 -12.081 -20.951  0.00  0.00    +0.023 C 
ATOM     16  C   UNL     1      32.070  -9.834 -22.494  0.00  0.00    +0.099 C 
ATOM     17  C   UNL     1      31.358 -10.878 -20.576  0.00  0.00    +0.099 C 
ENDBRANCH   9  13
ENDBRANCH   1   4
BRANCH   1  18
ATOM     18  C   UNL     1      35.168 -18.959 -23.096  0.00  0.00    +0.184 C 
BRANCH  18  19
ATOM     19  C   UNL     1      35.608 -19.441 -21.708  0.00  0.00    -0.017 C 
BRANCH  19  20
ATOM     20  N   UNL     1      35.770 -18.272 -20.836  0.00  0.00    +0.384 N 
ATOM     21  H   UNL     1      35.705 -18.563 -19.860  0.00  0.00    -0.089 HD
ATOM     22  H   UNL     1      35.036 -17.593 -21.037  0.00  0.00    -0.089 HD
ATOM     23  H   UNL     1      36.682 -17.846 -21.003  0.00  0.00    -0.089 HD
ENDBRANCH  19  20
BRANCH  19  24
ATOM     24  C   UNL     1      34.620 -20.417 -21.040  0.00  0.00    +0.009 C 
BRANCH  24  26
ATOM     25  N   UNL     1      36.628 -21.914 -18.384  0.00  0.00    -0.312 N 
ATOM     26  C   UNL     1      35.193 -21.132 -19.849  0.00  0.00    -0.008 C 
ATOM     27  C   UNL     1      34.458 -21.865 -18.899  0.00  0.00    +0.011 C 
ATOM     28  C   UNL     1      35.388 -22.353 -17.978  0.00  0.00    +0.048 C 
ATOM     29  C   UNL     1      36.514 -21.168 -19.526  0.00  0.00    +0.058 C 
ATOM     30  C   UNL     1      33.095 -22.173 -18.714  0.00  0.00    +0.001 C 
ATOM     31  C   UNL     1      35.022 -23.136 -16.877  0.00  0.00    +0.015 C 
ATOM     32  C   UNL     1      32.714 -22.955 -17.618  0.00  0.00    +0.000 C 
ATOM     33  C   UNL     1      33.664 -23.429 -16.714  0.00  0.00    +0.001 C 
ATOM     34  H   UNL     1      37.474 -22.109 -17.920  0.00  0.00    +0.152 HD
ENDBRANCH  24  26
ENDBRANCH  19  24
ENDBRANCH  18  19
ENDBRANCH   1  18
TORSDOF 7
ENDMDL
MODEL 5
REMARK VINA RESULT:     -12.8      4.205      8.279
REMARK  Name = 6914614
REMARK  7 active torsions:
REMARK  status: ('A' for Active; 'I' for Inactive)
REMARK    1  A    between atoms: O_1  and  C_4
REMARK    2  A    between atoms: O_1  and  C_18
REMARK    3  A    between atoms: C_9  and  C_13
REMARK    4  A    between atoms: C_18  and  C_19
REMARK    5  A    between atoms: C_19  and  N_20
REMARK    6  A    between atoms: C_19  and  C_24
REMARK    7  A    between atoms: C_24  and  C_26
REMARK                            x       y       z     vdW  Elec       q    Type
REMARK                         _______ _______ _______ _____ _____    ______ ____
ROOT
ATOM      1  O   UNL     1      35.813 -20.831 -20.039  0.00  0.00    -0.476 OA
ENDROOT
BRANCH   1   4
ATOM      2  N   UNL     1      35.349 -23.475 -16.025  0.00  0.00    -0.404 NA
ATOM      3  N   UNL     1      33.008 -22.716 -18.723  0.00  0.00    -0.258 NA
ATOM      4  C   UNL     1      35.103 -21.624 -19.193  0.00  0.00    +0.159 C 
ATOM      5  C   UNL     1      35.650 -22.140 -18.011  0.00  0.00    +0.063 C 
ATOM      6  C   UNL     1      34.870 -22.954 -17.173  0.00  0.00    +0.136 C 
ATOM      7  C   UNL     1      36.969 -21.870 -17.625  0.00  0.00    +0.008 C 
ATOM      8  C   UNL     1      33.791 -21.940 -19.498  0.00  0.00    +0.130 C 
ATOM      9  C   UNL     1      36.628 -23.191 -15.688  0.00  0.00    +0.131 C 
ATOM     10  C   UNL     1      37.471 -22.403 -16.445  0.00  0.00    +0.032 C 
ATOM     11  C   UNL     1      33.571 -23.196 -17.589  0.00  0.00    +0.184 C 
BRANCH   9  13
ATOM     12  N   UNL     1      37.936 -24.924 -12.044  0.00  0.00    -0.242 NA
ATOM     13  C   UNL     1      37.073 -23.781 -14.448  0.00  0.00    +0.033 C 
ATOM     14  C   UNL     1      36.419 -23.484 -13.256  0.00  0.00    +0.023 C 
ATOM     15  C   UNL     1      38.160 -24.650 -14.436  0.00  0.00    +0.023 C 
ATOM     16  C   UNL     1      36.884 -24.077 -12.093  0.00  0.00    +0.099 C 
ATOM     17  C   UNL     1      38.548 -25.190 -13.219  0.00  0.00    +0.099 C 
ENDBRANCH   9  13
ENDBRANCH   1   4
BRANCH   1  18
ATOM     18  C   UNL     1      35.075 -20.096 -21.017  0.00  0.00    +0.184 C 
BRANCH  18  19
ATOM     19  C   UNL     1      35.768 -18.777 -21.380  0.00  0.00    -0.017 C 
BRANCH  19  20
ATOM     20  N   UNL     1      37.026 -18.686 -20.629  0.00  0.00    +0.384 N 
ATOM     21  H   UNL     1      37.214 -19.578 -20.171  0.00  0.00    -0.089 HD
ATOM     22  H   UNL     1      36.949 -17.951 -19.926  0.00  0.00    -0.089 HD
ATOM     23  H   UNL     1      37.789 -18.466 -21.269  0.00  0.00    -0.089 HD
ENDBRANCH  19  20
BRANCH  19  24
ATOM     24  C   UNL     1      36.082 -18.626 -22.881  0.00  0.00    +0.009 C 
BRANCH  24  26
ATOM     25  N   UNL     1      34.222 -16.387 -25.086  0.00  0.00    -0.312 N 
ATOM     26  C   UNL     1      35.294 -17.538 -23.554  0.00  0.00    -0.008 C 
ATOM     27  C   UNL     1      34.835 -16.357 -22.941  0.00  0.00    +0.011 C 
ATOM     28  C   UNL     1      34.157 -15.641 -23.931  0.00  0.00    +0.048 C 
ATOM     29  C   UNL     1      34.915 -17.547 -24.861  0.00  0.00    +0.058 C 
ATOM     30  C   UNL     1      34.919 -15.809 -21.645  0.00  0.00    +0.001 C 
ATOM     31  C   UNL     1      33.556 -14.401 -23.688  0.00  0.00    +0.015 C 
ATOM     32  C   UNL     1      34.323 -14.569 -21.388  0.00  0.00    +0.000 C 
ATOM     33  C   UNL     1      33.652 -13.877 -22.396  0.00  0.00    +0.001 C 
ATOM     34  H   UNL     1      33.827 -16.126 -25.948  0.00  0.00    +0.152 HD
ENDBRANCH  24  26
ENDBRANCH  19  24
ENDBRANCH  18  19
ENDBRANCH   1  18
TORSDOF 7
ENDMDL
MODEL 6
REMARK VINA RESULT:     -12.7      5.233     11.528
REMARK  Name = 6914614
REMARK  7 active torsions:
REMARK  status: ('A' for Active; 'I' for Inactive)
REMARK    1  A    between atoms: O_1  and  C_4
REMARK    2  A    between atoms: O_1  and  C_18
REMARK    3  A    between atoms: C_9  and  C_13
REMARK    4  A    between atoms: C_18  and  C_19
REMARK    5  A    between atoms: C_19  and  N_20
REMARK    6  A    between atoms: C_19  and  C_24
REMARK    7  A    between atoms: C_24  and  C_26
REMARK                            x       y       z     vdW  Elec       q    Type
REMARK                         _______ _______ _______ _____ _____    ______ ____
ROOT
ATOM      1  O   UNL     1      36.622 -22.303 -18.701  0.00  0.00    -0.476 OA
ENDROOT
BRANCH   1   4
ATOM      2  N   UNL     1      34.128 -19.370 -21.616  0.00  0.00    -0.404 NA
ATOM      3  N   UNL     1      33.064 -22.027 -19.350  0.00  0.00    -0.258 NA
ATOM      4  C   UNL     1      35.463 -21.843 -19.244  0.00  0.00    +0.159 C 
ATOM      5  C   UNL     1      35.435 -20.802 -20.181  0.00  0.00    +0.063 C 
ATOM      6  C   UNL     1      34.209 -20.366 -20.711  0.00  0.00    +0.136 C 
ATOM      7  C   UNL     1      36.605 -20.167 -20.620  0.00  0.00    +0.008 C 
ATOM      8  C   UNL     1      34.262 -22.415 -18.867  0.00  0.00    +0.130 C 
ATOM      9  C   UNL     1      35.280 -18.782 -22.013  0.00  0.00    +0.131 C 
ATOM     10  C   UNL     1      36.531 -19.139 -21.550  0.00  0.00    +0.032 C 
ATOM     11  C   UNL     1      33.077 -21.019 -20.254  0.00  0.00    +0.184 C 
BRANCH   9  13
ATOM     12  N   UNL     1      34.805 -15.673 -24.859  0.00  0.00    -0.242 NA
ATOM     13  C   UNL     1      35.118 -17.723 -22.982  0.00  0.00    +0.033 C 
ATOM     14  C   UNL     1      34.963 -18.027 -24.331  0.00  0.00    +0.023 C 
ATOM     15  C   UNL     1      35.117 -16.393 -22.573  0.00  0.00    +0.023 C 
ATOM     16  C   UNL     1      34.811 -16.976 -25.221  0.00  0.00    +0.099 C 
ATOM     17  C   UNL     1      34.958 -15.415 -23.542  0.00  0.00    +0.099 C 
ENDBRANCH   9  13
ENDBRANCH   1   4
BRANCH   1  18
ATOM     18  C   UNL     1      36.941 -21.866 -17.380  0.00  0.00    +0.184 C 
BRANCH  18  19
ATOM     19  C   UNL     1      36.560 -22.913 -16.325  0.00  0.00    -0.017 C 
BRANCH  19  20
ATOM     20  N   UNL     1      37.790 -23.520 -15.803  0.00  0.00    +0.384 N 
ATOM     21  H   UNL     1      37.666 -23.743 -14.815  0.00  0.00    -0.089 HD
ATOM     22  H   UNL     1      38.564 -22.865 -15.909  0.00  0.00    -0.089 HD
ATOM     23  H   UNL     1      37.994 -24.375 -16.322  0.00  0.00    -0.089 HD
ENDBRANCH  19  20
BRANCH  19  24
ATOM     24  C   UNL     1      35.753 -22.346 -15.141  0.00  0.00    +0.009 C 
BRANCH  24  26
ATOM     25  N   UNL     1      34.151 -24.949 -13.145  0.00  0.00    -0.312 N 
ATOM     26  C   UNL     1      34.861 -23.360 -14.482  0.00  0.00    -0.008 C 
ATOM     27  C   UNL     1      33.518 -23.613 -14.814  0.00  0.00    +0.011 C 
ATOM     28  C   UNL     1      33.085 -24.624 -13.954  0.00  0.00    +0.048 C 
ATOM     29  C   UNL     1      35.238 -24.180 -13.463  0.00  0.00    +0.058 C 
ATOM     30  C   UNL     1      32.609 -23.091 -15.758  0.00  0.00    +0.001 C 
ATOM     31  C   UNL     1      31.786 -25.143 -13.989  0.00  0.00    +0.015 C 
ATOM     32  C   UNL     1      31.307 -23.600 -15.805  0.00  0.00    +0.000 C 
ATOM     33  C   UNL     1      30.903 -24.611 -14.934  0.00  0.00    +0.001 C 
ATOM     34  H   UNL     1      34.133 -25.635 -12.439  0.00  0.00    +0.152 HD
ENDBRANCH  24  26
ENDBRANCH  19  24
ENDBRANCH  18  19
ENDBRANCH   1  18
TORSDOF 7
ENDMDL
MODEL 7
REMARK VINA RESULT:     -12.5      1.283      1.930
REMARK  Name = 6914614
REMARK  7 active torsions:
REMARK  status: ('A' for Active; 'I' for Inactive)
REMARK    1  A    between atoms: O_1  and  C_4
REMARK    2  A    between atoms: O_1  and  C_18
REMARK    3  A    between atoms: C_9  and  C_13
REMARK    4  A    between atoms: C_18  and  C_19
REMARK    5  A    between atoms: C_19  and  N_20
REMARK    6  A    between atoms: C_19  and  C_24
REMARK    7  A    between atoms: C_24  and  C_26
REMARK                            x       y       z     vdW  Elec       q    Type
REMARK                         _______ _______ _______ _____ _____    ______ ____
ROOT
ATOM      1  O   UNL     1      34.312 -13.462 -23.383  0.00  0.00    -0.476 OA
ENDROOT
BRANCH   1   4
ATOM      2  N   UNL     1      34.892 -18.246 -23.076  0.00  0.00    -0.404 NA
ATOM      3  N   UNL     1      34.390 -16.035 -25.937  0.00  0.00    -0.258 NA
ATOM      4  C   UNL     1      34.409 -14.702 -23.931  0.00  0.00    +0.159 C 
ATOM      5  C   UNL     1      34.609 -15.852 -23.156  0.00  0.00    +0.063 C 
ATOM      6  C   UNL     1      34.700 -17.110 -23.776  0.00  0.00    +0.136 C 
ATOM      7  C   UNL     1      34.722 -15.796 -21.761  0.00  0.00    +0.008 C 
ATOM      8  C   UNL     1      34.307 -14.848 -25.303  0.00  0.00    +0.130 C 
ATOM      9  C   UNL     1      34.997 -18.149 -21.730  0.00  0.00    +0.131 C 
ATOM     10  C   UNL     1      34.921 -16.960 -21.032  0.00  0.00    +0.032 C 
ATOM     11  C   UNL     1      34.582 -17.124 -25.155  0.00  0.00    +0.184 C 
BRANCH   9  13
ATOM     12  N   UNL     1      35.596 -21.835 -19.718  0.00  0.00    -0.242 NA
ATOM     13  C   UNL     1      35.201 -19.404 -21.046  0.00  0.00    +0.033 C 
ATOM     14  C   UNL     1      34.112 -20.199 -20.703  0.00  0.00    +0.023 C 
ATOM     15  C   UNL     1      36.488 -19.825 -20.723  0.00  0.00    +0.023 C 
ATOM     16  C   UNL     1      34.360 -21.395 -20.048  0.00  0.00    +0.099 C 
ATOM     17  C   UNL     1      36.630 -21.037 -20.066  0.00  0.00    +0.099 C 
ENDBRANCH   9  13
ENDBRANCH   1   4
BRANCH   1  18
ATOM     18  C   UNL     1      33.465 -12.522 -24.044  0.00  0.00    +0.184 C 
BRANCH  18  19
ATOM     19  C   UNL     1      32.427 -11.920 -23.089  0.00  0.00    -0.017 C 
BRANCH  19  20
ATOM     20  N   UNL     1      31.937 -12.981 -22.201  0.00  0.00    +0.384 N 
ATOM     21  H   UNL     1      32.383 -12.893 -21.288  0.00  0.00    -0.089 HD
ATOM     22  H   UNL     1      32.161 -13.891 -22.603  0.00  0.00    -0.089 HD
ATOM     23  H   UNL     1      30.926 -12.896 -22.095  0.00  0.00    -0.089 HD
ENDBRANCH  19  20
BRANCH  19  24
ATOM     24  C   UNL     1      32.967 -10.766 -22.222  0.00  0.00    +0.009 C 
BRANCH  24  26
ATOM     25  N   UNL     1      31.497  -7.778 -23.719  0.00  0.00    -0.312 N 
ATOM     26  C   UNL     1      32.382  -9.427 -22.571  0.00  0.00    -0.008 C 
ATOM     27  C   UNL     1      32.186  -8.357 -21.678  0.00  0.00    +0.011 C 
ATOM     28  C   UNL     1      31.623  -7.321 -22.427  0.00  0.00    +0.048 C 
ATOM     29  C   UNL     1      31.959  -9.064 -23.813  0.00  0.00    +0.058 C 
ATOM     30  C   UNL     1      32.424  -8.149 -20.304  0.00  0.00    +0.001 C 
ATOM     31  C   UNL     1      31.285  -6.083 -21.869  0.00  0.00    +0.015 C 
ATOM     32  C   UNL     1      32.092  -6.916 -19.733  0.00  0.00    +0.000 C 
ATOM     33  C   UNL     1      31.531  -5.899 -20.505  0.00  0.00    +0.001 C 
ATOM     34  H   UNL     1      31.128  -7.256 -24.467  0.00  0.00    +0.152 HD
ENDBRANCH  24  26
ENDBRANCH  19  24
ENDBRANCH  18  19
ENDBRANCH   1  18
TORSDOF 7
ENDMDL
MODEL 8
REMARK VINA RESULT:     -12.4      7.351     11.263
REMARK  Name = 6914614
REMARK  7 active torsions:
REMARK  status: ('A' for Active; 'I' for Inactive)
REMARK    1  A    between atoms: O_1  and  C_4
REMARK    2  A    between atoms: O_1  and  C_18
REMARK    3  A    between atoms: C_9  and  C_13
REMARK    4  A    between atoms: C_18  and  C_19
REMARK    5  A    between atoms: C_19  and  N_20
REMARK    6  A    between atoms: C_19  and  C_24
REMARK    7  A    between atoms: C_24  and  C_26
REMARK                            x       y       z     vdW  Elec       q    Type
REMARK                         _______ _______ _______ _____ _____    ______ ____
ROOT
ATOM      1  O   UNL     1      36.734 -23.563 -16.177  0.00  0.00    -0.476 OA
ENDROOT
BRANCH   1   4
ATOM      2  N   UNL     1      32.192 -23.890 -14.568  0.00  0.00    -0.404 NA
ATOM      3  N   UNL     1      35.404 -24.363 -12.898  0.00  0.00    -0.258 NA
ATOM      4  C   UNL     1      35.813 -23.791 -15.203  0.00  0.00    +0.159 C 
ATOM      5  C   UNL     1      34.435 -23.709 -15.438  0.00  0.00    +0.063 C 
ATOM      6  C   UNL     1      33.527 -23.956 -14.394  0.00  0.00    +0.136 C 
ATOM      7  C   UNL     1      33.915 -23.384 -16.698  0.00  0.00    +0.008 C 
ATOM      8  C   UNL     1      36.240 -24.118 -13.928  0.00  0.00    +0.130 C 
ATOM      9  C   UNL     1      31.731 -23.573 -15.800  0.00  0.00    +0.131 C 
ATOM     10  C   UNL     1      32.542 -23.313 -16.887  0.00  0.00    +0.032 C 
ATOM     11  C   UNL     1      34.079 -24.274 -13.164  0.00  0.00    +0.184 C 
BRANCH   9  13
ATOM     12  N   UNL     1      27.505 -23.419 -16.136  0.00  0.00    -0.242 NA
ATOM     13  C   UNL     1      30.292 -23.520 -15.914  0.00  0.00    +0.033 C 
ATOM     14  C   UNL     1      29.584 -24.635 -16.352  0.00  0.00    +0.023 C 
ATOM     15  C   UNL     1      29.606 -22.355 -15.588  0.00  0.00    +0.023 C 
ATOM     16  C   UNL     1      28.204 -24.534 -16.444  0.00  0.00    +0.099 C 
ATOM     17  C   UNL     1      28.225 -22.356 -15.715  0.00  0.00    +0.099 C 
ENDBRANCH   9  13
ENDBRANCH   1   4
BRANCH   1  18
ATOM     18  C   UNL     1      37.417 -22.310 -16.146  0.00  0.00    +0.184 C 
BRANCH  18  19
ATOM     19  C   UNL     1      36.903 -21.354 -17.230  0.00  0.00    -0.017 C 
BRANCH  19  20
ATOM     20  N   UNL     1      37.799 -20.194 -17.295  0.00  0.00    +0.384 N 
ATOM     21  H   UNL     1      38.734 -20.468 -16.991  0.00  0.00    -0.089 HD
ATOM     22  H   UNL     1      37.446 -19.457 -16.685  0.00  0.00    -0.089 HD
ATOM     23  H   UNL     1      37.841 -19.850 -18.254  0.00  0.00    -0.089 HD
ENDBRANCH  19  20
BRANCH  19  24
ATOM     24  C   UNL     1      36.817 -21.985 -18.634  0.00  0.00    +0.009 C 
BRANCH  24  26
ATOM     25  N   UNL     1      33.939 -20.774 -20.526  0.00  0.00    -0.312 N 
ATOM     26  C   UNL     1      35.825 -21.310 -19.537  0.00  0.00    -0.008 C 
ATOM     27  C   UNL     1      36.115 -20.288 -20.460  0.00  0.00    +0.011 C 
ATOM     28  C   UNL     1      34.905 -19.962 -21.077  0.00  0.00    +0.048 C 
ATOM     29  C   UNL     1      34.495 -21.598 -19.585  0.00  0.00    +0.058 C 
ATOM     30  C   UNL     1      37.281 -19.595 -20.845  0.00  0.00    +0.001 C 
ATOM     31  C   UNL     1      34.802 -18.975 -22.063  0.00  0.00    +0.015 C 
ATOM     32  C   UNL     1      37.193 -18.605 -21.830  0.00  0.00    +0.000 C 
ATOM     33  C   UNL     1      35.971 -18.301 -22.429  0.00  0.00    +0.001 C 
ATOM     34  H   UNL     1      32.987 -20.763 -20.773  0.00  0.00    +0.152 HD
ENDBRANCH  24  26
ENDBRANCH  19  24
ENDBRANCH  18  19
ENDBRANCH   1  18
TORSDOF 7
ENDMDL
MODEL 9
REMARK VINA RESULT:     -12.3      2.662      4.843
REMARK  Name = 6914614
REMARK  7 active torsions:
REMARK  status: ('A' for Active; 'I' for Inactive)
REMARK    1  A    between atoms: O_1  and  C_4
REMARK    2  A    between atoms: O_1  and  C_18
REMARK    3  A    between atoms: C_9  and  C_13
REMARK    4  A    between atoms: C_18  and  C_19
REMARK    5  A    between atoms: C_19  and  N_20
REMARK    6  A    between atoms: C_19  and  C_24
REMARK    7  A    between atoms: C_24  and  C_26
REMARK                            x       y       z     vdW  Elec       q    Type
REMARK                         _______ _______ _______ _____ _____    ______ ____
ROOT
ATOM      1  O   UNL     1      34.465 -18.344 -23.543  0.00  0.00    -0.476 OA
ENDROOT
BRANCH   1   4
ATOM      2  N   UNL     1      35.833 -20.858 -19.654  0.00  0.00    -0.404 NA
ATOM      3  N   UNL     1      37.703 -18.728 -21.954  0.00  0.00    -0.258 NA
ATOM      4  C   UNL     1      35.397 -18.772 -22.650  0.00  0.00    +0.159 C 
ATOM      5  C   UNL     1      35.081 -19.626 -21.586  0.00  0.00    +0.063 C 
ATOM      6  C   UNL     1      36.085 -20.038 -20.693  0.00  0.00    +0.136 C 
ATOM      7  C   UNL     1      33.778 -20.094 -21.373  0.00  0.00    +0.008 C 
ATOM      8  C   UNL     1      36.710 -18.357 -22.787  0.00  0.00    +0.130 C 
ATOM      9  C   UNL     1      34.561 -21.288 -19.482  0.00  0.00    +0.131 C 
ATOM     10  C   UNL     1      33.508 -20.939 -20.304  0.00  0.00    +0.032 C 
ATOM     11  C   UNL     1      37.359 -19.554 -20.938  0.00  0.00    +0.184 C 
BRANCH   9  13
ATOM     12  N   UNL     1      33.984 -23.858 -16.157  0.00  0.00    -0.242 NA
ATOM     13  C   UNL     1      34.364 -22.163 -18.350  0.00  0.00    +0.033 C 
ATOM     14  C   UNL     1      35.414 -22.419 -17.473  0.00  0.00    +0.023 C 
ATOM     15  C   UNL     1      33.125 -22.755 -18.130  0.00  0.00    +0.023 C 
ATOM     16  C   UNL     1      35.174 -23.265 -16.402  0.00  0.00    +0.099 C 
ATOM     17  C   UNL     1      32.988 -23.587 -17.029  0.00  0.00    +0.099 C 
ENDBRANCH   9  13
ENDBRANCH   1   4
BRANCH   1  18
ATOM     18  C   UNL     1      34.936 -17.920 -24.823  0.00  0.00    +0.184 C 
BRANCH  18  19
ATOM     19  C   UNL     1      34.761 -16.410 -25.022  0.00  0.00    -0.017 C 
BRANCH  19  20
ATOM     20  N   UNL     1      33.401 -16.156 -25.513  0.00  0.00    +0.384 N 
ATOM     21  H   UNL     1      33.336 -15.196 -25.854  0.00  0.00    -0.089 HD
ATOM     22  H   UNL     1      32.735 -16.293 -24.754  0.00  0.00    -0.089 HD
ATOM     23  H   UNL     1      33.188 -16.801 -26.274  0.00  0.00    -0.089 HD
ENDBRANCH  19  20
BRANCH  19  24
ATOM     24  C   UNL     1      34.983 -15.578 -23.744  0.00  0.00    +0.009 C 
BRANCH  24  26
ATOM     25  N   UNL     1      33.553 -12.287 -24.419  0.00  0.00    -0.312 N 
ATOM     26  C   UNL     1      34.277 -14.252 -23.759  0.00  0.00    -0.008 C 
ATOM     27  C   UNL     1      33.478 -13.734 -22.723  0.00  0.00    +0.011 C 
ATOM     28  C   UNL     1      33.028 -12.487 -23.162  0.00  0.00    +0.048 C 
ATOM     29  C   UNL     1      34.316 -13.362 -24.788  0.00  0.00    +0.058 C 
ATOM     30  C   UNL     1      33.081 -14.189 -21.449  0.00  0.00    +0.001 C 
ATOM     31  C   UNL     1      32.197 -11.668 -22.389  0.00  0.00    +0.015 C 
ATOM     32  C   UNL     1      32.250 -13.380 -20.664  0.00  0.00    +0.000 C 
ATOM     33  C   UNL     1      31.817 -12.139 -21.128  0.00  0.00    +0.001 C 
ATOM     34  H   UNL     1      33.400 -11.488 -24.972  0.00  0.00    +0.152 HD
ENDBRANCH  24  26
ENDBRANCH  19  24
ENDBRANCH  18  19
ENDBRANCH   1  18
TORSDOF 7
ENDMDL
