MODEL 1
REMARK VINA RESULT:     -12.8      0.000      0.000
REMARK  Name = 9804992
REMARK  10 active torsions:
REMARK  status: ('A' for Active; 'I' for Inactive)
REMARK    1  A    between atoms: C_1  and  C_9
REMARK    2  A    between atoms: C_1  and  O_19
REMARK    3  A    between atoms: C_2  and  C_12
REMARK    4  A    between atoms: C_12  and  N_13
REMARK    5  A    between atoms: N_13  and  C_15
REMARK    6  A    between atoms: N_13  and  C_17
REMARK    7  A    between atoms: O_19  and  C_22
REMARK    8  A    between atoms: N_21  and  C_24
REMARK    9  A    between atoms: C_27  and  C_32
REMARK   10  A    between atoms: N_31  and  O_34
REMARK                            x       y       z     vdW  Elec       q    Type
REMARK                         _______ _______ _______ _____ _____    ______ ____
ROOT
ATOM      1  C   UNL     1      35.050 -17.166 -25.010  0.00  0.00    +0.237 C 
ENDROOT
BRANCH   1   9
ATOM      2  C   UNL     1      32.044 -12.394 -21.743  0.00  0.00    -0.043 C 
ATOM      3  C   UNL     1      32.911 -13.715 -23.592  0.00  0.00    -0.000 C 
ATOM      4  C   UNL     1      33.441 -14.648 -22.669  0.00  0.00    -0.000 C 
ATOM      5  C   UNL     1      32.215 -12.593 -23.113  0.00  0.00    -0.006 C 
ATOM      6  C   UNL     1      32.564 -13.311 -20.835  0.00  0.00    -0.006 C 
ATOM      7  C   UNL     1      33.258 -14.431 -21.293  0.00  0.00    -0.000 C 
ATOM      8  C   UNL     1      34.136 -15.769 -23.148  0.00  0.00    -0.001 C 
ATOM      9  C   UNL     1      34.308 -15.969 -24.519  0.00  0.00    +0.021 C 
ATOM     10  C   UNL     1      33.093 -13.931 -24.968  0.00  0.00    -0.000 C 
ATOM     11  C   UNL     1      33.787 -15.052 -25.427  0.00  0.00    -0.001 C 
BRANCH   2  12
ATOM     12  C   UNL     1      31.303 -11.196 -21.251  0.00  0.00    -0.050 C 
BRANCH  12  13
ATOM     13  N   UNL     1      32.097  -9.971 -21.346  0.00  0.00    +0.390 N 
ATOM     14  H   UNL     1      33.042 -10.219 -21.639  0.00  0.00    -0.079 HD
BRANCH  13  15
ATOM     15  C   UNL     1      31.526  -9.070 -22.346  0.00  0.00    -0.077 C 
ATOM     16  C   UNL     1      32.456  -8.908 -23.536  0.00  0.00    -0.025 C 
ENDBRANCH  13  15
BRANCH  13  17
ATOM     17  C   UNL     1      32.173  -9.311 -20.045  0.00  0.00    -0.077 C 
ATOM     18  C   UNL     1      31.667 -10.219 -18.937  0.00  0.00    -0.025 C 
ENDBRANCH  13  17
ENDBRANCH  12  13
ENDBRANCH   2  12
ENDBRANCH   1   9
BRANCH   1  19
ATOM     19  O   UNL     1      35.751 -17.764 -23.927  0.00  0.00    -0.429 OA
BRANCH  19  22
ATOM     20  O   UNL     1      34.851 -19.855 -24.144  0.00  0.00    -0.226 OA
ATOM     21  N   UNL     1      35.210 -18.870 -22.050  0.00  0.00    -0.250 N 
ATOM     22  C   UNL     1      35.227 -18.933 -23.430  0.00  0.00    +0.406 C 
ATOM     23  H   UNL     1      35.558 -18.039 -21.652  0.00  0.00    +0.158 HD
BRANCH  21  24
ATOM     24  C   UNL     1      34.755 -19.850 -21.140  0.00  0.00    +0.053 C 
ATOM     25  C   UNL     1      33.386 -20.034 -20.939  0.00  0.00    +0.015 C 
ATOM     26  C   UNL     1      35.674 -20.634 -20.441  0.00  0.00    +0.015 C 
ATOM     27  C   UNL     1      33.857 -21.784 -19.341  0.00  0.00    +0.055 C 
ATOM     28  C   UNL     1      32.937 -21.000 -20.039  0.00  0.00    +0.006 C 
ATOM     29  C   UNL     1      35.225 -21.600 -19.542  0.00  0.00    +0.006 C 
BRANCH  27  32
ATOM     30  O   UNL     1      34.016 -23.854 -18.243  0.00  0.00    -0.268 OA
ATOM     31  N   UNL     1      32.215 -22.518 -17.714  0.00  0.00    -0.193 N 
ATOM     32  C   UNL     1      33.388 -22.791 -18.403  0.00  0.00    +0.268 C 
ATOM     33  H   UNL     1      31.724 -21.674 -17.847  0.00  0.00    +0.183 HD
BRANCH  31  34
ATOM     34  O   UNL     1      31.761 -23.499 -16.821  0.00  0.00    -0.295 OA
ATOM     35  H   UNL     1      32.521 -23.932 -16.401  0.00  0.00    +0.241 HD
ENDBRANCH  31  34
ENDBRANCH  27  32
ENDBRANCH  21  24
ENDBRANCH  19  22
ENDBRANCH   1  19
TORSDOF 10
ENDMDL
MODEL 2
REMARK VINA RESULT:     -12.5      1.630      2.386
REMARK  Name = 9804992
REMARK  10 active torsions:
REMARK  status: ('A' for Active; 'I' for Inactive)
REMARK    1  A    between atoms: C_1  and  C_9
REMARK    2  A    between atoms: C_1  and  O_19
REMARK    3  A    between atoms: C_2  and  C_12
REMARK    4  A    between atoms: C_12  and  N_13
REMARK    5  A    between atoms: N_13  and  C_15
REMARK    6  A    between atoms: N_13  and  C_17
REMARK    7  A    between atoms: O_19  and  C_22
REMARK    8  A    between atoms: N_21  and  C_24
REMARK    9  A    between atoms: C_27  and  C_32
REMARK   10  A    between atoms: N_31  and  O_34
REMARK                            x       y       z     vdW  Elec       q    Type
REMARK                         _______ _______ _______ _____ _____    ______ ____
ROOT
ATOM      1  C   UNL     1      34.223 -15.904 -23.688  0.00  0.00    +0.237 C 
ENDROOT
BRANCH   1   9
ATOM      2  C   UNL     1      31.996 -10.001 -22.054  0.00  0.00    -0.043 C 
ATOM      3  C   UNL     1      33.152 -11.760 -23.273  0.00  0.00    -0.000 C 
ATOM      4  C   UNL     1      32.695 -12.707 -22.325  0.00  0.00    -0.000 C 
ATOM      5  C   UNL     1      32.793 -10.411 -23.122  0.00  0.00    -0.006 C 
ATOM      6  C   UNL     1      31.546 -10.933 -21.123  0.00  0.00    -0.006 C 
ATOM      7  C   UNL     1      31.893 -12.277 -21.256  0.00  0.00    -0.000 C 
ATOM      8  C   UNL     1      33.053 -14.056 -22.476  0.00  0.00    -0.001 C 
ATOM      9  C   UNL     1      33.852 -14.467 -23.545  0.00  0.00    +0.021 C 
ATOM     10  C   UNL     1      33.954 -12.190 -24.342  0.00  0.00    -0.000 C 
ATOM     11  C   UNL     1      34.300 -13.535 -24.476  0.00  0.00    -0.001 C 
BRANCH   2  12
ATOM     12  C   UNL     1      31.624  -8.563 -21.909  0.00  0.00    -0.050 C 
BRANCH  12  13
ATOM     13  N   UNL     1      32.795  -7.697 -21.764  0.00  0.00    +0.390 N 
ATOM     14  H   UNL     1      33.618  -8.208 -22.082  0.00  0.00    -0.079 HD
BRANCH  13  15
ATOM     15  C   UNL     1      32.648  -6.500 -22.591  0.00  0.00    -0.077 C 
ATOM     16  C   UNL     1      33.570  -6.548 -23.797  0.00  0.00    -0.025 C 
ENDBRANCH  13  15
BRANCH  13  17
ATOM     17  C   UNL     1      32.989  -7.332 -20.363  0.00  0.00    -0.077 C 
ATOM     18  C   UNL     1      31.967  -6.300 -19.917  0.00  0.00    -0.025 C 
ENDBRANCH  13  17
ENDBRANCH  12  13
ENDBRANCH   2  12
ENDBRANCH   1   9
BRANCH   1  19
ATOM     19  O   UNL     1      35.347 -16.186 -22.864  0.00  0.00    -0.429 OA
BRANCH  19  22
ATOM     20  O   UNL     1      34.935 -16.509 -20.638  0.00  0.00    -0.226 OA
ATOM     21  N   UNL     1      35.120 -18.297 -22.137  0.00  0.00    -0.250 N 
ATOM     22  C   UNL     1      35.115 -16.969 -21.759  0.00  0.00    +0.406 C 
ATOM     23  H   UNL     1      35.282 -18.474 -23.093  0.00  0.00    +0.158 HD
BRANCH  21  24
ATOM     24  C   UNL     1      34.921 -19.435 -21.322  0.00  0.00    +0.053 C 
ATOM     25  C   UNL     1      36.020 -20.145 -20.837  0.00  0.00    +0.015 C 
ATOM     26  C   UNL     1      33.628 -19.848 -21.004  0.00  0.00    +0.015 C 
ATOM     27  C   UNL     1      34.531 -21.682 -19.716  0.00  0.00    +0.055 C 
ATOM     28  C   UNL     1      35.825 -21.269 -20.034  0.00  0.00    +0.006 C 
ATOM     29  C   UNL     1      33.433 -20.972 -20.201  0.00  0.00    +0.006 C 
BRANCH  27  32
ATOM     30  O   UNL     1      33.904 -23.918 -19.365  0.00  0.00    -0.268 OA
ATOM     31  N   UNL     1      34.614 -22.723 -17.527  0.00  0.00    -0.193 N 
ATOM     32  C   UNL     1      34.328 -22.853 -18.879  0.00  0.00    +0.268 C 
ATOM     33  H   UNL     1      34.950 -21.877 -17.151  0.00  0.00    +0.183 HD
BRANCH  31  34
ATOM     34  O   UNL     1      34.404 -23.853 -16.723  0.00  0.00    -0.295 OA
ATOM     35  H   UNL     1      35.254 -24.280 -16.535  0.00  0.00    +0.241 HD
ENDBRANCH  31  34
ENDBRANCH  27  32
ENDBRANCH  21  24
ENDBRANCH  19  22
ENDBRANCH   1  19
TORSDOF 10
ENDMDL
MODEL 3
REMARK VINA RESULT:     -12.4      2.938     10.015
REMARK  Name = 9804992
REMARK  10 active torsions:
REMARK  status: ('A' for Active; 'I' for Inactive)
REMARK    1  A    between atoms: C_1  and  C_9
REMARK    2  A    between atoms: C_1  and  O_19
REMARK    3  A    between atoms: C_2  and  C_12
REMARK    4  A    between atoms: C_12  and  N_13
REMARK    5  A    between atoms: N_13  and  C_15
REMARK    6  A    between atoms: N_13  and  C_17
REMARK    7  A    between atoms: O_19  and  C_22
REMARK    8  A    between atoms: N_21  and  C_24
REMARK    9  A    between atoms: C_27  and  C_32
REMARK   10  A    between atoms: N_31  and  O_34
REMARK                            x       y       z     vdW  Elec       q    Type
REMARK                         _______ _______ _______ _____ _____    ______ ____
ROOT
ATOM      1  C   UNL     1      36.264 -17.622 -22.574  0.00  0.00    +0.237 C 
ENDROOT
BRANCH   1   9
ATOM      2  C   UNL     1      33.853 -22.419 -18.878  0.00  0.00    -0.043 C 
ATOM      3  C   UNL     1      35.453 -20.951 -19.975  0.00  0.00    -0.000 C 
ATOM      4  C   UNL     1      34.383 -20.244 -20.574  0.00  0.00    -0.000 C 
ATOM      5  C   UNL     1      35.171 -22.036 -19.129  0.00  0.00    -0.006 C 
ATOM      6  C   UNL     1      32.802 -21.723 -19.466  0.00  0.00    -0.006 C 
ATOM      7  C   UNL     1      33.063 -20.643 -20.309  0.00  0.00    -0.000 C 
ATOM      8  C   UNL     1      34.665 -19.159 -21.419  0.00  0.00    -0.001 C 
ATOM      9  C   UNL     1      35.984 -18.777 -21.672  0.00  0.00    +0.021 C 
ATOM     10  C   UNL     1      36.773 -20.553 -20.240  0.00  0.00    -0.000 C 
ATOM     11  C   UNL     1      37.035 -19.472 -21.083  0.00  0.00    -0.001 C 
BRANCH   2  12
ATOM     12  C   UNL     1      33.572 -23.574 -17.977  0.00  0.00    -0.050 C 
BRANCH  12  13
ATOM     13  N   UNL     1      33.316 -23.156 -16.598  0.00  0.00    +0.390 N 
ATOM     14  H   UNL     1      33.398 -22.141 -16.546  0.00  0.00    -0.079 HD
BRANCH  13  15
ATOM     15  C   UNL     1      31.960 -23.530 -16.196  0.00  0.00    -0.077 C 
ATOM     16  C   UNL     1      31.556 -22.830 -14.910  0.00  0.00    -0.025 C 
ENDBRANCH  13  15
BRANCH  13  17
ATOM     17  C   UNL     1      34.300 -23.747 -15.694  0.00  0.00    -0.077 C 
ATOM     18  C   UNL     1      35.448 -22.788 -15.429  0.00  0.00    -0.025 C 
ENDBRANCH  13  17
ENDBRANCH  12  13
ENDBRANCH   2  12
ENDBRANCH   1   9
BRANCH   1  19
ATOM     19  O   UNL     1      35.435 -17.709 -23.725  0.00  0.00    -0.429 OA
BRANCH  19  22
ATOM     20  O   UNL     1      33.992 -16.488 -25.012  0.00  0.00    -0.226 OA
ATOM     21  N   UNL     1      34.577 -15.832 -22.843  0.00  0.00    -0.250 N 
ATOM     22  C   UNL     1      34.600 -16.644 -23.960  0.00  0.00    +0.406 C 
ATOM     23  H   UNL     1      35.136 -16.125 -22.085  0.00  0.00    +0.158 HD
BRANCH  21  24
ATOM     24  C   UNL     1      33.853 -14.634 -22.651  0.00  0.00    +0.053 C 
ATOM     25  C   UNL     1      32.975 -14.515 -21.572  0.00  0.00    +0.015 C 
ATOM     26  C   UNL     1      34.014 -13.571 -23.540  0.00  0.00    +0.015 C 
ATOM     27  C   UNL     1      32.420 -12.270 -22.273  0.00  0.00    +0.055 C 
ATOM     28  C   UNL     1      32.259 -13.333 -21.384  0.00  0.00    +0.006 C 
ATOM     29  C   UNL     1      33.297 -12.390 -23.351  0.00  0.00    +0.006 C 
BRANCH  27  32
ATOM     30  O   UNL     1      30.580 -11.045 -21.479  0.00  0.00    -0.268 OA
ATOM     31  N   UNL     1      32.224  -9.874 -22.590  0.00  0.00    -0.193 N 
ATOM     32  C   UNL     1      31.673 -11.039 -22.076  0.00  0.00    +0.268 C 
ATOM     33  H   UNL     1      33.090  -9.878 -23.061  0.00  0.00    +0.183 HD
BRANCH  31  34
ATOM     34  O   UNL     1      31.493  -8.692 -22.408  0.00  0.00    -0.295 OA
ATOM     35  H   UNL     1      32.103  -7.949 -22.280  0.00  0.00    +0.241 HD
ENDBRANCH  31  34
ENDBRANCH  27  32
ENDBRANCH  21  24
ENDBRANCH  19  22
ENDBRANCH   1  19
TORSDOF 10
ENDMDL
MODEL 4
REMARK VINA RESULT:     -12.4      1.325      1.628
REMARK  Name = 9804992
REMARK  10 active torsions:
REMARK  status: ('A' for Active; 'I' for Inactive)
REMARK    1  A    between atoms: C_1  and  C_9
REMARK    2  A    between atoms: C_1  and  O_19
REMARK    3  A    between atoms: C_2  and  C_12
REMARK    4  A    between atoms: C_12  and  N_13
REMARK    5  A    between atoms: N_13  and  C_15
REMARK    6  A    between atoms: N_13  and  C_17
REMARK    7  A    between atoms: O_19  and  C_22
REMARK    8  A    between atoms: N_21  and  C_24
REMARK    9  A    between atoms: C_27  and  C_32
REMARK   10  A    between atoms: N_31  and  O_34
REMARK                            x       y       z     vdW  Elec       q    Type
REMARK                         _______ _______ _______ _____ _____    ______ ____
ROOT
ATOM      1  C   UNL     1      35.035 -17.084 -25.103  0.00  0.00    +0.237 C 
ENDROOT
BRANCH   1   9
ATOM      2  C   UNL     1      32.055 -12.298 -21.833  0.00  0.00    -0.043 C 
ATOM      3  C   UNL     1      32.932 -13.611 -23.682  0.00  0.00    -0.000 C 
ATOM      4  C   UNL     1      33.426 -14.565 -22.761  0.00  0.00    -0.000 C 
ATOM      5  C   UNL     1      32.249 -12.483 -23.202  0.00  0.00    -0.006 C 
ATOM      6  C   UNL     1      32.540 -13.236 -20.927  0.00  0.00    -0.006 C 
ATOM      7  C   UNL     1      33.221 -14.363 -21.386  0.00  0.00    -0.000 C 
ATOM      8  C   UNL     1      34.110 -15.694 -23.241  0.00  0.00    -0.001 C 
ATOM      9  C   UNL     1      34.306 -15.879 -24.611  0.00  0.00    +0.021 C 
ATOM     10  C   UNL     1      33.138 -13.814 -25.056  0.00  0.00    -0.000 C 
ATOM     11  C   UNL     1      33.819 -14.941 -25.516  0.00  0.00    -0.001 C 
BRANCH   2  12
ATOM     12  C   UNL     1      31.326 -11.093 -21.340  0.00  0.00    -0.050 C 
BRANCH  12  13
ATOM     13  N   UNL     1      32.142  -9.880 -21.412  0.00  0.00    +0.390 N 
ATOM     14  H   UNL     1      33.071 -10.133 -21.746  0.00  0.00    -0.079 HD
BRANCH  13  15
ATOM     15  C   UNL     1      31.556  -8.927 -22.353  0.00  0.00    -0.077 C 
ATOM     16  C   UNL     1      31.953  -7.502 -22.011  0.00  0.00    -0.025 C 
ENDBRANCH  13  15
BRANCH  13  17
ATOM     17  C   UNL     1      32.275  -9.276 -20.088  0.00  0.00    -0.077 C 
ATOM     18  C   UNL     1      31.521 -10.077 -19.040  0.00  0.00    -0.025 C 
ENDBRANCH  13  17
ENDBRANCH  12  13
ENDBRANCH   2  12
ENDBRANCH   1   9
BRANCH   1  19
ATOM     19  O   UNL     1      34.192 -18.224 -24.993  0.00  0.00    -0.429 OA
BRANCH  19  22
ATOM     20  O   UNL     1      35.197 -20.256 -24.693  0.00  0.00    -0.226 OA
ATOM     21  N   UNL     1      34.429 -18.974 -22.891  0.00  0.00    -0.250 N 
ATOM     22  C   UNL     1      34.662 -19.259 -24.222  0.00  0.00    +0.406 C 
ATOM     23  H   UNL     1      33.984 -18.114 -22.705  0.00  0.00    +0.158 HD
BRANCH  21  24
ATOM     24  C   UNL     1      34.751 -19.761 -21.762  0.00  0.00    +0.053 C 
ATOM     25  C   UNL     1      33.733 -20.349 -21.010  0.00  0.00    +0.015 C 
ATOM     26  C   UNL     1      36.084 -19.949 -21.399  0.00  0.00    +0.015 C 
ATOM     27  C   UNL     1      35.385 -21.313 -19.532  0.00  0.00    +0.055 C 
ATOM     28  C   UNL     1      34.050 -21.125 -19.895  0.00  0.00    +0.006 C 
ATOM     29  C   UNL     1      36.401 -20.725 -20.285  0.00  0.00    +0.006 C 
BRANCH  27  32
ATOM     30  O   UNL     1      34.883 -22.914 -17.889  0.00  0.00    -0.268 OA
ATOM     31  N   UNL     1      36.980 -21.961 -17.825  0.00  0.00    -0.193 N 
ATOM     32  C   UNL     1      35.715 -22.122 -18.370  0.00  0.00    +0.268 C 
ATOM     33  H   UNL     1      37.632 -21.332 -18.212  0.00  0.00    +0.183 HD
BRANCH  31  34
ATOM     34  O   UNL     1      37.287 -22.734 -16.696  0.00  0.00    -0.295 OA
ATOM     35  H   UNL     1      36.485 -22.869 -16.167  0.00  0.00    +0.241 HD
ENDBRANCH  31  34
ENDBRANCH  27  32
ENDBRANCH  21  24
ENDBRANCH  19  22
ENDBRANCH   1  19
TORSDOF 10
ENDMDL
MODEL 5
REMARK VINA RESULT:     -12.2      4.264     11.569
REMARK  Name = 9804992
REMARK  10 active torsions:
REMARK  status: ('A' for Active; 'I' for Inactive)
REMARK    1  A    between atoms: C_1  and  C_9
REMARK    2  A    between atoms: C_1  and  O_19
REMARK    3  A    between atoms: C_2  and  C_12
REMARK    4  A    between atoms: C_12  and  N_13
REMARK    5  A    between atoms: N_13  and  C_15
REMARK    6  A    between atoms: N_13  and  C_17
REMARK    7  A    between atoms: O_19  and  C_22
REMARK    8  A    between atoms: N_21  and  C_24
REMARK    9  A    between atoms: C_27  and  C_32
REMARK   10  A    between atoms: N_31  and  O_34
REMARK                            x       y       z     vdW  Elec       q    Type
REMARK                         _______ _______ _______ _____ _____    ______ ____
ROOT
ATOM      1  C   UNL     1      35.371 -20.871 -20.574  0.00  0.00    +0.237 C 
ENDROOT
BRANCH   1   9
ATOM      2  C   UNL     1      36.068 -23.748 -14.767  0.00  0.00    -0.043 C 
ATOM      3  C   UNL     1      35.056 -22.992 -16.846  0.00  0.00    -0.000 C 
ATOM      4  C   UNL     1      36.273 -22.364 -17.202  0.00  0.00    -0.000 C 
ATOM      5  C   UNL     1      34.969 -23.680 -15.625  0.00  0.00    -0.006 C 
ATOM      6  C   UNL     1      37.265 -23.132 -15.118  0.00  0.00    -0.006 C 
ATOM      7  C   UNL     1      37.369 -22.444 -16.327  0.00  0.00    -0.000 C 
ATOM      8  C   UNL     1      36.360 -21.676 -18.423  0.00  0.00    -0.001 C 
ATOM      9  C   UNL     1      35.261 -21.607 -19.281  0.00  0.00    +0.021 C 
ATOM     10  C   UNL     1      33.961 -22.912 -17.721  0.00  0.00    -0.000 C 
ATOM     11  C   UNL     1      34.064 -22.224 -18.931  0.00  0.00    -0.001 C 
BRANCH   2  12
ATOM     12  C   UNL     1      35.958 -24.483 -13.474  0.00  0.00    -0.050 C 
BRANCH  12  13
ATOM     13  N   UNL     1      37.128 -24.282 -12.618  0.00  0.00    +0.390 N 
ATOM     14  H   UNL     1      37.791 -23.684 -13.110  0.00  0.00    -0.079 HD
BRANCH  13  15
ATOM     15  C   UNL     1      36.741 -23.616 -11.375  0.00  0.00    -0.077 C 
ATOM     16  C   UNL     1      35.857 -24.512 -10.524  0.00  0.00    -0.025 C 
ENDBRANCH  13  15
BRANCH  13  17
ATOM     17  C   UNL     1      37.777 -25.560 -12.334  0.00  0.00    -0.077 C 
ATOM     18  C   UNL     1      38.958 -25.794 -13.262  0.00  0.00    -0.025 C 
ENDBRANCH  13  17
ENDBRANCH  12  13
ENDBRANCH   2  12
ENDBRANCH   1   9
BRANCH   1  19
ATOM     19  O   UNL     1      36.557 -20.087 -20.572  0.00  0.00    -0.429 OA
BRANCH  19  22
ATOM     20  O   UNL     1      37.715 -18.667 -21.941  0.00  0.00    -0.226 OA
ATOM     21  N   UNL     1      35.375 -18.751 -21.934  0.00  0.00    -0.250 N 
ATOM     22  C   UNL     1      36.647 -19.111 -21.535  0.00  0.00    +0.406 C 
ATOM     23  H   UNL     1      34.633 -19.224 -21.490  0.00  0.00    +0.158 HD
BRANCH  21  24
ATOM     24  C   UNL     1      35.006 -17.788 -22.900  0.00  0.00    +0.053 C 
ATOM     25  C   UNL     1      34.748 -18.182 -24.213  0.00  0.00    +0.015 C 
ATOM     26  C   UNL     1      34.900 -16.444 -22.541  0.00  0.00    +0.015 C 
ATOM     27  C   UNL     1      34.278 -15.887 -24.808  0.00  0.00    +0.055 C 
ATOM     28  C   UNL     1      34.384 -17.231 -25.168  0.00  0.00    +0.006 C 
ATOM     29  C   UNL     1      34.536 -15.494 -23.495  0.00  0.00    +0.006 C 
BRANCH  27  32
ATOM     30  O   UNL     1      33.797 -15.208 -27.004  0.00  0.00    -0.268 OA
ATOM     31  N   UNL     1      33.673 -13.604 -25.355  0.00  0.00    -0.193 N 
ATOM     32  C   UNL     1      33.899 -14.897 -25.803  0.00  0.00    +0.268 C 
ATOM     33  H   UNL     1      33.756 -13.366 -24.402  0.00  0.00    +0.183 HD
BRANCH  31  34
ATOM     34  O   UNL     1      33.320 -12.651 -26.321  0.00  0.00    -0.295 OA
ATOM     35  H   UNL     1      34.024 -12.587 -26.986  0.00  0.00    +0.241 HD
ENDBRANCH  31  34
ENDBRANCH  27  32
ENDBRANCH  21  24
ENDBRANCH  19  22
ENDBRANCH   1  19
TORSDOF 10
ENDMDL
MODEL 6
REMARK VINA RESULT:     -12.1      4.158     11.287
REMARK  Name = 9804992
REMARK  10 active torsions:
REMARK  status: ('A' for Active; 'I' for Inactive)
REMARK    1  A    between atoms: C_1  and  C_9
REMARK    2  A    between atoms: C_1  and  O_19
REMARK    3  A    between atoms: C_2  and  C_12
REMARK    4  A    between atoms: C_12  and  N_13
REMARK    5  A    between atoms: N_13  and  C_15
REMARK    6  A    between atoms: N_13  and  C_17
REMARK    7  A    between atoms: O_19  and  C_22
REMARK    8  A    between atoms: N_21  and  C_24
REMARK    9  A    between atoms: C_27  and  C_32
REMARK   10  A    between atoms: N_31  and  O_34
REMARK                            x       y       z     vdW  Elec       q    Type
REMARK                         _______ _______ _______ _____ _____    ______ ____
ROOT
ATOM      1  C   UNL     1      35.431 -20.400 -21.222  0.00  0.00    +0.237 C 
ENDROOT
BRANCH   1   9
ATOM      2  C   UNL     1      36.258 -23.382 -15.485  0.00  0.00    -0.043 C 
ATOM      3  C   UNL     1      35.202 -22.595 -17.530  0.00  0.00    -0.000 C 
ATOM      4  C   UNL     1      36.408 -21.950 -17.896  0.00  0.00    -0.000 C 
ATOM      5  C   UNL     1      35.144 -23.307 -16.321  0.00  0.00    -0.006 C 
ATOM      6  C   UNL     1      37.443 -22.748 -15.846  0.00  0.00    -0.006 C 
ATOM      7  C   UNL     1      37.519 -22.036 -17.042  0.00  0.00    -0.000 C 
ATOM      8  C   UNL     1      36.466 -21.238 -19.105  0.00  0.00    -0.001 C 
ATOM      9  C   UNL     1      35.351 -21.162 -19.942  0.00  0.00    +0.021 C 
ATOM     10  C   UNL     1      34.090 -22.509 -18.384  0.00  0.00    -0.000 C 
ATOM     11  C   UNL     1      34.166 -21.797 -19.582  0.00  0.00    -0.001 C 
BRANCH   2  12
ATOM     12  C   UNL     1      36.179 -24.143 -14.204  0.00  0.00    -0.050 C 
BRANCH  12  13
ATOM     13  N   UNL     1      37.405 -24.032 -13.414  0.00  0.00    +0.390 N 
ATOM     14  H   UNL     1      38.055 -23.420 -13.906  0.00  0.00    -0.079 HD
BRANCH  13  15
ATOM     15  C   UNL     1      37.116 -23.443 -12.107  0.00  0.00    -0.077 C 
ATOM     16  C   UNL     1      35.826 -23.996 -11.527  0.00  0.00    -0.025 C 
ENDBRANCH  13  15
BRANCH  13  17
ATOM     17  C   UNL     1      38.031 -25.343 -13.257  0.00  0.00    -0.077 C 
ATOM     18  C   UNL     1      39.476 -25.321 -13.726  0.00  0.00    -0.025 C 
ENDBRANCH  13  17
ENDBRANCH  12  13
ENDBRANCH   2  12
ENDBRANCH   1   9
BRANCH   1  19
ATOM     19  O   UNL     1      35.856 -19.070 -20.954  0.00  0.00    -0.429 OA
BRANCH  19  22
ATOM     20  O   UNL     1      35.189 -18.150 -22.939  0.00  0.00    -0.226 OA
ATOM     21  N   UNL     1      34.872 -17.054 -20.895  0.00  0.00    -0.250 N 
ATOM     22  C   UNL     1      35.288 -18.081 -21.720  0.00  0.00    +0.406 C 
ATOM     23  H   UNL     1      35.038 -17.180 -19.932  0.00  0.00    +0.158 HD
BRANCH  21  24
ATOM     24  C   UNL     1      34.238 -15.845 -21.262  0.00  0.00    +0.053 C 
ATOM     25  C   UNL     1      34.661 -15.153 -22.398  0.00  0.00    +0.015 C 
ATOM     26  C   UNL     1      33.192 -15.343 -20.488  0.00  0.00    +0.015 C 
ATOM     27  C   UNL     1      32.989 -13.458 -21.984  0.00  0.00    +0.055 C 
ATOM     28  C   UNL     1      34.036 -13.960 -22.759  0.00  0.00    +0.006 C 
ATOM     29  C   UNL     1      32.568 -14.150 -20.849  0.00  0.00    +0.006 C 
BRANCH  27  32
ATOM     30  O   UNL     1      32.900 -11.408 -23.127  0.00  0.00    -0.268 OA
ATOM     31  N   UNL     1      31.084 -11.966 -21.823  0.00  0.00    -0.193 N 
ATOM     32  C   UNL     1      32.339 -12.213 -22.361  0.00  0.00    +0.268 C 
ATOM     33  H   UNL     1      30.647 -12.609 -21.218  0.00  0.00    +0.183 HD
BRANCH  31  34
ATOM     34  O   UNL     1      30.468 -10.758 -22.180  0.00  0.00    -0.295 OA
ATOM     35  H   UNL     1      30.328 -10.219 -21.387  0.00  0.00    +0.241 HD
ENDBRANCH  31  34
ENDBRANCH  27  32
ENDBRANCH  21  24
ENDBRANCH  19  22
ENDBRANCH   1  19
TORSDOF 10
ENDMDL
MODEL 7
REMARK VINA RESULT:     -12.0      1.885      2.320
REMARK  Name = 9804992
REMARK  10 active torsions:
REMARK  status: ('A' for Active; 'I' for Inactive)
REMARK    1  A    between atoms: C_1  and  C_9
REMARK    2  A    between atoms: C_1  and  O_19
REMARK    3  A    between atoms: C_2  and  C_12
REMARK    4  A    between atoms: C_12  and  N_13
REMARK    5  A    between atoms: N_13  and  C_15
REMARK    6  A    between atoms: N_13  and  C_17
REMARK    7  A    between atoms: O_19  and  C_22
REMARK    8  A    between atoms: N_21  and  C_24
REMARK    9  A    between atoms: C_27  and  C_32
REMARK   10  A    between atoms: N_31  and  O_34
REMARK                            x       y       z     vdW  Elec       q    Type
REMARK                         _______ _______ _______ _____ _____    ______ ____
ROOT
ATOM      1  C   UNL     1      36.002 -18.269 -22.340  0.00  0.00    +0.237 C 
ENDROOT
BRANCH   1   9
ATOM      2  C   UNL     1      32.378 -12.865 -21.963  0.00  0.00    -0.043 C 
ATOM      3  C   UNL     1      33.819 -14.602 -22.870  0.00  0.00    -0.000 C 
ATOM      4  C   UNL     1      33.803 -15.260 -21.617  0.00  0.00    -0.000 C 
ATOM      5  C   UNL     1      33.101 -13.405 -23.026  0.00  0.00    -0.006 C 
ATOM      6  C   UNL     1      32.362 -13.513 -20.731  0.00  0.00    -0.006 C 
ATOM      7  C   UNL     1      33.069 -14.702 -20.558  0.00  0.00    -0.000 C 
ATOM      8  C   UNL     1      34.521 -16.457 -21.461  0.00  0.00    -0.001 C 
ATOM      9  C   UNL     1      35.245 -16.997 -22.525  0.00  0.00    +0.021 C 
ATOM     10  C   UNL     1      34.553 -15.160 -23.929  0.00  0.00    -0.000 C 
ATOM     11  C   UNL     1      35.261 -16.350 -23.756  0.00  0.00    -0.001 C 
BRANCH   2  12
ATOM     12  C   UNL     1      31.621 -11.592 -22.146  0.00  0.00    -0.050 C 
BRANCH  12  13
ATOM     13  N   UNL     1      32.360 -10.429 -21.655  0.00  0.00    +0.390 N 
ATOM     14  H   UNL     1      33.230 -10.751 -21.232  0.00  0.00    -0.079 HD
BRANCH  13  15
ATOM     15  C   UNL     1      32.688  -9.530 -22.760  0.00  0.00    -0.077 C 
ATOM     16  C   UNL     1      31.457  -8.788 -23.249  0.00  0.00    -0.025 C 
ENDBRANCH  13  15
BRANCH  13  17
ATOM     17  C   UNL     1      31.584  -9.726 -20.635  0.00  0.00    -0.077 C 
ATOM     18  C   UNL     1      31.954 -10.198 -19.240  0.00  0.00    -0.025 C 
ENDBRANCH  13  17
ENDBRANCH  12  13
ENDBRANCH   2  12
ENDBRANCH   1   9
BRANCH   1  19
ATOM     19  O   UNL     1      35.117 -19.371 -22.487  0.00  0.00    -0.429 OA
BRANCH  19  22
ATOM     20  O   UNL     1      33.467 -19.749 -20.949  0.00  0.00    -0.226 OA
ATOM     21  N   UNL     1      35.615 -20.648 -20.709  0.00  0.00    -0.250 N 
ATOM     22  C   UNL     1      34.620 -19.916 -21.327  0.00  0.00    +0.406 C 
ATOM     23  H   UNL     1      36.486 -20.667 -21.170  0.00  0.00    +0.158 HD
BRANCH  21  24
ATOM     24  C   UNL     1      35.539 -21.373 -19.498  0.00  0.00    +0.053 C 
ATOM     25  C   UNL     1      34.357 -22.028 -19.152  0.00  0.00    +0.015 C 
ATOM     26  C   UNL     1      36.644 -21.432 -18.650  0.00  0.00    +0.015 C 
ATOM     27  C   UNL     1      35.387 -22.801 -17.107  0.00  0.00    +0.055 C 
ATOM     28  C   UNL     1      34.280 -22.742 -17.956  0.00  0.00    +0.006 C 
ATOM     29  C   UNL     1      36.568 -22.146 -17.454  0.00  0.00    +0.006 C 
BRANCH  27  32
ATOM     30  O   UNL     1      35.713 -24.721 -15.793  0.00  0.00    -0.268 OA
ATOM     31  N   UNL     1      34.750 -22.895 -14.769  0.00  0.00    -0.193 N 
ATOM     32  C   UNL     1      35.306 -23.546 -15.861  0.00  0.00    +0.268 C 
ATOM     33  H   UNL     1      34.431 -21.965 -14.831  0.00  0.00    +0.183 HD
BRANCH  31  34
ATOM     34  O   UNL     1      34.664 -23.623 -13.574  0.00  0.00    -0.295 OA
ATOM     35  H   UNL     1      34.173 -24.445 -13.729  0.00  0.00    +0.241 HD
ENDBRANCH  31  34
ENDBRANCH  27  32
ENDBRANCH  21  24
ENDBRANCH  19  22
ENDBRANCH   1  19
TORSDOF 10
ENDMDL
MODEL 8
REMARK VINA RESULT:     -11.8      5.050     11.941
REMARK  Name = 9804992
REMARK  10 active torsions:
REMARK  status: ('A' for Active; 'I' for Inactive)
REMARK    1  A    between atoms: C_1  and  C_9
REMARK    2  A    between atoms: C_1  and  O_19
REMARK    3  A    between atoms: C_2  and  C_12
REMARK    4  A    between atoms: C_12  and  N_13
REMARK    5  A    between atoms: N_13  and  C_15
REMARK    6  A    between atoms: N_13  and  C_17
REMARK    7  A    between atoms: O_19  and  C_22
REMARK    8  A    between atoms: N_21  and  C_24
REMARK    9  A    between atoms: C_27  and  C_32
REMARK   10  A    between atoms: N_31  and  O_34
REMARK                            x       y       z     vdW  Elec       q    Type
REMARK                         _______ _______ _______ _____ _____    ______ ____
ROOT
ATOM      1  C   UNL     1      31.371 -10.742 -21.992  0.00  0.00    +0.237 C 
ENDROOT
BRANCH   1   9
ATOM      2  C   UNL     1      34.988 -16.142 -22.482  0.00  0.00    -0.043 C 
ATOM      3  C   UNL     1      33.525 -14.438 -21.549  0.00  0.00    -0.000 C 
ATOM      4  C   UNL     1      33.581 -13.729 -22.772  0.00  0.00    -0.000 C 
ATOM      5  C   UNL     1      34.234 -15.643 -21.420  0.00  0.00    -0.006 C 
ATOM      6  C   UNL     1      35.043 -15.444 -23.685  0.00  0.00    -0.006 C 
ATOM      7  C   UNL     1      34.346 -14.246 -23.831  0.00  0.00    -0.000 C 
ATOM      8  C   UNL     1      32.872 -12.524 -22.901  0.00  0.00    -0.001 C 
ATOM      9  C   UNL     1      32.118 -12.024 -21.838  0.00  0.00    +0.021 C 
ATOM     10  C   UNL     1      32.760 -13.921 -20.490  0.00  0.00    -0.000 C 
ATOM     11  C   UNL     1      32.062 -12.722 -20.635  0.00  0.00    -0.001 C 
BRANCH   2  12
ATOM     12  C   UNL     1      35.736 -17.424 -22.328  0.00  0.00    -0.050 C 
BRANCH  12  13
ATOM     13  N   UNL     1      34.861 -18.593 -22.421  0.00  0.00    +0.390 N 
ATOM     14  H   UNL     1      33.893 -18.275 -22.431  0.00  0.00    -0.079 HD
BRANCH  13  15
ATOM     15  C   UNL     1      35.120 -19.325 -23.660  0.00  0.00    -0.077 C 
ATOM     16  C   UNL     1      34.189 -18.870 -24.771  0.00  0.00    -0.025 C 
ENDBRANCH  13  15
BRANCH  13  17
ATOM     17  C   UNL     1      35.050 -19.464 -21.263  0.00  0.00    -0.077 C 
ATOM     18  C   UNL     1      33.753 -20.157 -20.879  0.00  0.00    -0.025 C 
ENDBRANCH  13  17
ENDBRANCH  12  13
ENDBRANCH   2  12
ENDBRANCH   1   9
BRANCH   1  19
ATOM     19  O   UNL     1      31.800  -9.822 -20.996  0.00  0.00    -0.429 OA
BRANCH  19  22
ATOM     20  O   UNL     1      33.162  -8.011 -20.692  0.00  0.00    -0.226 OA
ATOM     21  N   UNL     1      32.333  -8.599 -22.801  0.00  0.00    -0.250 N 
ATOM     22  C   UNL     1      32.502  -8.727 -21.436  0.00  0.00    +0.406 C 
ATOM     23  H   UNL     1      31.763  -9.278 -23.230  0.00  0.00    +0.158 HD
BRANCH  21  24
ATOM     24  C   UNL     1      32.877  -7.615 -23.657  0.00  0.00    +0.053 C 
ATOM     25  C   UNL     1      32.039  -6.675 -24.258  0.00  0.00    +0.015 C 
ATOM     26  C   UNL     1      34.249  -7.585 -23.903  0.00  0.00    +0.015 C 
ATOM     27  C   UNL     1      33.949  -5.675 -25.351  0.00  0.00    +0.055 C 
ATOM     28  C   UNL     1      32.575  -5.704 -25.105  0.00  0.00    +0.006 C 
ATOM     29  C   UNL     1      34.785  -6.615 -24.750  0.00  0.00    +0.006 C 
BRANCH  27  32
ATOM     30  O   UNL     1      33.887  -3.609 -26.466  0.00  0.00    -0.268 OA
ATOM     31  N   UNL     1      35.742  -4.933 -26.805  0.00  0.00    -0.193 N 
ATOM     32  C   UNL     1      34.507  -4.663 -26.233  0.00  0.00    +0.268 C 
ATOM     33  H   UNL     1      36.226  -5.770 -26.615  0.00  0.00    +0.183 HD
BRANCH  31  34
ATOM     34  O   UNL     1      36.269  -3.959 -27.665  0.00  0.00    -0.295 OA
ATOM     35  H   UNL     1      37.162  -3.719 -27.374  0.00  0.00    +0.241 HD
ENDBRANCH  31  34
ENDBRANCH  27  32
ENDBRANCH  21  24
ENDBRANCH  19  22
ENDBRANCH   1  19
TORSDOF 10
ENDMDL
MODEL 9
REMARK VINA RESULT:     -11.7      3.645      9.795
REMARK  Name = 9804992
REMARK  10 active torsions:
REMARK  status: ('A' for Active; 'I' for Inactive)
REMARK    1  A    between atoms: C_1  and  C_9
REMARK    2  A    between atoms: C_1  and  O_19
REMARK    3  A    between atoms: C_2  and  C_12
REMARK    4  A    between atoms: C_12  and  N_13
REMARK    5  A    between atoms: N_13  and  C_15
REMARK    6  A    between atoms: N_13  and  C_17
REMARK    7  A    between atoms: O_19  and  C_22
REMARK    8  A    between atoms: N_21  and  C_24
REMARK    9  A    between atoms: C_27  and  C_32
REMARK   10  A    between atoms: N_31  and  O_34
REMARK                            x       y       z     vdW  Elec       q    Type
REMARK                         _______ _______ _______ _____ _____    ______ ____
ROOT
ATOM      1  C   UNL     1      33.829 -15.222 -25.776  0.00  0.00    +0.237 C 
ENDROOT
BRANCH   1   9
ATOM      2  C   UNL     1      35.822 -19.606 -21.383  0.00  0.00    -0.043 C 
ATOM      3  C   UNL     1      34.916 -18.662 -23.433  0.00  0.00    -0.000 C 
ATOM      4  C   UNL     1      35.113 -17.360 -22.913  0.00  0.00    -0.000 C 
ATOM      5  C   UNL     1      35.275 -19.774 -22.655  0.00  0.00    -0.006 C 
ATOM      6  C   UNL     1      36.016 -18.326 -20.872  0.00  0.00    -0.006 C 
ATOM      7  C   UNL     1      35.665 -17.210 -21.630  0.00  0.00    -0.000 C 
ATOM      8  C   UNL     1      34.753 -16.248 -23.691  0.00  0.00    -0.001 C 
ATOM      9  C   UNL     1      34.206 -16.416 -24.964  0.00  0.00    +0.021 C 
ATOM     10  C   UNL     1      34.364 -18.812 -24.716  0.00  0.00    -0.000 C 
ATOM     11  C   UNL     1      34.012 -17.695 -25.475  0.00  0.00    -0.001 C 
BRANCH   2  12
ATOM     12  C   UNL     1      36.198 -20.799 -20.570  0.00  0.00    -0.050 C 
BRANCH  12  13
ATOM     13  N   UNL     1      35.331 -20.974 -19.404  0.00  0.00    +0.390 N 
ATOM     14  H   UNL     1      35.304 -20.097 -18.884  0.00  0.00    -0.079 HD
BRANCH  13  15
ATOM     15  C   UNL     1      33.971 -21.303 -19.826  0.00  0.00    -0.077 C 
ATOM     16  C   UNL     1      33.349 -22.344 -18.911  0.00  0.00    -0.025 C 
ENDBRANCH  13  15
BRANCH  13  17
ATOM     17  C   UNL     1      35.862 -22.016 -18.527  0.00  0.00    -0.077 C 
ATOM     18  C   UNL     1      37.037 -21.502 -17.712  0.00  0.00    -0.025 C 
ENDBRANCH  13  17
ENDBRANCH  12  13
ENDBRANCH   2  12
ENDBRANCH   1   9
BRANCH   1  19
ATOM     19  O   UNL     1      32.791 -14.510 -25.115  0.00  0.00    -0.429 OA
BRANCH  19  22
ATOM     20  O   UNL     1      34.120 -12.671 -24.831  0.00  0.00    -0.226 OA
ATOM     21  N   UNL     1      32.264 -13.084 -23.464  0.00  0.00    -0.250 N 
ATOM     22  C   UNL     1      33.153 -13.342 -24.490  0.00  0.00    +0.406 C 
ATOM     23  H   UNL     1      31.543 -13.743 -23.342  0.00  0.00    +0.158 HD
BRANCH  21  24
ATOM     24  C   UNL     1      32.262 -11.990 -22.568  0.00  0.00    +0.053 C 
ATOM     25  C   UNL     1      32.621 -10.719 -23.019  0.00  0.00    +0.015 C 
ATOM     26  C   UNL     1      31.903 -12.182 -21.234  0.00  0.00    +0.015 C 
ATOM     27  C   UNL     1      32.261  -9.833 -20.800  0.00  0.00    +0.055 C 
ATOM     28  C   UNL     1      32.620  -9.641 -22.135  0.00  0.00    +0.006 C 
ATOM     29  C   UNL     1      31.903 -11.103 -20.350  0.00  0.00    +0.006 C 
BRANCH  27  32
ATOM     30  O   UNL     1      31.538  -8.715 -18.865  0.00  0.00    -0.268 OA
ATOM     31  N   UNL     1      33.085  -7.636 -20.188  0.00  0.00    -0.193 N 
ATOM     32  C   UNL     1      32.261  -8.708 -19.879  0.00  0.00    +0.268 C 
ATOM     33  H   UNL     1      33.654  -7.639 -20.993  0.00  0.00    +0.183 HD
BRANCH  31  34
ATOM     34  O   UNL     1      33.071  -6.549 -19.303  0.00  0.00    -0.295 OA
ATOM     35  H   UNL     1      33.922  -6.496 -18.840  0.00  0.00    +0.241 HD
ENDBRANCH  31  34
ENDBRANCH  27  32
ENDBRANCH  21  24
ENDBRANCH  19  22
ENDBRANCH   1  19
TORSDOF 10
ENDMDL
