MODEL 1
REMARK VINA RESULT:     -15.4      0.000      0.000
REMARK  Name = 25145656
REMARK  4 active torsions:
REMARK  status: ('A' for Active; 'I' for Inactive)
REMARK    1  A    between atoms: C_5  and  C_22
REMARK    2  A    between atoms: C_8  and  C_11
REMARK    3  A    between atoms: C_14  and  C_19
REMARK    4  A    between atoms: C_22  and  C_24
REMARK                            x       y       z     vdW  Elec       q    Type
REMARK                         _______ _______ _______ _____ _____    ______ ____
ROOT
ATOM      1  N   UNL     1      34.583 -16.424 -24.042  0.00  0.00    -0.134 N 
ATOM      2  N   UNL     1      34.294 -15.247 -23.443  0.00  0.00    -0.168 NA
ATOM      3  N   UNL     1      34.681 -18.014 -25.586  0.00  0.00    -0.178 NA
ATOM      4  N   UNL     1      33.488 -15.971 -26.097  0.00  0.00    -0.200 NA
ATOM      5  C   UNL     1      35.298 -17.450 -23.487  0.00  0.00    +0.086 C 
ATOM      6  C   UNL     1      34.222 -16.804 -25.320  0.00  0.00    +0.114 C 
ATOM      7  C   UNL     1      35.346 -18.418 -24.458  0.00  0.00    +0.124 C 
ATOM      8  C   UNL     1      33.610 -14.426 -24.181  0.00  0.00    +0.103 C 
ATOM      9  C   UNL     1      33.179 -14.832 -25.569  0.00  0.00    +0.184 C 
ENDROOT
BRANCH   8  11
ATOM     10  F   UNL     1      31.020 -11.620 -21.185  0.00  0.00    -0.204 F 
ATOM     11  C   UNL     1      33.240 -13.089 -23.660  0.00  0.00    +0.019 C 
ATOM     12  C   UNL     1      32.286 -12.976 -22.649  0.00  0.00    +0.031 C 
ATOM     13  C   UNL     1      33.845 -11.945 -24.180  0.00  0.00    +0.002 C 
ATOM     14  C   UNL     1      32.543 -10.573 -22.677  0.00  0.00    +0.081 C 
ATOM     15  C   UNL     1      31.938 -11.718 -22.158  0.00  0.00    +0.144 C 
ATOM     16  C   UNL     1      33.496 -10.688 -23.689  0.00  0.00    +0.007 C 
BRANCH  14  19
ATOM     17  O   UNL     1      32.447  -8.943 -20.994  0.00  0.00    -0.270 OA
ATOM     18  N   UNL     1      31.558  -8.382 -23.060  0.00  0.00    -0.299 N 
ATOM     19  C   UNL     1      32.183  -9.260 -22.168  0.00  0.00    +0.248 C 
ATOM     20  C   UNL     1      31.161  -7.036 -22.712  0.00  0.00    +0.111 C 
ATOM     21  H   UNL     1      31.377  -8.697 -23.975  0.00  0.00    +0.150 HD
ENDBRANCH  14  19
ENDBRANCH   8  11
BRANCH   5  22
ATOM     22  C   UNL     1      35.868 -17.406 -22.083  0.00  0.00    +0.068 C 
BRANCH  22  24
ATOM     23  N   UNL     1      35.460 -22.300 -19.270  0.00  0.00    -0.248 NA
ATOM     24  C   UNL     1      35.750 -18.695 -21.342  0.00  0.00    -0.038 C 
ATOM     25  C   UNL     1      34.496 -19.219 -21.044  0.00  0.00    +0.050 C 
ATOM     26  C   UNL     1      34.380 -20.433 -20.346  0.00  0.00    -0.004 C 
ATOM     27  C   UNL     1      36.892 -19.381 -20.945  0.00  0.00    -0.028 C 
ATOM     28  C   UNL     1      35.535 -21.135 -19.940  0.00  0.00    +0.060 C 
ATOM     29  C   UNL     1      36.777 -20.588 -20.252  0.00  0.00    +0.071 C 
ATOM     30  C   UNL     1      33.130 -20.984 -20.034  0.00  0.00    -0.001 C 
ATOM     31  C   UNL     1      33.049 -22.185 -19.343  0.00  0.00    +0.020 C 
ATOM     32  C   UNL     1      34.233 -22.797 -18.988  0.00  0.00    +0.098 C 
ENDBRANCH  22  24
ENDBRANCH   5  22
TORSDOF 4
ENDMDL
MODEL 2
REMARK VINA RESULT:     -15.1      1.211      1.496
REMARK  Name = 25145656
REMARK  4 active torsions:
REMARK  status: ('A' for Active; 'I' for Inactive)
REMARK    1  A    between atoms: C_5  and  C_22
REMARK    2  A    between atoms: C_8  and  C_11
REMARK    3  A    between atoms: C_14  and  C_19
REMARK    4  A    between atoms: C_22  and  C_24
REMARK                            x       y       z     vdW  Elec       q    Type
REMARK                         _______ _______ _______ _____ _____    ______ ____
ROOT
ATOM      1  N   UNL     1      34.480 -16.030 -24.037  0.00  0.00    -0.134 N 
ATOM      2  N   UNL     1      34.175 -14.881 -23.395  0.00  0.00    -0.168 NA
ATOM      3  N   UNL     1      34.607 -17.556 -25.643  0.00  0.00    -0.178 NA
ATOM      4  N   UNL     1      33.401 -15.504 -26.083  0.00  0.00    -0.200 NA
ATOM      5  C   UNL     1      35.199 -17.072 -23.516  0.00  0.00    +0.086 C 
ATOM      6  C   UNL     1      34.135 -16.362 -25.333  0.00  0.00    +0.114 C 
ATOM      7  C   UNL     1      35.264 -18.000 -24.525  0.00  0.00    +0.124 C 
ATOM      8  C   UNL     1      33.490 -14.036 -24.106  0.00  0.00    +0.103 C 
ATOM      9  C   UNL     1      33.077 -14.390 -25.514  0.00  0.00    +0.184 C 
ENDROOT
BRANCH   8  11
ATOM     10  F   UNL     1      33.992  -9.216 -23.857  0.00  0.00    -0.204 F 
ATOM     11  C   UNL     1      33.104 -12.725 -23.535  0.00  0.00    +0.019 C 
ATOM     12  C   UNL     1      33.739 -11.562 -23.969  0.00  0.00    +0.031 C 
ATOM     13  C   UNL     1      32.104 -12.654 -22.565  0.00  0.00    +0.002 C 
ATOM     14  C   UNL     1      32.376 -10.255 -22.462  0.00  0.00    +0.081 C 
ATOM     15  C   UNL     1      33.375 -10.328 -23.432  0.00  0.00    +0.144 C 
ATOM     16  C   UNL     1      31.741 -11.419 -22.028  0.00  0.00    +0.007 C 
BRANCH  14  19
ATOM     17  O   UNL     1      31.304  -8.172 -22.560  0.00  0.00    -0.270 OA
ATOM     18  N   UNL     1      32.414  -8.697 -20.594  0.00  0.00    -0.299 N 
ATOM     19  C   UNL     1      31.993  -8.970 -21.900  0.00  0.00    +0.248 C 
ATOM     20  C   UNL     1      32.094  -7.476 -19.889  0.00  0.00    +0.111 C 
ATOM     21  H   UNL     1      32.959  -9.373 -20.128  0.00  0.00    +0.150 HD
ENDBRANCH  14  19
ENDBRANCH   8  11
BRANCH   5  22
ATOM     22  C   UNL     1      35.754 -17.080 -22.106  0.00  0.00    +0.068 C 
BRANCH  22  24
ATOM     23  N   UNL     1      35.613 -22.151 -19.598  0.00  0.00    -0.248 NA
ATOM     24  C   UNL     1      35.707 -18.416 -21.445  0.00  0.00    -0.038 C 
ATOM     25  C   UNL     1      34.482 -19.003 -21.139  0.00  0.00    +0.050 C 
ATOM     26  C   UNL     1      34.433 -20.261 -20.517  0.00  0.00    -0.004 C 
ATOM     27  C   UNL     1      36.884 -19.083 -21.130  0.00  0.00    -0.028 C 
ATOM     28  C   UNL     1      35.624 -20.945 -20.194  0.00  0.00    +0.060 C 
ATOM     29  C   UNL     1      36.835 -20.334 -20.512  0.00  0.00    +0.071 C 
ATOM     30  C   UNL     1      33.214 -20.875 -20.199  0.00  0.00    -0.001 C 
ATOM     31  C   UNL     1      33.199 -22.120 -19.583  0.00  0.00    +0.020 C 
ATOM     32  C   UNL     1      34.415 -22.709 -19.307  0.00  0.00    +0.098 C 
ENDBRANCH  22  24
ENDBRANCH   5  22
TORSDOF 4
ENDMDL
MODEL 3
REMARK VINA RESULT:     -14.2      3.575      9.549
REMARK  Name = 25145656
REMARK  4 active torsions:
REMARK  status: ('A' for Active; 'I' for Inactive)
REMARK    1  A    between atoms: C_5  and  C_22
REMARK    2  A    between atoms: C_8  and  C_11
REMARK    3  A    between atoms: C_14  and  C_19
REMARK    4  A    between atoms: C_22  and  C_24
REMARK                            x       y       z     vdW  Elec       q    Type
REMARK                         _______ _______ _______ _____ _____    ______ ____
ROOT
ATOM      1  N   UNL     1      34.692 -16.980 -23.774  0.00  0.00    -0.134 N 
ATOM      2  N   UNL     1      34.934 -17.646 -22.624  0.00  0.00    -0.168 NA
ATOM      3  N   UNL     1      34.187 -16.598 -25.900  0.00  0.00    -0.178 NA
ATOM      4  N   UNL     1      34.291 -18.888 -25.125  0.00  0.00    -0.200 NA
ATOM      5  C   UNL     1      34.715 -15.620 -23.932  0.00  0.00    +0.086 C 
ATOM      6  C   UNL     1      34.369 -17.541 -24.994  0.00  0.00    +0.114 C 
ATOM      7  C   UNL     1      34.399 -15.410 -25.251  0.00  0.00    +0.124 C 
ATOM      8  C   UNL     1      34.841 -18.938 -22.723  0.00  0.00    +0.103 C 
ATOM      9  C   UNL     1      34.519 -19.575 -24.054  0.00  0.00    +0.184 C 
ENDROOT
BRANCH   8  11
ATOM     10  F   UNL     1      33.125 -21.724 -19.139  0.00  0.00    -0.204 F 
ATOM     11  C   UNL     1      35.061 -19.794 -21.535  0.00  0.00    +0.019 C 
ATOM     12  C   UNL     1      33.972 -20.369 -20.880  0.00  0.00    +0.031 C 
ATOM     13  C   UNL     1      36.356 -20.025 -21.071  0.00  0.00    +0.002 C 
ATOM     14  C   UNL     1      35.473 -21.406 -19.296  0.00  0.00    +0.081 C 
ATOM     15  C   UNL     1      34.179 -21.175 -19.761  0.00  0.00    +0.144 C 
ATOM     16  C   UNL     1      36.562 -20.831 -19.952  0.00  0.00    +0.007 C 
BRANCH  14  19
ATOM     17  O   UNL     1      34.868 -23.124 -17.819  0.00  0.00    -0.270 OA
ATOM     18  N   UNL     1      36.872 -22.034 -17.407  0.00  0.00    -0.299 N 
ATOM     19  C   UNL     1      35.693 -22.247 -18.130  0.00  0.00    +0.248 C 
ATOM     20  C   UNL     1      37.245 -22.803 -16.241  0.00  0.00    +0.111 C 
ATOM     21  H   UNL     1      37.482 -21.322 -17.708  0.00  0.00    +0.150 HD
ENDBRANCH  14  19
ENDBRANCH   8  11
BRANCH   5  22
ATOM     22  C   UNL     1      35.034 -14.655 -22.808  0.00  0.00    +0.068 C 
BRANCH  22  24
ATOM     23  N   UNL     1      30.988 -10.812 -21.865  0.00  0.00    -0.248 NA
ATOM     24  C   UNL     1      33.972 -13.636 -22.566  0.00  0.00    -0.038 C 
ATOM     25  C   UNL     1      34.017 -12.410 -23.223  0.00  0.00    +0.050 C 
ATOM     26  C   UNL     1      33.019 -11.447 -22.998  0.00  0.00    -0.004 C 
ATOM     27  C   UNL     1      32.933 -13.905 -21.684  0.00  0.00    -0.028 C 
ATOM     28  C   UNL     1      31.960 -11.712 -22.104  0.00  0.00    +0.060 C 
ATOM     29  C   UNL     1      31.941 -12.947 -21.461  0.00  0.00    +0.071 C 
ATOM     30  C   UNL     1      33.038 -10.205 -23.646  0.00  0.00    -0.001 C 
ATOM     31  C   UNL     1      32.037  -9.274 -23.402  0.00  0.00    +0.020 C 
ATOM     32  C   UNL     1      31.044  -9.625 -22.511  0.00  0.00    +0.098 C 
ENDBRANCH  22  24
ENDBRANCH   5  22
TORSDOF 4
ENDMDL
MODEL 4
REMARK VINA RESULT:     -13.9      3.286      9.657
REMARK  Name = 25145656
REMARK  4 active torsions:
REMARK  status: ('A' for Active; 'I' for Inactive)
REMARK    1  A    between atoms: C_5  and  C_22
REMARK    2  A    between atoms: C_8  and  C_11
REMARK    3  A    between atoms: C_14  and  C_19
REMARK    4  A    between atoms: C_22  and  C_24
REMARK                            x       y       z     vdW  Elec       q    Type
REMARK                         _______ _______ _______ _____ _____    ______ ____
ROOT
ATOM      1  N   UNL     1      34.030 -15.959 -24.272  0.00  0.00    -0.134 N 
ATOM      2  N   UNL     1      34.273 -16.711 -23.176  0.00  0.00    -0.168 NA
ATOM      3  N   UNL     1      33.923 -15.340 -26.400  0.00  0.00    -0.178 NA
ATOM      4  N   UNL     1      34.886 -17.495 -25.864  0.00  0.00    -0.200 NA
ATOM      5  C   UNL     1      33.459 -14.715 -24.278  0.00  0.00    +0.086 C 
ATOM      6  C   UNL     1      34.300 -16.306 -25.581  0.00  0.00    +0.114 C 
ATOM      7  C   UNL     1      33.403 -14.355 -25.601  0.00  0.00    +0.124 C 
ATOM      8  C   UNL     1      34.813 -17.865 -23.428  0.00  0.00    +0.103 C 
ATOM      9  C   UNL     1      35.145 -18.253 -24.849  0.00  0.00    +0.184 C 
ENDROOT
BRANCH   8  11
ATOM     10  F   UNL     1      33.378 -21.130 -20.137  0.00  0.00    -0.204 F 
ATOM     11  C   UNL     1      35.115 -18.804 -22.322  0.00  0.00    +0.019 C 
ATOM     12  C   UNL     1      34.088 -19.542 -21.735  0.00  0.00    +0.031 C 
ATOM     13  C   UNL     1      36.427 -18.949 -21.870  0.00  0.00    +0.002 C 
ATOM     14  C   UNL     1      35.683 -20.570 -20.240  0.00  0.00    +0.081 C 
ATOM     15  C   UNL     1      34.373 -20.425 -20.694  0.00  0.00    +0.144 C 
ATOM     16  C   UNL     1      36.710 -19.832 -20.828  0.00  0.00    +0.007 C 
BRANCH  14  19
ATOM     17  O   UNL     1      35.464 -22.620 -19.122  0.00  0.00    -0.270 OA
ATOM     18  N   UNL     1      36.893 -21.053 -18.185  0.00  0.00    -0.299 N 
ATOM     19  C   UNL     1      35.985 -21.491 -19.156  0.00  0.00    +0.248 C 
ATOM     20  C   UNL     1      37.311 -21.860 -17.061  0.00  0.00    +0.111 C 
ATOM     21  H   UNL     1      37.267 -20.147 -18.271  0.00  0.00    +0.150 HD
ENDBRANCH  14  19
ENDBRANCH   8  11
BRANCH   5  22
ATOM     22  C   UNL     1      33.022 -13.991 -23.021  0.00  0.00    +0.068 C 
BRANCH  22  24
ATOM     23  N   UNL     1      33.436  -8.359 -23.392  0.00  0.00    -0.248 NA
ATOM     24  C   UNL     1      33.124 -12.506 -23.111  0.00  0.00    -0.038 C 
ATOM     25  C   UNL     1      32.308 -11.699 -22.324  0.00  0.00    +0.050 C 
ATOM     26  C   UNL     1      32.401 -10.300 -22.406  0.00  0.00    -0.004 C 
ATOM     27  C   UNL     1      34.033 -11.919 -23.982  0.00  0.00    -0.028 C 
ATOM     28  C   UNL     1      33.322  -9.696 -23.288  0.00  0.00    +0.060 C 
ATOM     29  C   UNL     1      34.125 -10.528 -24.064  0.00  0.00    +0.071 C 
ATOM     30  C   UNL     1      31.592  -9.463 -21.624  0.00  0.00    -0.001 C 
ATOM     31  C   UNL     1      31.708  -8.084 -21.729  0.00  0.00    +0.020 C 
ATOM     32  C   UNL     1      32.637  -7.587 -22.619  0.00  0.00    +0.098 C 
ENDBRANCH  22  24
ENDBRANCH   5  22
TORSDOF 4
ENDMDL
MODEL 5
REMARK VINA RESULT:     -13.9      3.830      9.733
REMARK  Name = 25145656
REMARK  4 active torsions:
REMARK  status: ('A' for Active; 'I' for Inactive)
REMARK    1  A    between atoms: C_5  and  C_22
REMARK    2  A    between atoms: C_8  and  C_11
REMARK    3  A    between atoms: C_14  and  C_19
REMARK    4  A    between atoms: C_22  and  C_24
REMARK                            x       y       z     vdW  Elec       q    Type
REMARK                         _______ _______ _______ _____ _____    ______ ____
ROOT
ATOM      1  N   UNL     1      34.792 -17.130 -23.270  0.00  0.00    -0.134 N 
ATOM      2  N   UNL     1      34.789 -17.884 -22.149  0.00  0.00    -0.168 NA
ATOM      3  N   UNL     1      34.734 -16.581 -25.419  0.00  0.00    -0.178 NA
ATOM      4  N   UNL     1      34.666 -18.924 -24.817  0.00  0.00    -0.200 NA
ATOM      5  C   UNL     1      34.853 -15.763 -23.315  0.00  0.00    +0.086 C 
ATOM      6  C   UNL     1      34.723 -17.593 -24.570  0.00  0.00    +0.114 C 
ATOM      7  C   UNL     1      34.816 -15.449 -24.651  0.00  0.00    +0.124 C 
ATOM      8  C   UNL     1      34.713 -19.163 -22.365  0.00  0.00    +0.103 C 
ATOM      9  C   UNL     1      34.667 -19.693 -23.778  0.00  0.00    +0.184 C 
ENDROOT
BRANCH   8  11
ATOM     10  F   UNL     1      36.992 -21.975 -19.132  0.00  0.00    -0.204 F 
ATOM     11  C   UNL     1      34.680 -20.109 -21.226  0.00  0.00    +0.019 C 
ATOM     12  C   UNL     1      35.871 -20.610 -20.701  0.00  0.00    +0.031 C 
ATOM     13  C   UNL     1      33.458 -20.499 -20.678  0.00  0.00    +0.002 C 
ATOM     14  C   UNL     1      34.619 -21.891 -19.080  0.00  0.00    +0.081 C 
ATOM     15  C   UNL     1      35.841 -21.500 -19.629  0.00  0.00    +0.144 C 
ATOM     16  C   UNL     1      33.428 -21.390 -19.605  0.00  0.00    +0.007 C 
BRANCH  14  19
ATOM     17  O   UNL     1      33.862 -23.831 -18.002  0.00  0.00    -0.270 OA
ATOM     18  N   UNL     1      35.406 -22.527 -16.867  0.00  0.00    -0.299 N 
ATOM     19  C   UNL     1      34.583 -22.819 -17.961  0.00  0.00    +0.248 C 
ATOM     20  C   UNL     1      35.499 -23.363 -15.692  0.00  0.00    +0.111 C 
ATOM     21  H   UNL     1      35.952 -21.708 -16.900  0.00  0.00    +0.150 HD
ENDBRANCH  14  19
ENDBRANCH   8  11
BRANCH   5  22
ATOM     22  C   UNL     1      34.940 -14.891 -22.079  0.00  0.00    +0.068 C 
BRANCH  22  24
ATOM     23  N   UNL     1      31.059 -10.778 -21.884  0.00  0.00    -0.248 NA
ATOM     24  C   UNL     1      33.923 -13.802 -22.035  0.00  0.00    -0.038 C 
ATOM     25  C   UNL     1      34.069 -12.673 -22.837  0.00  0.00    +0.050 C 
ATOM     26  C   UNL     1      33.113 -11.645 -22.798  0.00  0.00    -0.004 C 
ATOM     27  C   UNL     1      32.822 -13.906 -21.193  0.00  0.00    -0.028 C 
ATOM     28  C   UNL     1      31.993 -11.744 -21.946  0.00  0.00    +0.060 C 
ATOM     29  C   UNL     1      31.872 -12.884 -21.154  0.00  0.00    +0.071 C 
ATOM     30  C   UNL     1      33.234 -10.499 -23.596  0.00  0.00    -0.001 C 
ATOM     31  C   UNL     1      32.272  -9.500 -23.534  0.00  0.00    +0.020 C 
ATOM     32  C   UNL     1      31.214  -9.687 -22.670  0.00  0.00    +0.098 C 
ENDBRANCH  22  24
ENDBRANCH   5  22
TORSDOF 4
ENDMDL
MODEL 6
REMARK VINA RESULT:     -13.7      3.311      9.872
REMARK  Name = 25145656
REMARK  4 active torsions:
REMARK  status: ('A' for Active; 'I' for Inactive)
REMARK    1  A    between atoms: C_5  and  C_22
REMARK    2  A    between atoms: C_8  and  C_11
REMARK    3  A    between atoms: C_14  and  C_19
REMARK    4  A    between atoms: C_22  and  C_24
REMARK                            x       y       z     vdW  Elec       q    Type
REMARK                         _______ _______ _______ _____ _____    ______ ____
ROOT
ATOM      1  N   UNL     1      33.955 -15.268 -24.087  0.00  0.00    -0.134 N 
ATOM      2  N   UNL     1      34.237 -16.134 -23.089  0.00  0.00    -0.168 NA
ATOM      3  N   UNL     1      33.743 -14.434 -26.132  0.00  0.00    -0.178 NA
ATOM      4  N   UNL     1      34.662 -16.659 -25.874  0.00  0.00    -0.200 NA
ATOM      5  C   UNL     1      33.428 -14.014 -23.933  0.00  0.00    +0.086 C 
ATOM      6  C   UNL     1      34.135 -15.488 -25.438  0.00  0.00    +0.114 C 
ATOM      7  C   UNL     1      33.307 -13.521 -25.208  0.00  0.00    +0.124 C 
ATOM      8  C   UNL     1      34.721 -17.272 -23.488  0.00  0.00    +0.103 C 
ATOM      9  C   UNL     1      34.955 -17.522 -24.958  0.00  0.00    +0.184 C 
ENDROOT
BRANCH   8  11
ATOM     10  F   UNL     1      33.399 -20.947 -20.607  0.00  0.00    -0.204 F 
ATOM     11  C   UNL     1      35.057 -18.325 -22.502  0.00  0.00    +0.019 C 
ATOM     12  C   UNL     1      34.055 -19.158 -22.006  0.00  0.00    +0.031 C 
ATOM     13  C   UNL     1      36.374 -18.483 -22.071  0.00  0.00    +0.002 C 
ATOM     14  C   UNL     1      35.687 -20.309 -20.645  0.00  0.00    +0.081 C 
ATOM     15  C   UNL     1      34.371 -20.151 -21.078  0.00  0.00    +0.144 C 
ATOM     16  C   UNL     1      36.689 -19.475 -21.143  0.00  0.00    +0.007 C 
BRANCH  14  19
ATOM     17  O   UNL     1      35.683 -22.524 -19.874  0.00  0.00    -0.270 OA
ATOM     18  N   UNL     1      36.748 -20.947 -18.551  0.00  0.00    -0.299 N 
ATOM     19  C   UNL     1      36.020 -21.343 -19.679  0.00  0.00    +0.248 C 
ATOM     20  C   UNL     1      37.175 -21.859 -17.514  0.00  0.00    +0.111 C 
ATOM     21  H   UNL     1      36.982 -19.995 -18.457  0.00  0.00    +0.150 HD
ENDBRANCH  14  19
ENDBRANCH   8  11
BRANCH   5  22
ATOM     22  C   UNL     1      33.092 -13.409 -22.585  0.00  0.00    +0.068 C 
BRANCH  22  24
ATOM     23  N   UNL     1      31.599  -7.955 -22.805  0.00  0.00    -0.248 NA
ATOM     24  C   UNL     1      32.708 -11.970 -22.647  0.00  0.00    -0.038 C 
ATOM     25  C   UNL     1      33.600 -11.028 -23.150  0.00  0.00    +0.050 C 
ATOM     26  C   UNL     1      33.242  -9.671 -23.211  0.00  0.00    -0.004 C 
ATOM     27  C   UNL     1      31.456 -11.560 -22.203  0.00  0.00    -0.028 C 
ATOM     28  C   UNL     1      31.973  -9.247 -22.761  0.00  0.00    +0.060 C 
ATOM     29  C   UNL     1      31.101 -10.211 -22.263  0.00  0.00    +0.071 C 
ATOM     30  C   UNL     1      34.121  -8.702 -23.714  0.00  0.00    -0.001 C 
ATOM     31  C   UNL     1      33.737  -7.368 -23.759  0.00  0.00    +0.020 C 
ATOM     32  C   UNL     1      32.477  -7.051 -23.297  0.00  0.00    +0.098 C 
ENDBRANCH  22  24
ENDBRANCH   5  22
TORSDOF 4
ENDMDL
MODEL 7
REMARK VINA RESULT:     -13.5      4.035      7.722
REMARK  Name = 25145656
REMARK  4 active torsions:
REMARK  status: ('A' for Active; 'I' for Inactive)
REMARK    1  A    between atoms: C_5  and  C_22
REMARK    2  A    between atoms: C_8  and  C_11
REMARK    3  A    between atoms: C_14  and  C_19
REMARK    4  A    between atoms: C_22  and  C_24
REMARK                            x       y       z     vdW  Elec       q    Type
REMARK                         _______ _______ _______ _____ _____    ______ ____
ROOT
ATOM      1  N   UNL     1      32.290  -9.195 -21.180  0.00  0.00    -0.134 N 
ATOM      2  N   UNL     1      32.572  -8.636 -22.377  0.00  0.00    -0.168 NA
ATOM      3  N   UNL     1      32.031  -9.420 -18.988  0.00  0.00    -0.178 NA
ATOM      4  N   UNL     1      32.852  -7.312 -19.850  0.00  0.00    -0.200 NA
ATOM      5  C   UNL     1      31.831 -10.469 -20.979  0.00  0.00    +0.086 C 
ATOM      6  C   UNL     1      32.402  -8.587 -19.944  0.00  0.00    +0.114 C 
ATOM      7  C   UNL     1      31.679 -10.583 -19.620  0.00  0.00    +0.124 C 
ATOM      8  C   UNL     1      32.983  -7.405 -22.309  0.00  0.00    +0.103 C 
ATOM      9  C   UNL     1      33.141  -6.731 -20.968  0.00  0.00    +0.184 C 
ENDROOT
BRANCH   8  11
ATOM     10  F   UNL     1      31.768  -4.256 -25.796  0.00  0.00    -0.204 F 
ATOM     11  C   UNL     1      33.308  -6.660 -23.548  0.00  0.00    +0.019 C 
ATOM     12  C   UNL     1      32.371  -5.791 -24.104  0.00  0.00    +0.031 C 
ATOM     13  C   UNL     1      34.553  -6.827 -24.155  0.00  0.00    +0.002 C 
ATOM     14  C   UNL     1      33.921  -5.256 -25.879  0.00  0.00    +0.081 C 
ATOM     15  C   UNL     1      32.677  -5.089 -25.270  0.00  0.00    +0.144 C 
ATOM     16  C   UNL     1      34.858  -6.125 -25.321  0.00  0.00    +0.007 C 
BRANCH  14  19
ATOM     17  O   UNL     1      35.304  -3.880 -27.179  0.00  0.00    -0.270 OA
ATOM     18  N   UNL     1      33.327  -4.608 -28.148  0.00  0.00    -0.299 N 
ATOM     19  C   UNL     1      34.244  -4.526 -27.094  0.00  0.00    +0.248 C 
ATOM     20  C   UNL     1      33.518  -3.959 -29.425  0.00  0.00    +0.111 C 
ATOM     21  H   UNL     1      32.508  -5.136 -28.013  0.00  0.00    +0.150 HD
ENDBRANCH  14  19
ENDBRANCH   8  11
BRANCH   5  22
ATOM     22  C   UNL     1      31.582 -11.453 -22.105  0.00  0.00    +0.068 C 
BRANCH  22  24
ATOM     23  N   UNL     1      34.509 -16.269 -21.602  0.00  0.00    -0.248 NA
ATOM     24  C   UNL     1      32.356 -12.721 -21.982  0.00  0.00    -0.038 C 
ATOM     25  C   UNL     1      33.087 -13.203 -23.064  0.00  0.00    +0.050 C 
ATOM     26  C   UNL     1      33.818 -14.397 -22.953  0.00  0.00    -0.004 C 
ATOM     27  C   UNL     1      32.353 -13.430 -20.787  0.00  0.00    -0.028 C 
ATOM     28  C   UNL     1      33.820 -15.122 -21.742  0.00  0.00    +0.060 C 
ATOM     29  C   UNL     1      33.080 -14.617 -20.676  0.00  0.00    +0.071 C 
ATOM     30  C   UNL     1      34.563 -14.904 -24.026  0.00  0.00    -0.001 C 
ATOM     31  C   UNL     1      35.275 -16.087 -23.884  0.00  0.00    +0.020 C 
ATOM     32  C   UNL     1      35.216 -16.725 -22.663  0.00  0.00    +0.098 C 
ENDBRANCH  22  24
ENDBRANCH   5  22
TORSDOF 4
ENDMDL
MODEL 8
REMARK VINA RESULT:     -13.3      3.363      6.096
REMARK  Name = 25145656
REMARK  4 active torsions:
REMARK  status: ('A' for Active; 'I' for Inactive)
REMARK    1  A    between atoms: C_5  and  C_22
REMARK    2  A    between atoms: C_8  and  C_11
REMARK    3  A    between atoms: C_14  and  C_19
REMARK    4  A    between atoms: C_22  and  C_24
REMARK                            x       y       z     vdW  Elec       q    Type
REMARK                         _______ _______ _______ _____ _____    ______ ____
ROOT
ATOM      1  N   UNL     1      32.633 -11.534 -22.541  0.00  0.00    -0.134 N 
ATOM      2  N   UNL     1      32.863 -10.421 -23.272  0.00  0.00    -0.168 NA
ATOM      3  N   UNL     1      31.892 -12.848 -20.914  0.00  0.00    -0.178 NA
ATOM      4  N   UNL     1      31.426 -10.476 -20.793  0.00  0.00    -0.200 NA
ATOM      5  C   UNL     1      33.043 -12.800 -22.858  0.00  0.00    +0.086 C 
ATOM      6  C   UNL     1      31.937 -11.602 -21.350  0.00  0.00    +0.114 C 
ATOM      7  C   UNL     1      32.574 -13.592 -21.841  0.00  0.00    +0.124 C 
ATOM      8  C   UNL     1      32.361  -9.335 -22.767  0.00  0.00    +0.103 C 
ATOM      9  C   UNL     1      31.623  -9.381 -21.451  0.00  0.00    +0.184 C 
ENDROOT
BRANCH   8  11
ATOM     10  F   UNL     1      35.173  -5.911 -24.748  0.00  0.00    -0.204 F 
ATOM     11  C   UNL     1      32.519  -8.043 -23.475  0.00  0.00    +0.019 C 
ATOM     12  C   UNL     1      33.793  -7.571 -23.787  0.00  0.00    +0.031 C 
ATOM     13  C   UNL     1      31.393  -7.299 -23.829  0.00  0.00    +0.002 C 
ATOM     14  C   UNL     1      32.818  -5.610 -24.807  0.00  0.00    +0.081 C 
ATOM     15  C   UNL     1      33.942  -6.355 -24.453  0.00  0.00    +0.144 C 
ATOM     16  C   UNL     1      31.543  -6.083 -24.494  0.00  0.00    +0.007 C 
BRANCH  14  19
ATOM     17  O   UNL     1      33.578  -4.284 -26.585  0.00  0.00    -0.270 OA
ATOM     18  N   UNL     1      32.381  -3.219 -24.909  0.00  0.00    -0.299 N 
ATOM     19  C   UNL     1      32.968  -4.343 -25.502  0.00  0.00    +0.248 C 
ATOM     20  C   UNL     1      32.423  -1.896 -25.489  0.00  0.00    +0.111 C 
ATOM     21  H   UNL     1      31.913  -3.336 -24.051  0.00  0.00    +0.150 HD
ENDBRANCH  14  19
ENDBRANCH   8  11
BRANCH   5  22
ATOM     22  C   UNL     1      33.842 -13.131 -24.103  0.00  0.00    +0.068 C 
BRANCH  22  24
ATOM     23  N   UNL     1      34.512 -18.676 -25.013  0.00  0.00    -0.248 NA
ATOM     24  C   UNL     1      34.024 -14.593 -24.334  0.00  0.00    -0.038 C 
ATOM     25  C   UNL     1      34.750 -15.360 -23.427  0.00  0.00    +0.050 C 
ATOM     26  C   UNL     1      34.923 -16.737 -23.641  0.00  0.00    -0.004 C 
ATOM     27  C   UNL     1      33.471 -15.197 -25.456  0.00  0.00    -0.028 C 
ATOM     28  C   UNL     1      34.364 -17.359 -24.778  0.00  0.00    +0.060 C 
ATOM     29  C   UNL     1      33.644 -16.567 -25.668  0.00  0.00    +0.071 C 
ATOM     30  C   UNL     1      35.648 -17.534 -22.744  0.00  0.00    -0.001 C 
ATOM     31  C   UNL     1      35.803 -18.892 -22.984  0.00  0.00    +0.020 C 
ATOM     32  C   UNL     1      35.220 -19.409 -24.122  0.00  0.00    +0.098 C 
ENDBRANCH  22  24
ENDBRANCH   5  22
TORSDOF 4
ENDMDL
MODEL 9
REMARK VINA RESULT:     -12.9      3.588      6.719
REMARK  Name = 25145656
REMARK  4 active torsions:
REMARK  status: ('A' for Active; 'I' for Inactive)
REMARK    1  A    between atoms: C_5  and  C_22
REMARK    2  A    between atoms: C_8  and  C_11
REMARK    3  A    between atoms: C_14  and  C_19
REMARK    4  A    between atoms: C_22  and  C_24
REMARK                            x       y       z     vdW  Elec       q    Type
REMARK                         _______ _______ _______ _____ _____    ______ ____
ROOT
ATOM      1  N   UNL     1      32.608 -10.782 -22.806  0.00  0.00    -0.134 N 
ATOM      2  N   UNL     1      32.850  -9.680 -23.550  0.00  0.00    -0.168 NA
ATOM      3  N   UNL     1      31.855 -12.070 -21.164  0.00  0.00    -0.178 NA
ATOM      4  N   UNL     1      31.421  -9.691 -21.065  0.00  0.00    -0.200 NA
ATOM      5  C   UNL     1      33.000 -12.057 -23.112  0.00  0.00    +0.086 C 
ATOM      6  C   UNL     1      31.915 -10.829 -21.612  0.00  0.00    +0.114 C 
ATOM      7  C   UNL     1      32.524 -12.833 -22.085  0.00  0.00    +0.124 C 
ATOM      8  C   UNL     1      32.364  -8.582 -23.054  0.00  0.00    +0.103 C 
ATOM      9  C   UNL     1      31.631  -8.605 -21.735  0.00  0.00    +0.184 C 
ENDROOT
BRANCH   8  11
ATOM     10  F   UNL     1      30.562  -4.413 -24.763  0.00  0.00    -0.204 F 
ATOM     11  C   UNL     1      32.537  -7.300 -23.775  0.00  0.00    +0.019 C 
ATOM     12  C   UNL     1      31.451  -6.440 -23.936  0.00  0.00    +0.031 C 
ATOM     13  C   UNL     1      33.785  -6.952 -24.291  0.00  0.00    +0.002 C 
ATOM     14  C   UNL     1      32.861  -4.884 -25.132  0.00  0.00    +0.081 C 
ATOM     15  C   UNL     1      31.613  -5.232 -24.614  0.00  0.00    +0.144 C 
ATOM     16  C   UNL     1      33.947  -5.745 -24.970  0.00  0.00    +0.007 C 
BRANCH  14  19
ATOM     17  O   UNL     1      32.703  -2.551 -25.307  0.00  0.00    -0.270 OA
ATOM     18  N   UNL     1      33.606  -3.688 -27.115  0.00  0.00    -0.299 N 
ATOM     19  C   UNL     1      33.035  -3.626 -25.839  0.00  0.00    +0.248 C 
ATOM     20  C   UNL     1      33.865  -2.525 -27.932  0.00  0.00    +0.111 C 
ATOM     21  H   UNL     1      33.844  -4.572 -27.477  0.00  0.00    +0.150 HD
ENDBRANCH  14  19
ENDBRANCH   8  11
BRANCH   5  22
ATOM     22  C   UNL     1      33.790 -12.411 -24.356  0.00  0.00    +0.068 C 
BRANCH  22  24
ATOM     23  N   UNL     1      34.098 -17.965 -25.393  0.00  0.00    -0.248 NA
ATOM     24  C   UNL     1      33.877 -13.876 -24.621  0.00  0.00    -0.038 C 
ATOM     25  C   UNL     1      34.609 -14.699 -23.770  0.00  0.00    +0.050 C 
ATOM     26  C   UNL     1      34.694 -16.079 -24.016  0.00  0.00    -0.004 C 
ATOM     27  C   UNL     1      33.228 -14.428 -25.718  0.00  0.00    -0.028 C 
ATOM     28  C   UNL     1      34.037 -16.647 -25.129  0.00  0.00    +0.060 C 
ATOM     29  C   UNL     1      33.312 -15.801 -25.963  0.00  0.00    +0.071 C 
ATOM     30  C   UNL     1      35.423 -16.931 -23.176  0.00  0.00    -0.001 C 
ATOM     31  C   UNL     1      35.488 -18.291 -23.446  0.00  0.00    +0.020 C 
ATOM     32  C   UNL     1      34.813 -18.754 -24.557  0.00  0.00    +0.098 C 
ENDBRANCH  22  24
ENDBRANCH   5  22
TORSDOF 4
ENDMDL
