MODEL 1
REMARK VINA RESULT:     -13.7      0.000      0.000
REMARK  Name = 24941248
REMARK  7 active torsions:
REMARK  status: ('A' for Active; 'I' for Inactive)
REMARK    1  A    between atoms: N_2  and  C_24
REMARK    2  A    between atoms: C_6  and  C_14
REMARK    3  A    between atoms: C_13  and  C_19
REMARK    4  A    between atoms: C_19  and  C_20
REMARK    5  A    between atoms: C_20  and  C_21
REMARK    6  A    between atoms: C_21  and  O_22
REMARK    7  A    between atoms: C_24  and  C_26
REMARK                            x       y       z     vdW  Elec       q    Type
REMARK                         _______ _______ _______ _____ _____    ______ ____
ROOT
ATOM      1  O   UNL     1      33.671 -15.548 -26.468  0.00  0.00    -0.352 OA
ATOM      2  N   UNL     1      35.700 -17.710 -21.919  0.00  0.00    -0.316 N 
ATOM      3  N   UNL     1      33.314 -14.265 -26.073  0.00  0.00    -0.077 NA
ATOM      4  N   UNL     1      35.173 -17.994 -24.224  0.00  0.00    -0.226 NA
ATOM      5  C   UNL     1      34.207 -15.386 -24.298  0.00  0.00    +0.062 A 
ATOM      6  C   UNL     1      33.640 -14.189 -24.779  0.00  0.00    +0.123 A 
ATOM      7  C   UNL     1      35.179 -17.187 -23.131  0.00  0.00    +0.129 C 
ATOM      8  C   UNL     1      34.714 -15.875 -23.093  0.00  0.00    +0.039 C 
ATOM      9  C   UNL     1      34.202 -16.213 -25.407  0.00  0.00    +0.196 A 
ATOM     10  C   UNL     1      34.679 -17.510 -25.390  0.00  0.00    +0.140 C 
ATOM     11  H   UNL     1      35.711 -17.133 -21.121  0.00  0.00    +0.148 HD
ENDROOT
BRANCH   6  14
ATOM     12 CL   UNL     1      34.747  -9.209 -24.035  0.00  0.00    -0.082 Cl
ATOM     13  C   UNL     1      32.240 -11.790 -22.287  0.00  0.00    -0.021 C 
ATOM     14  C   UNL     1      33.404 -12.977 -24.039  0.00  0.00    +0.021 C 
ATOM     15  C   UNL     1      32.470 -12.964 -23.003  0.00  0.00    -0.003 C 
ATOM     16  C   UNL     1      32.944 -10.629 -22.606  0.00  0.00    +0.007 C 
ATOM     17  C   UNL     1      34.108 -11.816 -24.358  0.00  0.00    +0.013 C 
ATOM     18  C   UNL     1      33.878 -10.642 -23.642  0.00  0.00    +0.057 C 
BRANCH  13  19
ATOM     19  C   UNL     1      31.240 -11.775 -21.180  0.00  0.00    +0.029 C 
BRANCH  19  20
ATOM     20  C   UNL     1      31.155 -10.406 -20.492  0.00  0.00    +0.036 C 
BRANCH  20  21
ATOM     21  C   UNL     1      31.893 -10.386 -19.162  0.00  0.00    +0.138 C 
BRANCH  21  22
ATOM     22  O   UNL     1      32.885  -9.369 -19.202  0.00  0.00    -0.382 OA
ATOM     23  H   UNL     1      32.593  -8.612 -18.672  0.00  0.00    +0.210 HD
ENDBRANCH  21  22
ENDBRANCH  20  21
ENDBRANCH  19  20
ENDBRANCH  13  19
ENDBRANCH   6  14
BRANCH   2  24
ATOM     24  C   UNL     1      36.209 -19.037 -21.810  0.00  0.00    +0.093 C 
ATOM     25  C   UNL     1      37.607 -18.997 -21.198  0.00  0.00    +0.026 C 
BRANCH  24  26
ATOM     26  C   UNL     1      35.246 -19.904 -21.029  0.00  0.00    -0.005 C 
ATOM     27  C   UNL     1      35.733 -20.895 -20.179  0.00  0.00    -0.003 C 
ATOM     28  C   UNL     1      33.871 -19.711 -21.159  0.00  0.00    -0.003 C 
ATOM     29  C   UNL     1      34.845 -21.696 -19.458  0.00  0.00    -0.000 C 
ATOM     30  C   UNL     1      32.983 -20.510 -20.439  0.00  0.00    -0.000 C 
ATOM     31  C   UNL     1      33.470 -21.502 -19.588  0.00  0.00    -0.000 C 
ENDBRANCH  24  26
ENDBRANCH   2  24
TORSDOF 7
ENDMDL
MODEL 2
REMARK VINA RESULT:     -12.8      1.582      2.263
REMARK  Name = 24941248
REMARK  7 active torsions:
REMARK  status: ('A' for Active; 'I' for Inactive)
REMARK    1  A    between atoms: N_2  and  C_24
REMARK    2  A    between atoms: C_6  and  C_14
REMARK    3  A    between atoms: C_13  and  C_19
REMARK    4  A    between atoms: C_19  and  C_20
REMARK    5  A    between atoms: C_20  and  C_21
REMARK    6  A    between atoms: C_21  and  O_22
REMARK    7  A    between atoms: C_24  and  C_26
REMARK                            x       y       z     vdW  Elec       q    Type
REMARK                         _______ _______ _______ _____ _____    ______ ____
ROOT
ATOM      1  O   UNL     1      33.842 -15.332 -26.484  0.00  0.00    -0.352 OA
ATOM      2  N   UNL     1      35.642 -17.634 -21.908  0.00  0.00    -0.316 N 
ATOM      3  N   UNL     1      33.435 -14.072 -26.063  0.00  0.00    -0.077 NA
ATOM      4  N   UNL     1      35.259 -17.836 -24.249  0.00  0.00    -0.226 NA
ATOM      5  C   UNL     1      34.244 -15.246 -24.281  0.00  0.00    +0.062 A 
ATOM      6  C   UNL     1      33.681 -14.042 -24.749  0.00  0.00    +0.123 A 
ATOM      7  C   UNL     1      35.183 -17.073 -23.128  0.00  0.00    +0.129 C 
ATOM      8  C   UNL     1      34.688 -15.773 -23.067  0.00  0.00    +0.039 C 
ATOM      9  C   UNL     1      34.323 -16.028 -25.420  0.00  0.00    +0.196 A 
ATOM     10  C   UNL     1      34.825 -17.316 -25.423  0.00  0.00    +0.140 C 
ATOM     11  H   UNL     1      35.592 -17.089 -21.088  0.00  0.00    +0.148 HD
ENDROOT
BRANCH   6  14
ATOM     12 CL   UNL     1      31.002 -11.878 -20.912  0.00  0.00    -0.082 Cl
ATOM     13  C   UNL     1      33.711 -10.517 -23.523  0.00  0.00    -0.021 C 
ATOM     14  C   UNL     1      33.375 -12.866 -23.978  0.00  0.00    +0.021 C 
ATOM     15  C   UNL     1      34.007 -11.657 -24.270  0.00  0.00    -0.003 C 
ATOM     16  C   UNL     1      32.781 -10.586 -22.484  0.00  0.00    +0.007 C 
ATOM     17  C   UNL     1      32.445 -12.934 -22.940  0.00  0.00    +0.013 C 
ATOM     18  C   UNL     1      32.149 -11.794 -22.193  0.00  0.00    +0.057 C 
BRANCH  13  19
ATOM     19  C   UNL     1      34.388  -9.225 -23.833  0.00  0.00    +0.029 C 
BRANCH  19  20
ATOM     20  C   UNL     1      33.722  -8.036 -23.128  0.00  0.00    +0.036 C 
BRANCH  20  21
ATOM     21  C   UNL     1      32.499  -7.534 -23.881  0.00  0.00    +0.138 C 
BRANCH  21  22
ATOM     22  O   UNL     1      31.448  -7.308 -22.951  0.00  0.00    -0.382 OA
ATOM     23  H   UNL     1      30.918  -6.549 -23.241  0.00  0.00    +0.210 HD
ENDBRANCH  21  22
ENDBRANCH  20  21
ENDBRANCH  19  20
ENDBRANCH  13  19
ENDBRANCH   6  14
BRANCH   2  24
ATOM     24  C   UNL     1      36.172 -18.954 -21.819  0.00  0.00    +0.093 C 
ATOM     25  C   UNL     1      37.570 -18.902 -21.210  0.00  0.00    +0.026 C 
BRANCH  24  26
ATOM     26  C   UNL     1      35.224 -19.848 -21.049  0.00  0.00    -0.005 C 
ATOM     27  C   UNL     1      35.729 -20.839 -20.208  0.00  0.00    -0.003 C 
ATOM     28  C   UNL     1      33.845 -19.679 -21.179  0.00  0.00    -0.003 C 
ATOM     29  C   UNL     1      34.855 -21.663 -19.498  0.00  0.00    -0.000 C 
ATOM     30  C   UNL     1      32.972 -20.503 -20.469  0.00  0.00    -0.000 C 
ATOM     31  C   UNL     1      33.477 -21.494 -19.628  0.00  0.00    -0.000 C 
ENDBRANCH  24  26
ENDBRANCH   2  24
TORSDOF 7
ENDMDL
MODEL 3
REMARK VINA RESULT:     -11.5      7.739     12.943
REMARK  Name = 24941248
REMARK  7 active torsions:
REMARK  status: ('A' for Active; 'I' for Inactive)
REMARK    1  A    between atoms: N_2  and  C_24
REMARK    2  A    between atoms: C_6  and  C_14
REMARK    3  A    between atoms: C_13  and  C_19
REMARK    4  A    between atoms: C_19  and  C_20
REMARK    5  A    between atoms: C_20  and  C_21
REMARK    6  A    between atoms: C_21  and  O_22
REMARK    7  A    between atoms: C_24  and  C_26
REMARK                            x       y       z     vdW  Elec       q    Type
REMARK                         _______ _______ _______ _____ _____    ______ ____
ROOT
ATOM      1  O   UNL     1      31.587 -24.229 -14.983  0.00  0.00    -0.352 OA
ATOM      2  N   UNL     1      34.617 -22.030 -18.915  0.00  0.00    -0.316 N 
ATOM      3  N   UNL     1      32.533 -24.640 -14.051  0.00  0.00    -0.077 NA
ATOM      4  N   UNL     1      32.442 -22.579 -18.116  0.00  0.00    -0.226 NA
ATOM      5  C   UNL     1      33.587 -23.668 -15.827  0.00  0.00    +0.062 A 
ATOM      6  C   UNL     1      33.715 -24.298 -14.573  0.00  0.00    +0.123 A 
ATOM      7  C   UNL     1      33.785 -22.594 -17.913  0.00  0.00    +0.129 C 
ATOM      8  C   UNL     1      34.428 -23.120 -16.796  0.00  0.00    +0.039 C 
ATOM      9  C   UNL     1      32.219 -23.651 -16.039  0.00  0.00    +0.196 A 
ATOM     10  C   UNL     1      31.633 -23.113 -17.169  0.00  0.00    +0.140 C 
ATOM     11  H   UNL     1      35.593 -22.035 -18.779  0.00  0.00    +0.148 HD
ENDROOT
BRANCH   6  14
ATOM     12 CL   UNL     1      36.405 -24.008 -10.184  0.00  0.00    -0.082 Cl
ATOM     13  C   UNL     1      37.163 -25.508 -13.814  0.00  0.00    -0.021 C 
ATOM     14  C   UNL     1      34.933 -24.581 -13.860  0.00  0.00    +0.021 C 
ATOM     15  C   UNL     1      35.983 -25.233 -14.505  0.00  0.00    -0.003 C 
ATOM     16  C   UNL     1      37.294 -25.129 -12.478  0.00  0.00    +0.007 C 
ATOM     17  C   UNL     1      35.064 -24.201 -12.524  0.00  0.00    +0.013 C 
ATOM     18  C   UNL     1      36.244 -24.476 -11.833  0.00  0.00    +0.057 C 
BRANCH  13  19
ATOM     19  C   UNL     1      38.286 -26.208 -14.503  0.00  0.00    +0.029 C 
BRANCH  19  20
ATOM     20  C   UNL     1      39.655 -25.796 -13.948  0.00  0.00    +0.036 C 
BRANCH  20  21
ATOM     21  C   UNL     1      40.562 -25.220 -15.026  0.00  0.00    +0.138 C 
BRANCH  21  22
ATOM     22  O   UNL     1      40.563 -26.098 -16.144  0.00  0.00    -0.382 OA
ATOM     23  H   UNL     1      41.027 -25.678 -16.884  0.00  0.00    +0.210 HD
ENDBRANCH  21  22
ENDBRANCH  20  21
ENDBRANCH  19  20
ENDBRANCH  13  19
ENDBRANCH   6  14
BRANCH   2  24
ATOM     24  C   UNL     1      34.098 -21.457 -20.113  0.00  0.00    +0.093 C 
ATOM     25  C   UNL     1      32.732 -20.838 -19.830  0.00  0.00    +0.026 C 
BRANCH  24  26
ATOM     26  C   UNL     1      35.087 -20.469 -20.692  0.00  0.00    -0.005 C 
ATOM     27  C   UNL     1      36.398 -20.437 -20.220  0.00  0.00    -0.003 C 
ATOM     28  C   UNL     1      34.686 -19.590 -21.699  0.00  0.00    -0.003 C 
ATOM     29  C   UNL     1      37.310 -19.525 -20.753  0.00  0.00    -0.000 C 
ATOM     30  C   UNL     1      35.597 -18.679 -22.232  0.00  0.00    -0.000 C 
ATOM     31  C   UNL     1      36.910 -18.647 -21.760  0.00  0.00    -0.000 C 
ENDBRANCH  24  26
ENDBRANCH   2  24
TORSDOF 7
ENDMDL
MODEL 4
REMARK VINA RESULT:     -11.2      3.898      9.944
REMARK  Name = 24941248
REMARK  7 active torsions:
REMARK  status: ('A' for Active; 'I' for Inactive)
REMARK    1  A    between atoms: N_2  and  C_24
REMARK    2  A    between atoms: C_6  and  C_14
REMARK    3  A    between atoms: C_13  and  C_19
REMARK    4  A    between atoms: C_19  and  C_20
REMARK    5  A    between atoms: C_20  and  C_21
REMARK    6  A    between atoms: C_21  and  O_22
REMARK    7  A    between atoms: C_24  and  C_26
REMARK                            x       y       z     vdW  Elec       q    Type
REMARK                         _______ _______ _______ _____ _____    ______ ____
ROOT
ATOM      1  O   UNL     1      32.007 -13.232 -20.473  0.00  0.00    -0.352 OA
ATOM      2  N   UNL     1      32.579  -8.603 -23.252  0.00  0.00    -0.316 N 
ATOM      3  N   UNL     1      32.450 -14.194 -21.372  0.00  0.00    -0.077 NA
ATOM      4  N   UNL     1      31.921  -9.669 -21.227  0.00  0.00    -0.226 NA
ATOM      5  C   UNL     1      32.599 -12.129 -22.333  0.00  0.00    +0.062 A 
ATOM      6  C   UNL     1      32.797 -13.518 -22.472  0.00  0.00    +0.123 A 
ATOM      7  C   UNL     1      32.412  -9.787 -22.488  0.00  0.00    +0.129 C 
ATOM      8  C   UNL     1      32.773 -10.981 -23.106  0.00  0.00    +0.039 C 
ATOM      9  C   UNL     1      32.097 -12.003 -21.049  0.00  0.00    +0.196 A 
ATOM     10  C   UNL     1      31.755 -10.790 -20.483  0.00  0.00    +0.140 C 
ATOM     11  H   UNL     1      32.936  -8.676 -24.167  0.00  0.00    +0.148 HD
ENDROOT
BRANCH   6  14
ATOM     12 CL   UNL     1      33.605 -13.588 -27.563  0.00  0.00    -0.082 Cl
ATOM     13  C   UNL     1      34.388 -16.147 -24.589  0.00  0.00    -0.021 C 
ATOM     14  C   UNL     1      33.308 -14.214 -23.623  0.00  0.00    +0.021 C 
ATOM     15  C   UNL     1      33.892 -15.472 -23.474  0.00  0.00    -0.003 C 
ATOM     16  C   UNL     1      34.300 -15.564 -25.854  0.00  0.00    +0.007 C 
ATOM     17  C   UNL     1      33.219 -13.632 -24.887  0.00  0.00    +0.013 C 
ATOM     18  C   UNL     1      33.715 -14.307 -26.003  0.00  0.00    +0.057 C 
BRANCH  13  19
ATOM     19  C   UNL     1      35.015 -17.491 -24.430  0.00  0.00    +0.029 C 
BRANCH  19  20
ATOM     20  C   UNL     1      35.602 -17.697 -23.028  0.00  0.00    +0.036 C 
BRANCH  20  21
ATOM     21  C   UNL     1      35.036 -18.934 -22.345  0.00  0.00    +0.138 C 
BRANCH  21  22
ATOM     22  O   UNL     1      35.224 -18.810 -20.942  0.00  0.00    -0.382 OA
ATOM     23  H   UNL     1      34.387 -18.554 -20.526  0.00  0.00    +0.210 HD
ENDBRANCH  21  22
ENDBRANCH  20  21
ENDBRANCH  19  20
ENDBRANCH  13  19
ENDBRANCH   6  14
BRANCH   2  24
ATOM     24  C   UNL     1      32.250  -7.310 -22.749  0.00  0.00    +0.093 C 
ATOM     25  C   UNL     1      33.090  -7.018 -21.508  0.00  0.00    +0.026 C 
BRANCH  24  26
ATOM     26  C   UNL     1      32.416  -6.268 -23.834  0.00  0.00    -0.005 C 
ATOM     27  C   UNL     1      31.418  -5.318 -24.047  0.00  0.00    -0.003 C 
ATOM     28  C   UNL     1      33.569  -6.258 -24.620  0.00  0.00    -0.003 C 
ATOM     29  C   UNL     1      31.571  -4.358 -25.048  0.00  0.00    -0.000 C 
ATOM     30  C   UNL     1      33.722  -5.298 -25.620  0.00  0.00    -0.000 C 
ATOM     31  C   UNL     1      32.724  -4.348 -25.834  0.00  0.00    -0.000 C 
ENDBRANCH  24  26
ENDBRANCH   2  24
TORSDOF 7
ENDMDL
MODEL 5
REMARK VINA RESULT:     -10.8      3.087      8.629
REMARK  Name = 24941248
REMARK  7 active torsions:
REMARK  status: ('A' for Active; 'I' for Inactive)
REMARK    1  A    between atoms: N_2  and  C_24
REMARK    2  A    between atoms: C_6  and  C_14
REMARK    3  A    between atoms: C_13  and  C_19
REMARK    4  A    between atoms: C_19  and  C_20
REMARK    5  A    between atoms: C_20  and  C_21
REMARK    6  A    between atoms: C_21  and  O_22
REMARK    7  A    between atoms: C_24  and  C_26
REMARK                            x       y       z     vdW  Elec       q    Type
REMARK                         _______ _______ _______ _____ _____    ______ ____
ROOT
ATOM      1  O   UNL     1      33.913 -16.319 -26.399  0.00  0.00    -0.352 OA
ATOM      2  N   UNL     1      32.649 -12.690 -22.564  0.00  0.00    -0.316 N 
ATOM      3  N   UNL     1      34.519 -17.340 -25.677  0.00  0.00    -0.077 NA
ATOM      4  N   UNL     1      32.618 -13.276 -24.872  0.00  0.00    -0.226 NA
ATOM      5  C   UNL     1      33.890 -15.671 -24.254  0.00  0.00    +0.062 A 
ATOM      6  C   UNL     1      34.496 -16.935 -24.404  0.00  0.00    +0.123 A 
ATOM      7  C   UNL     1      32.960 -13.609 -23.600  0.00  0.00    +0.129 C 
ATOM      8  C   UNL     1      33.596 -14.786 -23.216  0.00  0.00    +0.039 C 
ATOM      9  C   UNL     1      33.540 -15.327 -25.548  0.00  0.00    +0.196 A 
ATOM     10  C   UNL     1      32.907 -14.142 -25.873  0.00  0.00    +0.140 C 
ATOM     11  H   UNL     1      32.891 -12.921 -21.637  0.00  0.00    +0.148 HD
ENDROOT
BRANCH   6  14
ATOM     12 CL   UNL     1      38.663 -18.577 -21.851  0.00  0.00    -0.082 Cl
ATOM     13  C   UNL     1      34.751 -19.366 -21.584  0.00  0.00    -0.021 C 
ATOM     14  C   UNL     1      35.051 -17.764 -23.367  0.00  0.00    +0.021 C 
ATOM     15  C   UNL     1      34.213 -18.563 -22.590  0.00  0.00    -0.003 C 
ATOM     16  C   UNL     1      36.127 -19.370 -21.356  0.00  0.00    +0.007 C 
ATOM     17  C   UNL     1      36.428 -17.768 -23.138  0.00  0.00    +0.013 C 
ATOM     18  C   UNL     1      36.965 -18.571 -22.133  0.00  0.00    +0.057 C 
BRANCH  13  19
ATOM     19  C   UNL     1      33.855 -20.220 -20.752  0.00  0.00    +0.029 C 
BRANCH  19  20
ATOM     20  C   UNL     1      34.636 -21.248 -19.923  0.00  0.00    +0.036 C 
BRANCH  20  21
ATOM     21  C   UNL     1      33.716 -22.176 -19.145  0.00  0.00    +0.138 C 
BRANCH  21  22
ATOM     22  O   UNL     1      33.919 -23.509 -19.595  0.00  0.00    -0.382 OA
ATOM     23  H   UNL     1      33.107 -23.835 -20.015  0.00  0.00    +0.210 HD
ENDBRANCH  21  22
ENDBRANCH  20  21
ENDBRANCH  19  20
ENDBRANCH  13  19
ENDBRANCH   6  14
BRANCH   2  24
ATOM     24  C   UNL     1      32.000 -11.444 -22.810  0.00  0.00    +0.093 C 
ATOM     25  C   UNL     1      31.111 -11.090 -21.620  0.00  0.00    +0.026 C 
BRANCH  24  26
ATOM     26  C   UNL     1      33.023 -10.374 -23.122  0.00  0.00    -0.005 C 
ATOM     27  C   UNL     1      32.822  -9.067 -22.682  0.00  0.00    -0.003 C 
ATOM     28  C   UNL     1      34.169 -10.696 -23.850  0.00  0.00    -0.003 C 
ATOM     29  C   UNL     1      33.765  -8.080 -22.970  0.00  0.00    -0.000 C 
ATOM     30  C   UNL     1      35.112  -9.710 -24.139  0.00  0.00    -0.000 C 
ATOM     31  C   UNL     1      34.911  -8.402 -23.698  0.00  0.00    -0.000 C 
ENDBRANCH  24  26
ENDBRANCH   2  24
TORSDOF 7
ENDMDL
