MODEL 1
REMARK VINA RESULT:     -14.6      0.000      0.000
REMARK  Name = 71351
REMARK  4 active torsions:
REMARK  status: ('A' for Active; 'I' for Inactive)
REMARK    1  A    between atoms: N_1  and  C_18
REMARK    2  A    between atoms: C_2  and  C_11
REMARK    3  A    between atoms: C_18  and  C_19
REMARK    4  A    between atoms: C_19  and  C_23
REMARK                            x       y       z     vdW  Elec       q    Type
REMARK                         _______ _______ _______ _____ _____    ______ ____
ROOT
ATOM      1  N   UNL     1      34.466 -20.395 -20.452  0.00  0.00    +0.387 N 
ATOM      2  C   UNL     1      34.258 -22.609 -18.538  0.00  0.00    +0.039 C 
ATOM      3  C   UNL     1      33.076 -21.676 -18.854  0.00  0.00    -0.017 C 
ATOM      4  C   UNL     1      35.584 -21.885 -18.822  0.00  0.00    -0.017 C 
ATOM      5  C   UNL     1      33.189 -21.097 -20.266  0.00  0.00    -0.077 C 
ATOM      6  C   UNL     1      35.604 -21.298 -20.236  0.00  0.00    -0.077 C 
ATOM      7  H   UNL     1      34.519 -19.649 -19.758  0.00  0.00    -0.080 HD
ENDROOT
BRANCH   2  11
ATOM      8  F   UNL     1      30.608 -24.451 -13.198  0.00  0.00    -0.204 F 
ATOM      9  O   UNL     1      34.918 -24.021 -15.289  0.00  0.00    -0.354 OA
ATOM     10  N   UNL     1      35.319 -23.547 -16.533  0.00  0.00    -0.081 NA
ATOM     11  C   UNL     1      34.193 -23.180 -17.140  0.00  0.00    +0.100 A 
ATOM     12  C   UNL     1      33.050 -23.390 -16.353  0.00  0.00    +0.054 A 
ATOM     13  C   UNL     1      33.564 -23.927 -15.186  0.00  0.00    +0.179 A 
ATOM     14  C   UNL     1      31.665 -23.202 -16.465  0.00  0.00    +0.007 C 
ATOM     15  C   UNL     1      32.794 -24.302 -14.089  0.00  0.00    +0.070 C 
ATOM     16  C   UNL     1      30.857 -23.570 -15.380  0.00  0.00    +0.030 C 
ATOM     17  C   UNL     1      31.414 -24.111 -14.215  0.00  0.00    +0.143 C 
ENDBRANCH   2  11
BRANCH   1  18
ATOM     18  C   UNL     1      34.533 -19.798 -21.787  0.00  0.00    -0.076 C 
BRANCH  18  19
ATOM     19  C   UNL     1      35.511 -18.633 -21.784  0.00  0.00    -0.007 C 
BRANCH  19  23
ATOM     20  O   UNL     1      35.074 -16.040 -20.899  0.00  0.00    -0.274 OA
ATOM     21  N   UNL     1      34.369 -15.219 -22.970  0.00  0.00    -0.211 N 
ATOM     22  N   UNL     1      34.351 -16.676 -24.845  0.00  0.00    -0.395 NA
ATOM     23  C   UNL     1      35.055 -17.550 -22.717  0.00  0.00    +0.123 C 
ATOM     24  C   UNL     1      34.806 -17.686 -24.034  0.00  0.00    +0.097 C 
ATOM     25  C   UNL     1      34.837 -16.204 -22.096  0.00  0.00    +0.241 C 
ATOM     26  C   UNL     1      34.145 -15.506 -24.321  0.00  0.00    +0.188 C 
ATOM     27  C   UNL     1      35.026 -18.977 -24.778  0.00  0.00    +0.062 C 
ATOM     28  C   UNL     1      33.643 -14.382 -25.190  0.00  0.00    +0.023 C 
ATOM     29  C   UNL     1      34.133 -13.943 -22.469  0.00  0.00    +0.074 C 
ATOM     30  C   UNL     1      33.439 -13.179 -24.634  0.00  0.00    +0.001 C 
ATOM     31  C   UNL     1      33.688 -12.948 -23.240  0.00  0.00    +0.016 C 
ATOM     32  C   UNL     1      33.394 -14.661 -26.640  0.00  0.00    +0.035 C 
ENDBRANCH  19  23
ENDBRANCH  18  19
ENDBRANCH   1  18
TORSDOF 4
ENDMDL
MODEL 2
REMARK VINA RESULT:     -14.6      1.299      2.132
REMARK  Name = 71351
REMARK  4 active torsions:
REMARK  status: ('A' for Active; 'I' for Inactive)
REMARK    1  A    between atoms: N_1  and  C_18
REMARK    2  A    between atoms: C_2  and  C_11
REMARK    3  A    between atoms: C_18  and  C_19
REMARK    4  A    between atoms: C_19  and  C_23
REMARK                            x       y       z     vdW  Elec       q    Type
REMARK                         _______ _______ _______ _____ _____    ______ ____
ROOT
ATOM      1  N   UNL     1      34.393 -19.889 -21.166  0.00  0.00    +0.387 N 
ATOM      2  C   UNL     1      34.518 -22.083 -19.223  0.00  0.00    +0.039 C 
ATOM      3  C   UNL     1      33.255 -21.230 -19.425  0.00  0.00    -0.017 C 
ATOM      4  C   UNL     1      35.761 -21.283 -19.646  0.00  0.00    -0.017 C 
ATOM      5  C   UNL     1      33.188 -20.665 -20.846  0.00  0.00    -0.077 C 
ATOM      6  C   UNL     1      35.602 -20.717 -21.059  0.00  0.00    -0.077 C 
ATOM      7  H   UNL     1      34.470 -19.131 -20.487  0.00  0.00    -0.080 HD
ENDROOT
BRANCH   2  11
ATOM      8  F   UNL     1      31.551 -24.566 -13.723  0.00  0.00    -0.204 F 
ATOM      9  O   UNL     1      35.589 -23.287 -16.000  0.00  0.00    -0.354 OA
ATOM     10  N   UNL     1      35.832 -22.757 -17.262  0.00  0.00    -0.081 NA
ATOM     11  C   UNL     1      34.631 -22.638 -17.821  0.00  0.00    +0.100 A 
ATOM     12  C   UNL     1      33.589 -23.068 -16.985  0.00  0.00    +0.054 A 
ATOM     13  C   UNL     1      34.251 -23.472 -15.838  0.00  0.00    +0.179 A 
ATOM     14  C   UNL     1      32.191 -23.170 -17.038  0.00  0.00    +0.007 C 
ATOM     15  C   UNL     1      33.620 -23.983 -14.708  0.00  0.00    +0.070 C 
ATOM     16  C   UNL     1      31.523 -23.682 -15.917  0.00  0.00    +0.030 C 
ATOM     17  C   UNL     1      32.226 -24.081 -14.775  0.00  0.00    +0.143 C 
ENDBRANCH   2  11
BRANCH   1  18
ATOM     18  C   UNL     1      34.287 -19.308 -22.505  0.00  0.00    -0.076 C 
BRANCH  18  19
ATOM     19  C   UNL     1      35.436 -18.338 -22.741  0.00  0.00    -0.007 C 
BRANCH  19  23
ATOM     20  O   UNL     1      34.813 -17.734 -25.376  0.00  0.00    -0.274 OA
ATOM     21  N   UNL     1      34.211 -15.515 -24.954  0.00  0.00    -0.211 N 
ATOM     22  N   UNL     1      34.271 -14.707 -22.722  0.00  0.00    -0.395 NA
ATOM     23  C   UNL     1      34.920 -16.985 -23.136  0.00  0.00    +0.123 C 
ATOM     24  C   UNL     1      34.707 -15.942 -22.312  0.00  0.00    +0.097 C 
ATOM     25  C   UNL     1      34.648 -16.794 -24.597  0.00  0.00    +0.241 C 
ATOM     26  C   UNL     1      34.041 -14.518 -23.986  0.00  0.00    +0.188 C 
ATOM     27  C   UNL     1      34.907 -16.025 -20.821  0.00  0.00    +0.062 C 
ATOM     28  C   UNL     1      33.564 -13.171 -24.461  0.00  0.00    +0.023 C 
ATOM     29  C   UNL     1      33.945 -15.253 -26.293  0.00  0.00    +0.074 C 
ATOM     30  C   UNL     1      33.329 -12.994 -25.769  0.00  0.00    +0.001 C 
ATOM     31  C   UNL     1      33.522 -14.057 -26.713  0.00  0.00    +0.016 C 
ATOM     32  C   UNL     1      33.375 -12.085 -23.447  0.00  0.00    +0.035 C 
ENDBRANCH  19  23
ENDBRANCH  18  19
ENDBRANCH   1  18
TORSDOF 4
ENDMDL
MODEL 3
REMARK VINA RESULT:     -14.6      3.481     10.435
REMARK  Name = 71351
REMARK  4 active torsions:
REMARK  status: ('A' for Active; 'I' for Inactive)
REMARK    1  A    between atoms: N_1  and  C_18
REMARK    2  A    between atoms: C_2  and  C_11
REMARK    3  A    between atoms: C_18  and  C_19
REMARK    4  A    between atoms: C_19  and  C_23
REMARK                            x       y       z     vdW  Elec       q    Type
REMARK                         _______ _______ _______ _____ _____    ______ ____
ROOT
ATOM      1  N   UNL     1      36.024 -19.670 -20.447  0.00  0.00    +0.387 N 
ATOM      2  C   UNL     1      35.454 -18.680 -23.149  0.00  0.00    +0.039 C 
ATOM      3  C   UNL     1      36.676 -18.214 -22.340  0.00  0.00    -0.017 C 
ATOM      4  C   UNL     1      34.348 -19.159 -22.195  0.00  0.00    -0.017 C 
ATOM      5  C   UNL     1      37.123 -19.286 -21.344  0.00  0.00    -0.077 C 
ATOM      6  C   UNL     1      34.881 -20.197 -21.205  0.00  0.00    -0.077 C 
ATOM      7  H   UNL     1      35.715 -18.833 -19.953  0.00  0.00    -0.080 HD
ENDROOT
BRANCH   2  11
ATOM      8  F   UNL     1      33.565 -12.347 -24.394  0.00  0.00    -0.204 F 
ATOM      9  O   UNL     1      34.336 -16.807 -26.018  0.00  0.00    -0.354 OA
ATOM     10  N   UNL     1      34.771 -17.973 -25.400  0.00  0.00    -0.081 NA
ATOM     11  C   UNL     1      34.968 -17.635 -24.128  0.00  0.00    +0.100 A 
ATOM     12  C   UNL     1      34.683 -16.286 -23.867  0.00  0.00    +0.054 A 
ATOM     13  C   UNL     1      34.285 -15.802 -25.102  0.00  0.00    +0.179 A 
ATOM     14  C   UNL     1      34.706 -15.414 -22.769  0.00  0.00    +0.007 C 
ATOM     15  C   UNL     1      33.897 -14.488 -25.341  0.00  0.00    +0.070 C 
ATOM     16  C   UNL     1      34.322 -14.081 -22.974  0.00  0.00    +0.030 C 
ATOM     17  C   UNL     1      33.926 -13.629 -24.237  0.00  0.00    +0.143 C 
ENDBRANCH   2  11
BRANCH   1  18
ATOM     18  C   UNL     1      36.484 -20.652 -19.465  0.00  0.00    -0.076 C 
BRANCH  18  19
ATOM     19  C   UNL     1      35.718 -21.956 -19.640  0.00  0.00    -0.007 C 
BRANCH  19  23
ATOM     20  O   UNL     1      33.015 -22.518 -19.370  0.00  0.00    -0.274 OA
ATOM     21  N   UNL     1      33.126 -23.038 -17.094  0.00  0.00    -0.211 N 
ATOM     22  N   UNL     1      35.232 -22.978 -15.998  0.00  0.00    -0.395 NA
ATOM     23  C   UNL     1      35.137 -22.413 -18.334  0.00  0.00    +0.123 C 
ATOM     24  C   UNL     1      35.811 -22.596 -17.182  0.00  0.00    +0.097 C 
ATOM     25  C   UNL     1      33.659 -22.657 -18.330  0.00  0.00    +0.241 C 
ATOM     26  C   UNL     1      33.950 -23.182 -15.971  0.00  0.00    +0.188 C 
ATOM     27  C   UNL     1      37.303 -22.421 -17.073  0.00  0.00    +0.062 C 
ATOM     28  C   UNL     1      33.291 -23.599 -14.683  0.00  0.00    +0.023 C 
ATOM     29  C   UNL     1      31.759 -23.275 -17.004  0.00  0.00    +0.074 C 
ATOM     30  C   UNL     1      31.966 -23.809 -14.674  0.00  0.00    +0.001 C 
ATOM     31  C   UNL     1      31.176 -23.645 -15.861  0.00  0.00    +0.016 C 
ATOM     32  C   UNL     1      34.148 -23.760 -13.465  0.00  0.00    +0.035 C 
ENDBRANCH  19  23
ENDBRANCH  18  19
ENDBRANCH   1  18
TORSDOF 4
ENDMDL
MODEL 4
REMARK VINA RESULT:     -14.3      3.513     10.352
REMARK  Name = 71351
REMARK  4 active torsions:
REMARK  status: ('A' for Active; 'I' for Inactive)
REMARK    1  A    between atoms: N_1  and  C_18
REMARK    2  A    between atoms: C_2  and  C_11
REMARK    3  A    between atoms: C_18  and  C_19
REMARK    4  A    between atoms: C_19  and  C_23
REMARK                            x       y       z     vdW  Elec       q    Type
REMARK                         _______ _______ _______ _____ _____    ______ ____
ROOT
ATOM      1  N   UNL     1      35.698 -19.378 -20.926  0.00  0.00    +0.387 N 
ATOM      2  C   UNL     1      35.535 -17.953 -23.485  0.00  0.00    +0.039 C 
ATOM      3  C   UNL     1      36.059 -17.287 -22.201  0.00  0.00    -0.017 C 
ATOM      4  C   UNL     1      34.592 -19.112 -23.124  0.00  0.00    -0.017 C 
ATOM      5  C   UNL     1      36.665 -18.320 -21.248  0.00  0.00    -0.077 C 
ATOM      6  C   UNL     1      35.253 -20.078 -22.138  0.00  0.00    -0.077 C 
ATOM      7  H   UNL     1      34.882 -18.938 -20.499  0.00  0.00    -0.080 HD
ENDROOT
BRANCH   2  11
ATOM      8  F   UNL     1      33.231 -11.757 -24.720  0.00  0.00    -0.204 F 
ATOM      9  O   UNL     1      34.049 -16.232 -26.281  0.00  0.00    -0.354 OA
ATOM     10  N   UNL     1      34.599 -17.355 -25.675  0.00  0.00    -0.081 NA
ATOM     11  C   UNL     1      34.905 -16.964 -24.440  0.00  0.00    +0.100 A 
ATOM     12  C   UNL     1      34.583 -15.621 -24.192  0.00  0.00    +0.054 A 
ATOM     13  C   UNL     1      34.042 -15.199 -25.394  0.00  0.00    +0.179 A 
ATOM     14  C   UNL     1      34.673 -14.712 -23.128  0.00  0.00    +0.007 C 
ATOM     15  C   UNL     1      33.569 -13.912 -25.632  0.00  0.00    +0.070 C 
ATOM     16  C   UNL     1      34.207 -13.405 -23.333  0.00  0.00    +0.030 C 
ATOM     17  C   UNL     1      33.666 -13.015 -24.563  0.00  0.00    +0.143 C 
ENDBRANCH   2  11
BRANCH   1  18
ATOM     18  C   UNL     1      36.274 -20.324 -19.969  0.00  0.00    -0.076 C 
BRANCH  18  19
ATOM     19  C   UNL     1      35.704 -21.714 -20.210  0.00  0.00    -0.007 C 
BRANCH  19  23
ATOM     20  O   UNL     1      36.399 -22.816 -17.761  0.00  0.00    -0.274 OA
ATOM     21  N   UNL     1      34.206 -23.015 -16.981  0.00  0.00    -0.211 N 
ATOM     22  N   UNL     1      32.421 -22.243 -18.344  0.00  0.00    -0.395 NA
ATOM     23  C   UNL     1      34.669 -22.053 -19.178  0.00  0.00    +0.123 C 
ATOM     24  C   UNL     1      33.338 -21.882 -19.298  0.00  0.00    +0.097 C 
ATOM     25  C   UNL     1      35.187 -22.664 -17.912  0.00  0.00    +0.241 C 
ATOM     26  C   UNL     1      32.850 -22.785 -17.245  0.00  0.00    +0.188 C 
ATOM     27  C   UNL     1      32.703 -21.243 -20.506  0.00  0.00    +0.062 C 
ATOM     28  C   UNL     1      31.863 -23.193 -16.182  0.00  0.00    +0.023 C 
ATOM     29  C   UNL     1      34.604 -23.597 -15.782  0.00  0.00    +0.074 C 
ATOM     30  C   UNL     1      32.324 -23.748 -15.052  0.00  0.00    +0.001 C 
ATOM     31  C   UNL     1      33.727 -23.957 -14.841  0.00  0.00    +0.016 C 
ATOM     32  C   UNL     1      30.406 -22.959 -16.439  0.00  0.00    +0.035 C 
ENDBRANCH  19  23
ENDBRANCH  18  19
ENDBRANCH   1  18
TORSDOF 4
ENDMDL
MODEL 5
REMARK VINA RESULT:     -14.1      2.302      3.213
REMARK  Name = 71351
REMARK  4 active torsions:
REMARK  status: ('A' for Active; 'I' for Inactive)
REMARK    1  A    between atoms: N_1  and  C_18
REMARK    2  A    between atoms: C_2  and  C_11
REMARK    3  A    between atoms: C_18  and  C_19
REMARK    4  A    between atoms: C_19  and  C_23
REMARK                            x       y       z     vdW  Elec       q    Type
REMARK                         _______ _______ _______ _____ _____    ______ ____
ROOT
ATOM      1  N   UNL     1      34.312 -19.837 -21.185  0.00  0.00    +0.387 N 
ATOM      2  C   UNL     1      34.322 -22.067 -19.279  0.00  0.00    +0.039 C 
ATOM      3  C   UNL     1      33.085 -21.183 -19.509  0.00  0.00    -0.017 C 
ATOM      4  C   UNL     1      35.596 -21.287 -19.643  0.00  0.00    -0.017 C 
ATOM      5  C   UNL     1      33.080 -20.592 -20.921  0.00  0.00    -0.077 C 
ATOM      6  C   UNL     1      35.498 -20.693 -21.051  0.00  0.00    -0.077 C 
ATOM      7  H   UNL     1      34.381 -19.093 -20.490  0.00  0.00    -0.080 HD
ENDROOT
BRANCH   2  11
ATOM      8  F   UNL     1      37.814 -23.419 -13.692  0.00  0.00    -0.204 F 
ATOM      9  O   UNL     1      33.654 -23.622 -16.098  0.00  0.00    -0.354 OA
ATOM     10  N   UNL     1      33.276 -23.193 -17.364  0.00  0.00    -0.081 NA
ATOM     11  C   UNL     1      34.373 -22.648 -17.884  0.00  0.00    +0.100 A 
ATOM     12  C   UNL     1      35.474 -22.693 -17.015  0.00  0.00    +0.054 A 
ATOM     13  C   UNL     1      34.966 -23.322 -15.892  0.00  0.00    +0.179 A 
ATOM     14  C   UNL     1      36.819 -22.294 -17.023  0.00  0.00    +0.007 C 
ATOM     15  C   UNL     1      35.703 -23.594 -14.744  0.00  0.00    +0.070 C 
ATOM     16  C   UNL     1      37.592 -22.552 -15.882  0.00  0.00    +0.030 C 
ATOM     17  C   UNL     1      37.042 -23.189 -14.765  0.00  0.00    +0.143 C 
ENDBRANCH   2  11
BRANCH   1  18
ATOM     18  C   UNL     1      34.266 -19.231 -22.516  0.00  0.00    -0.076 C 
BRANCH  18  19
ATOM     19  C   UNL     1      35.417 -18.249 -22.678  0.00  0.00    -0.007 C 
BRANCH  19  23
ATOM     20  O   UNL     1      34.792 -17.689 -25.322  0.00  0.00    -0.274 OA
ATOM     21  N   UNL     1      34.214 -15.457 -24.941  0.00  0.00    -0.211 N 
ATOM     22  N   UNL     1      34.289 -14.607 -22.725  0.00  0.00    -0.395 NA
ATOM     23  C   UNL     1      34.914 -16.900 -23.098  0.00  0.00    +0.123 C 
ATOM     24  C   UNL     1      34.714 -15.838 -22.293  0.00  0.00    +0.097 C 
ATOM     25  C   UNL     1      34.639 -16.733 -24.561  0.00  0.00    +0.241 C 
ATOM     26  C   UNL     1      34.057 -14.440 -23.992  0.00  0.00    +0.188 C 
ATOM     27  C   UNL     1      34.917 -15.895 -20.801  0.00  0.00    +0.062 C 
ATOM     28  C   UNL     1      33.592 -13.097 -24.491  0.00  0.00    +0.023 C 
ATOM     29  C   UNL     1      33.947 -15.217 -26.285  0.00  0.00    +0.074 C 
ATOM     30  C   UNL     1      33.355 -12.943 -25.802  0.00  0.00    +0.001 C 
ATOM     31  C   UNL     1      33.534 -14.026 -26.726  0.00  0.00    +0.016 C 
ATOM     32  C   UNL     1      33.416 -11.991 -23.497  0.00  0.00    +0.035 C 
ENDBRANCH  19  23
ENDBRANCH  18  19
ENDBRANCH   1  18
TORSDOF 4
ENDMDL
MODEL 6
REMARK VINA RESULT:     -14.1      2.747      5.182
REMARK  Name = 71351
REMARK  4 active torsions:
REMARK  status: ('A' for Active; 'I' for Inactive)
REMARK    1  A    between atoms: N_1  and  C_18
REMARK    2  A    between atoms: C_2  and  C_11
REMARK    3  A    between atoms: C_18  and  C_19
REMARK    4  A    between atoms: C_19  and  C_23
REMARK                            x       y       z     vdW  Elec       q    Type
REMARK                         _______ _______ _______ _____ _____    ______ ____
ROOT
ATOM      1  N   UNL     1      35.373 -16.311 -23.473  0.00  0.00    +0.387 N 
ATOM      2  C   UNL     1      34.933 -18.621 -21.719  0.00  0.00    +0.039 C 
ATOM      3  C   UNL     1      35.338 -17.240 -21.179  0.00  0.00    -0.017 C 
ATOM      4  C   UNL     1      35.398 -18.768 -23.177  0.00  0.00    -0.017 C 
ATOM      5  C   UNL     1      34.865 -16.119 -22.108  0.00  0.00    -0.077 C 
ATOM      6  C   UNL     1      34.921 -17.591 -24.033  0.00  0.00    -0.077 C 
ATOM      7  H   UNL     1      36.392 -16.328 -23.430  0.00  0.00    -0.080 HD
ENDROOT
BRANCH   2  11
ATOM      8  F   UNL     1      33.505 -23.807 -17.684  0.00  0.00    -0.204 F 
ATOM      9  O   UNL     1      36.809 -21.053 -19.835  0.00  0.00    -0.354 OA
ATOM     10  N   UNL     1      36.714 -19.959 -20.686  0.00  0.00    -0.081 NA
ATOM     11  C   UNL     1      35.408 -19.755 -20.839  0.00  0.00    +0.100 A 
ATOM     12  C   UNL     1      34.621 -20.671 -20.124  0.00  0.00    +0.054 A 
ATOM     13  C   UNL     1      35.558 -21.476 -19.502  0.00  0.00    +0.179 A 
ATOM     14  C   UNL     1      33.257 -20.928 -19.918  0.00  0.00    +0.007 C 
ATOM     15  C   UNL     1      35.245 -22.546 -18.669  0.00  0.00    +0.070 C 
ATOM     16  C   UNL     1      32.904 -21.999 -19.085  0.00  0.00    +0.030 C 
ATOM     17  C   UNL     1      33.882 -22.792 -18.474  0.00  0.00    +0.143 C 
ENDBRANCH   2  11
BRANCH   1  18
ATOM     18  C   UNL     1      34.959 -15.202 -24.333  0.00  0.00    -0.076 C 
BRANCH  18  19
ATOM     19  C   UNL     1      33.479 -14.912 -24.128  0.00  0.00    -0.007 C 
BRANCH  19  23
ATOM     20  O   UNL     1      32.202 -14.296 -21.743  0.00  0.00    -0.274 OA
ATOM     21  N   UNL     1      32.314 -11.979 -22.027  0.00  0.00    -0.211 N 
ATOM     22  N   UNL     1      33.395 -11.104 -23.952  0.00  0.00    -0.395 NA
ATOM     23  C   UNL     1      33.267 -13.491 -23.693  0.00  0.00    +0.123 C 
ATOM     24  C   UNL     1      33.644 -12.388 -24.368  0.00  0.00    +0.097 C 
ATOM     25  C   UNL     1      32.543 -13.309 -22.395  0.00  0.00    +0.241 C 
ATOM     26  C   UNL     1      32.757 -10.925 -22.835  0.00  0.00    +0.188 C 
ATOM     27  C   UNL     1      34.412 -12.444 -25.662  0.00  0.00    +0.062 C 
ATOM     28  C   UNL     1      32.470  -9.525 -22.359  0.00  0.00    +0.023 C 
ATOM     29  C   UNL     1      31.639 -11.724 -20.839  0.00  0.00    +0.074 C 
ATOM     30  C   UNL     1      31.813  -9.360 -21.202  0.00  0.00    +0.001 C 
ATOM     31  C   UNL     1      31.385 -10.482 -20.418  0.00  0.00    +0.016 C 
ATOM     32  C   UNL     1      32.931  -8.378 -23.205  0.00  0.00    +0.035 C 
ENDBRANCH  19  23
ENDBRANCH  18  19
ENDBRANCH   1  18
TORSDOF 4
ENDMDL
MODEL 7
REMARK VINA RESULT:     -14.1      3.916     10.387
REMARK  Name = 71351
REMARK  4 active torsions:
REMARK  status: ('A' for Active; 'I' for Inactive)
REMARK    1  A    between atoms: N_1  and  C_18
REMARK    2  A    between atoms: C_2  and  C_11
REMARK    3  A    between atoms: C_18  and  C_19
REMARK    4  A    between atoms: C_19  and  C_23
REMARK                            x       y       z     vdW  Elec       q    Type
REMARK                         _______ _______ _______ _____ _____    ______ ____
ROOT
ATOM      1  N   UNL     1      35.471 -17.355 -22.984  0.00  0.00    +0.387 N 
ATOM      2  C   UNL     1      33.819 -14.936 -23.150  0.00  0.00    +0.039 C 
ATOM      3  C   UNL     1      34.344 -15.665 -24.399  0.00  0.00    -0.017 C 
ATOM      4  C   UNL     1      34.735 -15.229 -21.951  0.00  0.00    -0.017 C 
ATOM      5  C   UNL     1      34.563 -17.154 -24.121  0.00  0.00    -0.077 C 
ATOM      6  C   UNL     1      34.939 -16.734 -21.763  0.00  0.00    -0.077 C 
ATOM      7  H   UNL     1      36.358 -16.901 -23.206  0.00  0.00    -0.080 HD
ENDROOT
BRANCH   2  11
ATOM      8  F   UNL     1      31.178  -9.077 -21.171  0.00  0.00    -0.204 F 
ATOM      9  O   UNL     1      33.790 -11.545 -24.367  0.00  0.00    -0.354 OA
ATOM     10  N   UNL     1      34.159 -12.882 -24.451  0.00  0.00    -0.081 NA
ATOM     11  C   UNL     1      33.615 -13.456 -23.381  0.00  0.00    +0.100 A 
ATOM     12  C   UNL     1      32.894 -12.557 -22.581  0.00  0.00    +0.054 A 
ATOM     13  C   UNL     1      33.036 -11.354 -23.250  0.00  0.00    +0.179 A 
ATOM     14  C   UNL     1      32.147 -12.592 -21.394  0.00  0.00    +0.007 C 
ATOM     15  C   UNL     1      32.482 -10.150 -22.826  0.00  0.00    +0.070 C 
ATOM     16  C   UNL     1      31.575 -11.397 -20.936  0.00  0.00    +0.030 C 
ATOM     17  C   UNL     1      31.741 -10.199 -21.640  0.00  0.00    +0.143 C 
ENDBRANCH   2  11
BRANCH   1  18
ATOM     18  C   UNL     1      35.715 -18.781 -22.769  0.00  0.00    -0.076 C 
BRANCH  18  19
ATOM     19  C   UNL     1      34.508 -19.416 -22.093  0.00  0.00    -0.007 C 
BRANCH  19  23
ATOM     20  O   UNL     1      32.727 -21.063 -20.747  0.00  0.00    -0.274 OA
ATOM     21  N   UNL     1      34.248 -21.732 -19.103  0.00  0.00    -0.211 N 
ATOM     22  N   UNL     1      36.481 -20.931 -19.202  0.00  0.00    -0.395 NA
ATOM     23  C   UNL     1      34.926 -20.208 -20.889  0.00  0.00    +0.123 C 
ATOM     24  C   UNL     1      36.151 -20.221 -20.329  0.00  0.00    +0.097 C 
ATOM     25  C   UNL     1      33.853 -21.036 -20.250  0.00  0.00    +0.241 C 
ATOM     26  C   UNL     1      35.561 -21.645 -18.627  0.00  0.00    +0.188 C 
ATOM     27  C   UNL     1      37.319 -19.461 -20.903  0.00  0.00    +0.062 C 
ATOM     28  C   UNL     1      35.898 -22.431 -17.387  0.00  0.00    +0.023 C 
ATOM     29  C   UNL     1      33.307 -22.517 -18.445  0.00  0.00    +0.074 C 
ATOM     30  C   UNL     1      34.937 -23.166 -16.808  0.00  0.00    +0.001 C 
ATOM     31  C   UNL     1      33.608 -23.214 -17.346  0.00  0.00    +0.016 C 
ATOM     32  C   UNL     1      37.296 -22.355 -16.855  0.00  0.00    +0.035 C 
ENDBRANCH  19  23
ENDBRANCH  18  19
ENDBRANCH   1  18
TORSDOF 4
ENDMDL
MODEL 8
REMARK VINA RESULT:     -14.0      4.052     10.936
REMARK  Name = 71351
REMARK  4 active torsions:
REMARK  status: ('A' for Active; 'I' for Inactive)
REMARK    1  A    between atoms: N_1  and  C_18
REMARK    2  A    between atoms: C_2  and  C_11
REMARK    3  A    between atoms: C_18  and  C_19
REMARK    4  A    between atoms: C_19  and  C_23
REMARK                            x       y       z     vdW  Elec       q    Type
REMARK                         _______ _______ _______ _____ _____    ______ ____
ROOT
ATOM      1  N   UNL     1      34.570 -22.325 -19.330  0.00  0.00    +0.387 N 
ATOM      2  C   UNL     1      34.813 -19.789 -20.784  0.00  0.00    +0.039 C 
ATOM      3  C   UNL     1      33.478 -20.541 -20.653  0.00  0.00    -0.017 C 
ATOM      4  C   UNL     1      35.984 -20.775 -20.644  0.00  0.00    -0.017 C 
ATOM      5  C   UNL     1      33.441 -21.388 -19.378  0.00  0.00    -0.077 C 
ATOM      6  C   UNL     1      35.854 -21.613 -19.369  0.00  0.00    -0.077 C 
ATOM      7  H   UNL     1      34.518 -22.924 -20.155  0.00  0.00    -0.080 HD
ENDROOT
BRANCH   2  11
ATOM      8  F   UNL     1      34.813 -13.762 -23.767  0.00  0.00    -0.204 F 
ATOM      9  O   UNL     1      35.083 -18.548 -24.156  0.00  0.00    -0.354 OA
ATOM     10  N   UNL     1      35.041 -19.573 -23.219  0.00  0.00    -0.081 NA
ATOM     11  C   UNL     1      34.896 -18.961 -22.046  0.00  0.00    +0.100 A 
ATOM     12  C   UNL     1      34.839 -17.564 -22.159  0.00  0.00    +0.054 A 
ATOM     13  C   UNL     1      34.962 -17.350 -23.520  0.00  0.00    +0.179 A 
ATOM     14  C   UNL     1      34.700 -16.459 -21.305  0.00  0.00    +0.007 C 
ATOM     15  C   UNL     1      34.960 -16.095 -24.121  0.00  0.00    +0.070 C 
ATOM     16  C   UNL     1      34.695 -15.178 -21.876  0.00  0.00    +0.030 C 
ATOM     17  C   UNL     1      34.823 -15.002 -23.259  0.00  0.00    +0.143 C 
ENDBRANCH   2  11
BRANCH   1  18
ATOM     18  C   UNL     1      34.487 -23.166 -18.135  0.00  0.00    -0.076 C 
BRANCH  18  19
ATOM     19  C   UNL     1      34.910 -22.367 -16.911  0.00  0.00    -0.007 C 
BRANCH  19  23
ATOM     20  O   UNL     1      37.679 -22.535 -16.965  0.00  0.00    -0.274 OA
ATOM     21  N   UNL     1      37.838 -24.088 -15.226  0.00  0.00    -0.211 N 
ATOM     22  N   UNL     1      35.854 -24.810 -14.138  0.00  0.00    -0.395 NA
ATOM     23  C   UNL     1      35.665 -23.231 -15.943  0.00  0.00    +0.123 C 
ATOM     24  C   UNL     1      35.129 -24.002 -14.977  0.00  0.00    +0.097 C 
ATOM     25  C   UNL     1      37.154 -23.242 -16.105  0.00  0.00    +0.241 C 
ATOM     26  C   UNL     1      37.146 -24.842 -14.271  0.00  0.00    +0.188 C 
ATOM     27  C   UNL     1      33.649 -24.043 -14.693  0.00  0.00    +0.062 C 
ATOM     28  C   UNL     1      37.964 -25.722 -13.364  0.00  0.00    +0.023 C 
ATOM     29  C   UNL     1      39.223 -24.162 -15.317  0.00  0.00    +0.074 C 
ATOM     30  C   UNL     1      39.297 -25.741 -13.513  0.00  0.00    +0.001 C 
ATOM     31  C   UNL     1      39.948 -24.943 -14.512  0.00  0.00    +0.016 C 
ATOM     32  C   UNL     1      37.249 -26.541 -12.333  0.00  0.00    +0.035 C 
ENDBRANCH  19  23
ENDBRANCH  18  19
ENDBRANCH   1  18
TORSDOF 4
ENDMDL
MODEL 9
REMARK VINA RESULT:     -13.9      1.762      2.102
REMARK  Name = 71351
REMARK  4 active torsions:
REMARK  status: ('A' for Active; 'I' for Inactive)
REMARK    1  A    between atoms: N_1  and  C_18
REMARK    2  A    between atoms: C_2  and  C_11
REMARK    3  A    between atoms: C_18  and  C_19
REMARK    4  A    between atoms: C_19  and  C_23
REMARK                            x       y       z     vdW  Elec       q    Type
REMARK                         _______ _______ _______ _____ _____    ______ ____
ROOT
ATOM      1  N   UNL     1      34.974 -20.684 -19.898  0.00  0.00    +0.387 N 
ATOM      2  C   UNL     1      36.180 -22.443 -17.884  0.00  0.00    +0.039 C 
ATOM      3  C   UNL     1      34.658 -22.286 -18.037  0.00  0.00    -0.017 C 
ATOM      4  C   UNL     1      36.891 -21.188 -18.415  0.00  0.00    -0.017 C 
ATOM      5  C   UNL     1      34.281 -21.908 -19.472  0.00  0.00    -0.077 C 
ATOM      6  C   UNL     1      36.432 -20.851 -19.836  0.00  0.00    -0.077 C 
ATOM      7  H   UNL     1      34.715 -19.936 -19.254  0.00  0.00    -0.080 HD
ENDROOT
BRANCH   2  11
ATOM      8  F   UNL     1      34.593 -24.903 -11.829  0.00  0.00    -0.204 F 
ATOM      9  O   UNL     1      37.891 -22.987 -14.759  0.00  0.00    -0.354 OA
ATOM     10  N   UNL     1      37.844 -22.563 -16.082  0.00  0.00    -0.081 NA
ATOM     11  C   UNL     1      36.592 -22.792 -16.471  0.00  0.00    +0.100 A 
ATOM     12  C   UNL     1      35.796 -23.354 -15.462  0.00  0.00    +0.054 A 
ATOM     13  C   UNL     1      36.668 -23.459 -14.392  0.00  0.00    +0.179 A 
ATOM     14  C   UNL     1      34.470 -23.784 -15.305  0.00  0.00    +0.007 C 
ATOM     15  C   UNL     1      36.322 -23.971 -13.145  0.00  0.00    +0.070 C 
ATOM     16  C   UNL     1      34.086 -24.307 -14.062  0.00  0.00    +0.030 C 
ATOM     17  C   UNL     1      34.997 -24.398 -13.004  0.00  0.00    +0.143 C 
ENDBRANCH   2  11
BRANCH   1  18
ATOM     18  C   UNL     1      34.558 -20.305 -21.249  0.00  0.00    -0.076 C 
BRANCH  18  19
ATOM     19  C   UNL     1      35.715 -19.638 -21.978  0.00  0.00    -0.007 C 
BRANCH  19  23
ATOM     20  O   UNL     1      35.516 -17.113 -20.845  0.00  0.00    -0.274 OA
ATOM     21  N   UNL     1      34.668 -16.080 -22.762  0.00  0.00    -0.211 N 
ATOM     22  N   UNL     1      34.388 -17.367 -24.739  0.00  0.00    -0.395 NA
ATOM     23  C   UNL     1      35.237 -18.456 -22.770  0.00  0.00    +0.123 C 
ATOM     24  C   UNL     1      34.858 -18.464 -24.062  0.00  0.00    +0.097 C 
ATOM     25  C   UNL     1      35.158 -17.160 -22.022  0.00  0.00    +0.241 C 
ATOM     26  C   UNL     1      34.301 -16.237 -24.104  0.00  0.00    +0.188 C 
ATOM     27  C   UNL     1      34.931 -19.696 -24.927  0.00  0.00    +0.062 C 
ATOM     28  C   UNL     1      33.786 -15.018 -24.824  0.00  0.00    +0.023 C 
ATOM     29  C   UNL     1      34.554 -14.843 -22.138  0.00  0.00    +0.074 C 
ATOM     30  C   UNL     1      33.705 -13.860 -24.155  0.00  0.00    +0.001 C 
ATOM     31  C   UNL     1      34.098 -13.763 -22.778  0.00  0.00    +0.016 C 
ATOM     32  C   UNL     1      33.385 -15.158 -26.261  0.00  0.00    +0.035 C 
ENDBRANCH  19  23
ENDBRANCH  18  19
ENDBRANCH   1  18
TORSDOF 4
ENDMDL
