MODEL 1
REMARK VINA RESULT:     -12.6      0.000      0.000
REMARK  Name = 447546
REMARK  10 active torsions:
REMARK  status: ('A' for Active; 'I' for Inactive)
REMARK    1  A    between atoms: N_1  and  C_23
REMARK    2  A    between atoms: C_8  and  N_11
REMARK    3  A    between atoms: N_12  and  C_16
REMARK    4  A    between atoms: C_16  and  C_17
REMARK    5  A    between atoms: C_23  and  C_24
REMARK    6  A    between atoms: C_24  and  C_25
REMARK    7  A    between atoms: C_25  and  N_26
REMARK    8  A    between atoms: C_25  and  C_36
REMARK    9  A    between atoms: C_30  and  C_33
REMARK   10  A    between atoms: C_36  and  O_37
REMARK                            x       y       z     vdW  Elec       q    Type
REMARK                         _______ _______ _______ _____ _____    ______ ____
ROOT
ATOM      1  N   UNL     1      32.898 -13.802 -22.532  0.00  0.00    -0.286 N 
ATOM      2  C   UNL     1      32.444 -12.559 -22.153  0.00  0.00    +0.053 C 
ATOM      3  C   UNL     1      32.203 -12.612 -20.778  0.00  0.00    +0.015 C 
ATOM      4  C   UNL     1      32.955 -14.636 -21.448  0.00  0.00    +0.065 C 
ATOM      5  C   UNL     1      32.531 -13.928 -20.348  0.00  0.00    +0.017 C 
ATOM      6  C   UNL     1      32.229 -11.404 -22.914  0.00  0.00    +0.030 C 
ATOM      7  C   UNL     1      31.725 -11.457 -20.129  0.00  0.00    +0.003 C 
ATOM      8  C   UNL     1      31.754 -10.271 -22.247  0.00  0.00    +0.053 C 
ATOM      9  C   UNL     1      31.507 -10.294 -20.876  0.00  0.00    +0.015 C 
ENDROOT
BRANCH   8  11
ATOM     10  O   UNL     1      33.027  -7.564 -22.001  0.00  0.00    -0.252 OA
ATOM     11  N   UNL     1      31.529  -9.097 -22.968  0.00  0.00    -0.268 N 
ATOM     12  N   UNL     1      31.644  -6.920 -23.739  0.00  0.00    -0.285 N 
ATOM     13  C   UNL     1      32.153  -7.842 -22.819  0.00  0.00    +0.305 C 
ATOM     14  H   UNL     1      30.845  -9.153 -23.675  0.00  0.00    +0.156 HD
ATOM     15  H   UNL     1      30.945  -7.217 -24.364  0.00  0.00    +0.151 HD
BRANCH  12  16
ATOM     16  C   UNL     1      32.099  -5.551 -23.816  0.00  0.00    +0.118 C 
BRANCH  16  17
ATOM     17  C   UNL     1      33.104  -5.353 -24.914  0.00  0.00    -0.003 C 
ATOM     18  C   UNL     1      32.819  -4.495 -25.975  0.00  0.00    -0.003 C 
ATOM     19  C   UNL     1      34.324  -6.029 -24.873  0.00  0.00    -0.003 C 
ATOM     20  C   UNL     1      33.752  -4.312 -26.995  0.00  0.00    -0.000 C 
ATOM     21  C   UNL     1      35.258  -5.846 -25.893  0.00  0.00    -0.000 C 
ATOM     22  C   UNL     1      34.972  -4.987 -26.954  0.00  0.00    -0.000 C 
ENDBRANCH  16  17
ENDBRANCH  12  16
ENDBRANCH   8  11
BRANCH   1  23
ATOM     23  C   UNL     1      33.267 -14.188 -23.878  0.00  0.00    +0.097 C 
BRANCH  23  24
ATOM     24  C   UNL     1      34.654 -14.836 -23.991  0.00  0.00    +0.040 C 
BRANCH  24  25
ATOM     25  C   UNL     1      34.720 -16.094 -24.886  0.00  0.00    +0.091 C 
BRANCH  25  26
ATOM     26  N   UNL     1      34.884 -17.347 -24.129  0.00  0.00    -0.246 NA
ATOM     27  N   UNL     1      34.884 -19.483 -23.524  0.00  0.00    -0.251 NA
ATOM     28  C   UNL     1      35.393 -17.478 -22.861  0.00  0.00    +0.125 C 
ATOM     29  C   UNL     1      34.587 -18.573 -24.499  0.00  0.00    +0.201 C 
ATOM     30  C   UNL     1      35.403 -18.795 -22.464  0.00  0.00    +0.124 C 
BRANCH  30  33
ATOM     31  O   UNL     1      35.265 -20.325 -20.668  0.00  0.00    -0.269 OA
ATOM     32  N   UNL     1      37.002 -18.851 -20.646  0.00  0.00    -0.324 N 
ATOM     33  C   UNL     1      35.844 -19.369 -21.237  0.00  0.00    +0.257 C 
ATOM     34  H   UNL     1      37.332 -19.225 -19.799  0.00  0.00    +0.145 HD
ATOM     35  H   UNL     1      37.487 -18.110 -21.078  0.00  0.00    +0.145 HD
ENDBRANCH  30  33
ENDBRANCH  25  26
BRANCH  25  36
ATOM     36  C   UNL     1      33.483 -16.175 -25.796  0.00  0.00    +0.153 C 
BRANCH  36  37
ATOM     37  O   UNL     1      33.673 -15.346 -26.937  0.00  0.00    -0.381 OA
ATOM     38  H   UNL     1      34.218 -14.582 -26.693  0.00  0.00    +0.210 HD
ENDBRANCH  36  37
ENDBRANCH  25  36
ENDBRANCH  24  25
ENDBRANCH  23  24
ENDBRANCH   1  23
TORSDOF 10
ENDMDL
MODEL 2
REMARK VINA RESULT:     -12.6      2.654      4.780
REMARK  Name = 447546
REMARK  10 active torsions:
REMARK  status: ('A' for Active; 'I' for Inactive)
REMARK    1  A    between atoms: N_1  and  C_23
REMARK    2  A    between atoms: C_8  and  N_11
REMARK    3  A    between atoms: N_12  and  C_16
REMARK    4  A    between atoms: C_16  and  C_17
REMARK    5  A    between atoms: C_23  and  C_24
REMARK    6  A    between atoms: C_24  and  C_25
REMARK    7  A    between atoms: C_25  and  N_26
REMARK    8  A    between atoms: C_25  and  C_36
REMARK    9  A    between atoms: C_30  and  C_33
REMARK   10  A    between atoms: C_36  and  O_37
REMARK                            x       y       z     vdW  Elec       q    Type
REMARK                         _______ _______ _______ _____ _____    ______ ____
ROOT
ATOM      1  N   UNL     1      34.825 -16.559 -23.516  0.00  0.00    -0.286 N 
ATOM      2  C   UNL     1      34.367 -15.422 -24.144  0.00  0.00    +0.053 C 
ATOM      3  C   UNL     1      33.990 -15.793 -25.438  0.00  0.00    +0.015 C 
ATOM      4  C   UNL     1      34.749 -17.631 -24.364  0.00  0.00    +0.065 C 
ATOM      5  C   UNL     1      34.237 -17.188 -25.561  0.00  0.00    +0.017 C 
ATOM      6  C   UNL     1      34.260 -14.109 -23.672  0.00  0.00    +0.030 C 
ATOM      7  C   UNL     1      33.481 -14.805 -26.304  0.00  0.00    +0.003 C 
ATOM      8  C   UNL     1      33.751 -13.147 -24.551  0.00  0.00    +0.053 C 
ATOM      9  C   UNL     1      33.367 -13.488 -25.846  0.00  0.00    +0.015 C 
ENDROOT
BRANCH   8  11
ATOM     10  O   UNL     1      31.990 -11.954 -22.434  0.00  0.00    -0.252 OA
ATOM     11  N   UNL     1      33.625 -11.826 -24.119  0.00  0.00    -0.268 N 
ATOM     12  N   UNL     1      32.955  -9.926 -22.984  0.00  0.00    -0.285 N 
ATOM     13  C   UNL     1      32.782 -11.308 -23.116  0.00  0.00    +0.305 C 
ATOM     14  H   UNL     1      34.202 -11.170 -24.574  0.00  0.00    +0.156 HD
ATOM     15  H   UNL     1      33.608  -9.477 -23.567  0.00  0.00    +0.151 HD
BRANCH  12  16
ATOM     16  C   UNL     1      32.219  -9.127 -22.031  0.00  0.00    +0.118 C 
BRANCH  16  17
ATOM     17  C   UNL     1      32.042  -7.712 -22.502  0.00  0.00    -0.003 C 
ATOM     18  C   UNL     1      31.612  -7.459 -23.803  0.00  0.00    -0.003 C 
ATOM     19  C   UNL     1      32.306  -6.651 -21.636  0.00  0.00    -0.003 C 
ATOM     20  C   UNL     1      31.447  -6.144 -24.240  0.00  0.00    -0.000 C 
ATOM     21  C   UNL     1      32.141  -5.336 -22.073  0.00  0.00    -0.000 C 
ATOM     22  C   UNL     1      31.711  -5.084 -23.375  0.00  0.00    -0.000 C 
ENDBRANCH  16  17
ENDBRANCH  12  16
ENDBRANCH   8  11
BRANCH   1  23
ATOM     23  C   UNL     1      35.318 -16.627 -22.157  0.00  0.00    +0.097 C 
BRANCH  23  24
ATOM     24  C   UNL     1      35.045 -17.964 -21.453  0.00  0.00    +0.040 C 
BRANCH  24  25
ATOM     25  C   UNL     1      36.303 -18.796 -21.115  0.00  0.00    +0.091 C 
BRANCH  25  26
ATOM     26  N   UNL     1      36.004 -20.060 -20.420  0.00  0.00    -0.246 NA
ATOM     27  N   UNL     1      36.174 -21.925 -19.228  0.00  0.00    -0.251 NA
ATOM     28  C   UNL     1      34.787 -20.692 -20.357  0.00  0.00    +0.125 C 
ATOM     29  C   UNL     1      36.817 -20.828 -19.730  0.00  0.00    +0.201 C 
ATOM     30  C   UNL     1      34.868 -21.852 -19.622  0.00  0.00    +0.124 C 
BRANCH  30  33
ATOM     31  O   UNL     1      33.937 -24.024 -19.575  0.00  0.00    -0.269 OA
ATOM     32  N   UNL     1      32.706 -22.345 -18.649  0.00  0.00    -0.324 N 
ATOM     33  C   UNL     1      33.853 -22.801 -19.310  0.00  0.00    +0.257 C 
ATOM     34  H   UNL     1      31.986 -22.975 -18.420  0.00  0.00    +0.145 HD
ATOM     35  H   UNL     1      32.618 -21.392 -18.415  0.00  0.00    +0.145 HD
ENDBRANCH  30  33
ENDBRANCH  25  26
BRANCH  25  36
ATOM     36  C   UNL     1      37.132 -19.063 -22.382  0.00  0.00    +0.153 C 
BRANCH  36  37
ATOM     37  O   UNL     1      38.443 -18.535 -22.217  0.00  0.00    -0.381 OA
ATOM     38  H   UNL     1      38.413 -17.568 -22.292  0.00  0.00    +0.210 HD
ENDBRANCH  36  37
ENDBRANCH  25  36
ENDBRANCH  24  25
ENDBRANCH  23  24
ENDBRANCH   1  23
TORSDOF 10
ENDMDL
MODEL 3
REMARK VINA RESULT:     -12.4      6.812     12.053
REMARK  Name = 447546
REMARK  10 active torsions:
REMARK  status: ('A' for Active; 'I' for Inactive)
REMARK    1  A    between atoms: N_1  and  C_23
REMARK    2  A    between atoms: C_8  and  N_11
REMARK    3  A    between atoms: N_12  and  C_16
REMARK    4  A    between atoms: C_16  and  C_17
REMARK    5  A    between atoms: C_23  and  C_24
REMARK    6  A    between atoms: C_24  and  C_25
REMARK    7  A    between atoms: C_25  and  N_26
REMARK    8  A    between atoms: C_25  and  C_36
REMARK    9  A    between atoms: C_30  and  C_33
REMARK   10  A    between atoms: C_36  and  O_37
REMARK                            x       y       z     vdW  Elec       q    Type
REMARK                         _______ _______ _______ _____ _____    ______ ____
ROOT
ATOM      1  N   UNL     1      33.573 -23.496 -16.312  0.00  0.00    -0.286 N 
ATOM      2  C   UNL     1      34.428 -22.846 -17.173  0.00  0.00    +0.053 C 
ATOM      3  C   UNL     1      35.711 -22.942 -16.628  0.00  0.00    +0.015 C 
ATOM      4  C   UNL     1      34.269 -23.999 -15.246  0.00  0.00    +0.065 C 
ATOM      5  C   UNL     1      35.594 -23.672 -15.413  0.00  0.00    +0.017 C 
ATOM      6  C   UNL     1      34.168 -22.186 -18.380  0.00  0.00    +0.030 C 
ATOM      7  C   UNL     1      36.788 -22.351 -17.320  0.00  0.00    +0.003 C 
ATOM      8  C   UNL     1      35.252 -21.609 -19.048  0.00  0.00    +0.053 C 
ATOM      9  C   UNL     1      36.542 -21.690 -18.528  0.00  0.00    +0.015 C 
ENDROOT
BRANCH   8  11
ATOM     10  O   UNL     1      36.931 -19.569 -20.471  0.00  0.00    -0.252 OA
ATOM     11  N   UNL     1      35.035 -20.944 -20.256  0.00  0.00    -0.268 N 
ATOM     12  N   UNL     1      35.282 -19.560 -22.092  0.00  0.00    -0.285 N 
ATOM     13  C   UNL     1      35.856 -19.989 -20.890  0.00  0.00    +0.305 C 
ATOM     14  H   UNL     1      34.201 -21.173 -20.727  0.00  0.00    +0.156 HD
ATOM     15  H   UNL     1      34.417 -19.943 -22.362  0.00  0.00    +0.151 HD
BRANCH  12  16
ATOM     16  C   UNL     1      35.902 -18.582 -22.956  0.00  0.00    +0.118 C 
BRANCH  16  17
ATOM     17  C   UNL     1      35.387 -17.196 -22.696  0.00  0.00    -0.003 C 
ATOM     18  C   UNL     1      35.201 -16.310 -23.756  0.00  0.00    -0.003 C 
ATOM     19  C   UNL     1      35.094 -16.794 -21.392  0.00  0.00    -0.003 C 
ATOM     20  C   UNL     1      34.722 -15.023 -23.514  0.00  0.00    -0.000 C 
ATOM     21  C   UNL     1      34.615 -15.507 -21.150  0.00  0.00    -0.000 C 
ATOM     22  C   UNL     1      34.429 -14.621 -22.211  0.00  0.00    -0.000 C 
ENDBRANCH  16  17
ENDBRANCH  12  16
ENDBRANCH   8  11
BRANCH   1  23
ATOM     23  C   UNL     1      32.144 -23.635 -16.492  0.00  0.00    +0.097 C 
BRANCH  23  24
ATOM     24  C   UNL     1      31.301 -22.963 -15.400  0.00  0.00    +0.040 C 
BRANCH  24  25
ATOM     25  C   UNL     1      29.963 -23.666 -15.078  0.00  0.00    +0.091 C 
BRANCH  25  26
ATOM     26  N   UNL     1      28.941 -23.496 -16.125  0.00  0.00    -0.246 NA
ATOM     27  N   UNL     1      27.522 -23.860 -17.792  0.00  0.00    -0.251 NA
ATOM     28  C   UNL     1      28.271 -22.339 -16.434  0.00  0.00    +0.125 C 
ATOM     29  C   UNL     1      28.467 -24.392 -16.961  0.00  0.00    +0.201 C 
ATOM     30  C   UNL     1      27.384 -22.541 -17.466  0.00  0.00    +0.124 C 
BRANCH  30  33
ATOM     31  O   UNL     1      26.244 -20.477 -17.643  0.00  0.00    -0.269 OA
ATOM     32  N   UNL     1      25.891 -22.005 -19.297  0.00  0.00    -0.324 N 
ATOM     33  C   UNL     1      26.497 -21.620 -18.095  0.00  0.00    +0.257 C 
ATOM     34  H   UNL     1      25.274 -21.392 -19.755  0.00  0.00    +0.145 HD
ATOM     35  H   UNL     1      26.083 -22.890 -19.684  0.00  0.00    +0.145 HD
ENDBRANCH  30  33
ENDBRANCH  25  26
BRANCH  25  36
ATOM     36  C   UNL     1      30.193 -25.159 -14.789  0.00  0.00    +0.153 C 
BRANCH  36  37
ATOM     37  O   UNL     1      30.740 -25.316 -13.485  0.00  0.00    -0.381 OA
ATOM     38  H   UNL     1      31.543 -25.857 -13.535  0.00  0.00    +0.210 HD
ENDBRANCH  36  37
ENDBRANCH  25  36
ENDBRANCH  24  25
ENDBRANCH  23  24
ENDBRANCH   1  23
TORSDOF 10
ENDMDL
MODEL 4
REMARK VINA RESULT:     -12.2      6.357     11.355
REMARK  Name = 447546
REMARK  10 active torsions:
REMARK  status: ('A' for Active; 'I' for Inactive)
REMARK    1  A    between atoms: N_1  and  C_23
REMARK    2  A    between atoms: C_8  and  N_11
REMARK    3  A    between atoms: N_12  and  C_16
REMARK    4  A    between atoms: C_16  and  C_17
REMARK    5  A    between atoms: C_23  and  C_24
REMARK    6  A    between atoms: C_24  and  C_25
REMARK    7  A    between atoms: C_25  and  N_26
REMARK    8  A    between atoms: C_25  and  C_36
REMARK    9  A    between atoms: C_30  and  C_33
REMARK   10  A    between atoms: C_36  and  O_37
REMARK                            x       y       z     vdW  Elec       q    Type
REMARK                         _______ _______ _______ _____ _____    ______ ____
ROOT
ATOM      1  N   UNL     1      34.093 -22.806 -17.568  0.00  0.00    -0.286 N 
ATOM      2  C   UNL     1      34.706 -22.055 -18.546  0.00  0.00    +0.053 C 
ATOM      3  C   UNL     1      36.061 -21.977 -18.214  0.00  0.00    +0.015 C 
ATOM      4  C   UNL     1      35.011 -23.204 -16.634  0.00  0.00    +0.065 C 
ATOM      5  C   UNL     1      36.238 -22.707 -17.006  0.00  0.00    +0.017 C 
ATOM      6  C   UNL     1      34.171 -21.446 -19.687  0.00  0.00    +0.030 C 
ATOM      7  C   UNL     1      36.926 -21.255 -19.061  0.00  0.00    +0.003 C 
ATOM      8  C   UNL     1      35.049 -20.735 -20.511  0.00  0.00    +0.053 C 
ATOM      9  C   UNL     1      36.405 -20.641 -20.206  0.00  0.00    +0.015 C 
ENDROOT
BRANCH   8  11
ATOM     10  O   UNL     1      36.464 -19.115 -22.604  0.00  0.00    -0.252 OA
ATOM     11  N   UNL     1      34.556 -20.114 -21.660  0.00  0.00    -0.268 N 
ATOM     12  N   UNL     1      34.401 -18.907 -23.627  0.00  0.00    -0.285 N 
ATOM     13  C   UNL     1      35.261 -19.361 -22.620  0.00  0.00    +0.305 C 
ATOM     14  H   UNL     1      33.590 -20.217 -21.822  0.00  0.00    +0.156 HD
ATOM     15  H   UNL     1      33.448 -19.144 -23.571  0.00  0.00    +0.151 HD
BRANCH  12  16
ATOM     16  C   UNL     1      34.848 -18.108 -24.744  0.00  0.00    +0.118 C 
BRANCH  16  17
ATOM     17  C   UNL     1      34.457 -16.666 -24.596  0.00  0.00    -0.003 C 
ATOM     18  C   UNL     1      34.831 -15.955 -23.457  0.00  0.00    -0.003 C 
ATOM     19  C   UNL     1      33.719 -16.037 -25.600  0.00  0.00    -0.003 C 
ATOM     20  C   UNL     1      34.467 -14.615 -23.320  0.00  0.00    -0.000 C 
ATOM     21  C   UNL     1      33.355 -14.698 -25.462  0.00  0.00    -0.000 C 
ATOM     22  C   UNL     1      33.730 -13.987 -24.323  0.00  0.00    -0.000 C 
ENDBRANCH  16  17
ENDBRANCH  12  16
ENDBRANCH   8  11
BRANCH   1  23
ATOM     23  C   UNL     1      32.685 -23.135 -17.520  0.00  0.00    +0.097 C 
BRANCH  23  24
ATOM     24  C   UNL     1      32.261 -23.914 -16.267  0.00  0.00    +0.040 C 
BRANCH  24  25
ATOM     25  C   UNL     1      31.178 -23.228 -15.403  0.00  0.00    +0.091 C 
BRANCH  25  26
ATOM     26  N   UNL     1      29.826 -23.305 -15.983  0.00  0.00    -0.246 NA
ATOM     27  N   UNL     1      28.014 -23.980 -17.073  0.00  0.00    -0.251 NA
ATOM     28  C   UNL     1      28.827 -22.372 -15.860  0.00  0.00    +0.125 C 
ATOM     29  C   UNL     1      29.304 -24.261 -16.719  0.00  0.00    +0.201 C 
ATOM     30  C   UNL     1      27.693 -22.769 -16.528  0.00  0.00    +0.124 C 
BRANCH  30  33
ATOM     31  O   UNL     1      25.570 -22.077 -15.752  0.00  0.00    -0.269 OA
ATOM     32  N   UNL     1      26.167 -21.438 -17.856  0.00  0.00    -0.324 N 
ATOM     33  C   UNL     1      26.437 -22.109 -16.657  0.00  0.00    +0.257 C 
ATOM     34  H   UNL     1      25.309 -20.972 -17.977  0.00  0.00    +0.145 HD
ATOM     35  H   UNL     1      26.836 -21.432 -18.579  0.00  0.00    +0.145 HD
ENDBRANCH  30  33
ENDBRANCH  25  26
BRANCH  25  36
ATOM     36  C   UNL     1      31.184 -23.798 -13.975  0.00  0.00    +0.153 C 
BRANCH  36  37
ATOM     37  O   UNL     1      32.312 -23.299 -13.265  0.00  0.00    -0.381 OA
ATOM     38  H   UNL     1      32.968 -22.964 -13.896  0.00  0.00    +0.210 HD
ENDBRANCH  36  37
ENDBRANCH  25  36
ENDBRANCH  24  25
ENDBRANCH  23  24
ENDBRANCH   1  23
TORSDOF 10
ENDMDL
MODEL 5
REMARK VINA RESULT:     -12.0      7.069     12.594
REMARK  Name = 447546
REMARK  10 active torsions:
REMARK  status: ('A' for Active; 'I' for Inactive)
REMARK    1  A    between atoms: N_1  and  C_23
REMARK    2  A    between atoms: C_8  and  N_11
REMARK    3  A    between atoms: N_12  and  C_16
REMARK    4  A    between atoms: C_16  and  C_17
REMARK    5  A    between atoms: C_23  and  C_24
REMARK    6  A    between atoms: C_24  and  C_25
REMARK    7  A    between atoms: C_25  and  N_26
REMARK    8  A    between atoms: C_25  and  C_36
REMARK    9  A    between atoms: C_30  and  C_33
REMARK   10  A    between atoms: C_36  and  O_37
REMARK                            x       y       z     vdW  Elec       q    Type
REMARK                         _______ _______ _______ _____ _____    ______ ____
ROOT
ATOM      1  N   UNL     1      36.226 -23.242 -15.910  0.00  0.00    -0.286 N 
ATOM      2  C   UNL     1      35.662 -22.730 -17.057  0.00  0.00    +0.053 C 
ATOM      3  C   UNL     1      34.353 -23.215 -17.121  0.00  0.00    +0.015 C 
ATOM      4  C   UNL     1      35.322 -24.030 -15.249  0.00  0.00    +0.065 C 
ATOM      5  C   UNL     1      34.153 -24.031 -15.974  0.00  0.00    +0.017 C 
ATOM      6  C   UNL     1      36.204 -21.885 -18.032  0.00  0.00    +0.030 C 
ATOM      7  C   UNL     1      33.544 -22.838 -18.212  0.00  0.00    +0.003 C 
ATOM      8  C   UNL     1      35.382 -21.525 -19.104  0.00  0.00    +0.053 C 
ATOM      9  C   UNL     1      34.072 -21.992 -19.194  0.00  0.00    +0.015 C 
ENDROOT
BRANCH   8  11
ATOM     10  O   UNL     1      33.968 -20.081 -21.323  0.00  0.00    -0.252 OA
ATOM     11  N   UNL     1      35.883 -20.682 -20.097  0.00  0.00    -0.268 N 
ATOM     12  N   UNL     1      36.048 -19.266 -21.918  0.00  0.00    -0.285 N 
ATOM     13  C   UNL     1      35.179 -20.022 -21.124  0.00  0.00    +0.305 C 
ATOM     14  H   UNL     1      36.855 -20.528 -20.077  0.00  0.00    +0.156 HD
ATOM     15  H   UNL     1      37.007 -19.267 -21.696  0.00  0.00    +0.151 HD
BRANCH  12  16
ATOM     16  C   UNL     1      35.604 -18.482 -23.047  0.00  0.00    +0.118 C 
BRANCH  16  17
ATOM     17  C   UNL     1      35.211 -17.090 -22.646  0.00  0.00    -0.003 C 
ATOM     18  C   UNL     1      34.974 -16.791 -21.305  0.00  0.00    -0.003 C 
ATOM     19  C   UNL     1      35.084 -16.095 -23.615  0.00  0.00    -0.003 C 
ATOM     20  C   UNL     1      34.609 -15.497 -20.933  0.00  0.00    -0.000 C 
ATOM     21  C   UNL     1      34.719 -14.801 -23.243  0.00  0.00    -0.000 C 
ATOM     22  C   UNL     1      34.482 -14.503 -21.901  0.00  0.00    -0.000 C 
ENDBRANCH  16  17
ENDBRANCH  12  16
ENDBRANCH   8  11
BRANCH   1  23
ATOM     23  C   UNL     1      37.578 -22.995 -15.455  0.00  0.00    +0.097 C 
BRANCH  23  24
ATOM     24  C   UNL     1      38.566 -24.128 -15.767  0.00  0.00    +0.040 C 
BRANCH  24  25
ATOM     25  C   UNL     1      39.209 -24.795 -14.530  0.00  0.00    +0.091 C 
BRANCH  25  26
ATOM     26  N   UNL     1      38.245 -25.107 -13.461  0.00  0.00    -0.246 NA
ATOM     27  N   UNL     1      36.800 -26.147 -12.136  0.00  0.00    -0.251 NA
ATOM     28  C   UNL     1      37.804 -24.252 -12.481  0.00  0.00    +0.125 C 
ATOM     29  C   UNL     1      37.621 -26.239 -13.224  0.00  0.00    +0.201 C 
ATOM     30  C   UNL     1      36.907 -24.876 -11.646  0.00  0.00    +0.124 C 
BRANCH  30  33
ATOM     31  O   UNL     1      35.324 -24.996  -9.894  0.00  0.00    -0.269 OA
ATOM     32  N   UNL     1      36.560 -23.088 -10.051  0.00  0.00    -0.324 N 
ATOM     33  C   UNL     1      36.213 -24.363 -10.513  0.00  0.00    +0.257 C 
ATOM     34  H   UNL     1      36.100 -22.705  -9.270  0.00  0.00    +0.145 HD
ATOM     35  H   UNL     1      37.266 -22.574 -10.507  0.00  0.00    +0.145 HD
ENDBRANCH  30  33
ENDBRANCH  25  26
BRANCH  25  36
ATOM     36  C   UNL     1      39.984 -26.059 -14.940  0.00  0.00    +0.153 C 
BRANCH  36  37
ATOM     37  O   UNL     1      40.520 -25.890 -16.247  0.00  0.00    -0.381 OA
ATOM     38  H   UNL     1      40.350 -26.688 -16.771  0.00  0.00    +0.210 HD
ENDBRANCH  36  37
ENDBRANCH  25  36
ENDBRANCH  24  25
ENDBRANCH  23  24
ENDBRANCH   1  23
TORSDOF 10
ENDMDL
MODEL 6
REMARK VINA RESULT:     -12.0      2.641     12.086
REMARK  Name = 447546
REMARK  10 active torsions:
REMARK  status: ('A' for Active; 'I' for Inactive)
REMARK    1  A    between atoms: N_1  and  C_23
REMARK    2  A    between atoms: C_8  and  N_11
REMARK    3  A    between atoms: N_12  and  C_16
REMARK    4  A    between atoms: C_16  and  C_17
REMARK    5  A    between atoms: C_23  and  C_24
REMARK    6  A    between atoms: C_24  and  C_25
REMARK    7  A    between atoms: C_25  and  N_26
REMARK    8  A    between atoms: C_25  and  C_36
REMARK    9  A    between atoms: C_30  and  C_33
REMARK   10  A    between atoms: C_36  and  O_37
REMARK                            x       y       z     vdW  Elec       q    Type
REMARK                         _______ _______ _______ _____ _____    ______ ____
ROOT
ATOM      1  N   UNL     1      33.141 -13.462 -22.291  0.00  0.00    -0.286 N 
ATOM      2  C   UNL     1      33.892 -14.603 -22.465  0.00  0.00    +0.053 C 
ATOM      3  C   UNL     1      34.384 -14.574 -23.772  0.00  0.00    +0.015 C 
ATOM      4  C   UNL     1      33.142 -12.716 -23.439  0.00  0.00    +0.065 C 
ATOM      5  C   UNL     1      33.903 -13.378 -24.373  0.00  0.00    +0.017 C 
ATOM      6  C   UNL     1      34.170 -15.647 -21.575  0.00  0.00    +0.030 C 
ATOM      7  C   UNL     1      35.193 -15.640 -24.215  0.00  0.00    +0.003 C 
ATOM      8  C   UNL     1      34.976 -16.692 -22.037  0.00  0.00    +0.053 C 
ATOM      9  C   UNL     1      35.481 -16.690 -23.336  0.00  0.00    +0.015 C 
ENDROOT
BRANCH   8  11
ATOM     10  O   UNL     1      34.882 -19.655 -22.503  0.00  0.00    -0.252 OA
ATOM     11  N   UNL     1      35.280 -17.751 -21.181  0.00  0.00    -0.268 N 
ATOM     12  N   UNL     1      35.608 -19.872 -20.318  0.00  0.00    -0.285 N 
ATOM     13  C   UNL     1      35.222 -19.135 -21.443  0.00  0.00    +0.305 C 
ATOM     14  H   UNL     1      35.574 -17.499 -20.276  0.00  0.00    +0.156 HD
ATOM     15  H   UNL     1      35.868 -19.384 -19.504  0.00  0.00    +0.151 HD
BRANCH  12  16
ATOM     16  C   UNL     1      35.645 -21.316 -20.297  0.00  0.00    +0.118 C 
BRANCH  16  17
ATOM     17  C   UNL     1      35.627 -21.858 -18.897  0.00  0.00    -0.003 C 
ATOM     18  C   UNL     1      34.487 -22.492 -18.408  0.00  0.00    -0.003 C 
ATOM     19  C   UNL     1      36.754 -21.726 -18.084  0.00  0.00    -0.003 C 
ATOM     20  C   UNL     1      34.471 -22.996 -17.107  0.00  0.00    -0.000 C 
ATOM     21  C   UNL     1      36.739 -22.230 -16.783  0.00  0.00    -0.000 C 
ATOM     22  C   UNL     1      35.597 -22.864 -16.295  0.00  0.00    -0.000 C 
ENDBRANCH  16  17
ENDBRANCH  12  16
ENDBRANCH   8  11
BRANCH   1  23
ATOM     23  C   UNL     1      32.444 -13.091 -21.078  0.00  0.00    +0.097 C 
BRANCH  23  24
ATOM     24  C   UNL     1      31.491 -11.898 -21.237  0.00  0.00    +0.040 C 
BRANCH  24  25
ATOM     25  C   UNL     1      32.030 -10.552 -20.702  0.00  0.00    +0.091 C 
BRANCH  25  26
ATOM     26  N   UNL     1      31.824  -9.426 -21.628  0.00  0.00    -0.246 NA
ATOM     27  N   UNL     1      31.447  -8.205 -23.443  0.00  0.00    -0.251 NA
ATOM     28  C   UNL     1      31.841  -8.090 -21.310  0.00  0.00    +0.125 C 
ATOM     29  C   UNL     1      31.583  -9.460 -22.920  0.00  0.00    +0.201 C 
ATOM     30  C   UNL     1      31.609  -7.313 -22.421  0.00  0.00    +0.124 C 
BRANCH  30  33
ATOM     31  O   UNL     1      30.880  -5.300 -23.422  0.00  0.00    -0.269 OA
ATOM     32  N   UNL     1      32.240  -5.123 -21.602  0.00  0.00    -0.324 N 
ATOM     33  C   UNL     1      31.543  -5.895 -22.539  0.00  0.00    +0.257 C 
ATOM     34  H   UNL     1      32.215  -4.141 -21.657  0.00  0.00    +0.145 HD
ATOM     35  H   UNL     1      32.757  -5.563 -20.889  0.00  0.00    +0.145 HD
ENDBRANCH  30  33
ENDBRANCH  25  26
BRANCH  25  36
ATOM     36  C   UNL     1      31.421 -10.234 -19.325  0.00  0.00    +0.153 C 
BRANCH  36  37
ATOM     37  O   UNL     1      32.457  -9.894 -18.411  0.00  0.00    -0.381 OA
ATOM     38  H   UNL     1      32.423 -10.493 -17.648  0.00  0.00    +0.210 HD
ENDBRANCH  36  37
ENDBRANCH  25  36
ENDBRANCH  24  25
ENDBRANCH  23  24
ENDBRANCH   1  23
TORSDOF 10
ENDMDL
MODEL 7
REMARK VINA RESULT:     -12.0      2.780     11.555
REMARK  Name = 447546
REMARK  10 active torsions:
REMARK  status: ('A' for Active; 'I' for Inactive)
REMARK    1  A    between atoms: N_1  and  C_23
REMARK    2  A    between atoms: C_8  and  N_11
REMARK    3  A    between atoms: N_12  and  C_16
REMARK    4  A    between atoms: C_16  and  C_17
REMARK    5  A    between atoms: C_23  and  C_24
REMARK    6  A    between atoms: C_24  and  C_25
REMARK    7  A    between atoms: C_25  and  N_26
REMARK    8  A    between atoms: C_25  and  C_36
REMARK    9  A    between atoms: C_30  and  C_33
REMARK   10  A    between atoms: C_36  and  O_37
REMARK                            x       y       z     vdW  Elec       q    Type
REMARK                         _______ _______ _______ _____ _____    ______ ____
ROOT
ATOM      1  N   UNL     1      33.826 -12.817 -24.750  0.00  0.00    -0.286 N 
ATOM      2  C   UNL     1      34.084 -14.153 -24.536  0.00  0.00    +0.053 C 
ATOM      3  C   UNL     1      33.708 -14.833 -25.698  0.00  0.00    +0.015 C 
ATOM      4  C   UNL     1      33.304 -12.631 -26.002  0.00  0.00    +0.065 C 
ATOM      5  C   UNL     1      33.219 -13.860 -26.612  0.00  0.00    +0.017 C 
ATOM      6  C   UNL     1      34.614 -14.804 -23.417  0.00  0.00    +0.030 C 
ATOM      7  C   UNL     1      33.870 -16.233 -25.745  0.00  0.00    +0.003 C 
ATOM      8  C   UNL     1      34.765 -16.192 -23.488  0.00  0.00    +0.053 C 
ATOM      9  C   UNL     1      34.400 -16.897 -24.633  0.00  0.00    +0.015 C 
ENDROOT
BRANCH   8  11
ATOM     10  O   UNL     1      35.747 -19.019 -23.259  0.00  0.00    -0.252 OA
ATOM     11  N   UNL     1      35.292 -16.880 -22.394  0.00  0.00    -0.268 N 
ATOM     12  N   UNL     1      36.202 -18.524 -21.046  0.00  0.00    -0.285 N 
ATOM     13  C   UNL     1      35.744 -18.213 -22.331  0.00  0.00    +0.305 C 
ATOM     14  H   UNL     1      35.359 -16.366 -21.557  0.00  0.00    +0.156 HD
ATOM     15  H   UNL     1      36.168 -17.826 -20.354  0.00  0.00    +0.151 HD
BRANCH  12  16
ATOM     16  C   UNL     1      36.724 -19.823 -20.689  0.00  0.00    +0.118 C 
BRANCH  16  17
ATOM     17  C   UNL     1      35.677 -20.696 -20.060  0.00  0.00    -0.003 C 
ATOM     18  C   UNL     1      36.038 -21.636 -19.097  0.00  0.00    -0.003 C 
ATOM     19  C   UNL     1      34.340 -20.565 -20.439  0.00  0.00    -0.003 C 
ATOM     20  C   UNL     1      35.065 -22.447 -18.513  0.00  0.00    -0.000 C 
ATOM     21  C   UNL     1      33.367 -21.375 -19.855  0.00  0.00    -0.000 C 
ATOM     22  C   UNL     1      33.729 -22.316 -18.892  0.00  0.00    -0.000 C 
ENDBRANCH  16  17
ENDBRANCH  12  16
ENDBRANCH   8  11
BRANCH   1  23
ATOM     23  C   UNL     1      34.065 -11.753 -23.799  0.00  0.00    +0.097 C 
BRANCH  23  24
ATOM     24  C   UNL     1      32.862 -10.826 -23.572  0.00  0.00    +0.040 C 
BRANCH  24  25
ATOM     25  C   UNL     1      32.525 -10.539 -22.092  0.00  0.00    +0.091 C 
BRANCH  25  26
ATOM     26  N   UNL     1      32.296  -9.112 -21.806  0.00  0.00    -0.246 NA
ATOM     27  N   UNL     1      32.246  -7.119 -20.830  0.00  0.00    -0.251 NA
ATOM     28  C   UNL     1      31.686  -8.200 -22.630  0.00  0.00    +0.125 C 
ATOM     29  C   UNL     1      32.622  -8.429 -20.731  0.00  0.00    +0.201 C 
ATOM     30  C   UNL     1      31.643  -6.955 -22.045  0.00  0.00    +0.124 C 
BRANCH  30  33
ATOM     31  O   UNL     1      31.076  -5.433 -23.763  0.00  0.00    -0.269 OA
ATOM     32  N   UNL     1      30.556  -4.832 -21.628  0.00  0.00    -0.324 N 
ATOM     33  C   UNL     1      31.104  -5.735 -22.546  0.00  0.00    +0.257 C 
ATOM     34  H   UNL     1      30.176  -3.980 -21.941  0.00  0.00    +0.145 HD
ATOM     35  H   UNL     1      30.550  -5.049 -20.667  0.00  0.00    +0.145 HD
ENDBRANCH  30  33
ENDBRANCH  25  26
BRANCH  25  36
ATOM     36  C   UNL     1      31.318 -11.378 -21.640  0.00  0.00    +0.153 C 
BRANCH  36  37
ATOM     37  O   UNL     1      31.590 -12.759 -21.847  0.00  0.00    -0.381 OA
ATOM     38  H   UNL     1      32.529 -12.874 -22.062  0.00  0.00    +0.210 HD
ENDBRANCH  36  37
ENDBRANCH  25  36
ENDBRANCH  24  25
ENDBRANCH  23  24
ENDBRANCH   1  23
TORSDOF 10
ENDMDL
MODEL 8
REMARK VINA RESULT:     -11.8      8.585     13.825
REMARK  Name = 447546
REMARK  10 active torsions:
REMARK  status: ('A' for Active; 'I' for Inactive)
REMARK    1  A    between atoms: N_1  and  C_23
REMARK    2  A    between atoms: C_8  and  N_11
REMARK    3  A    between atoms: N_12  and  C_16
REMARK    4  A    between atoms: C_16  and  C_17
REMARK    5  A    between atoms: C_23  and  C_24
REMARK    6  A    between atoms: C_24  and  C_25
REMARK    7  A    between atoms: C_25  and  N_26
REMARK    8  A    between atoms: C_25  and  C_36
REMARK    9  A    between atoms: C_30  and  C_33
REMARK   10  A    between atoms: C_36  and  O_37
REMARK                            x       y       z     vdW  Elec       q    Type
REMARK                         _______ _______ _______ _____ _____    ______ ____
ROOT
ATOM      1  N   UNL     1      32.956 -24.560 -14.363  0.00  0.00    -0.286 N 
ATOM      2  C   UNL     1      32.344 -23.909 -15.411  0.00  0.00    +0.053 C 
ATOM      3  C   UNL     1      30.966 -24.003 -15.203  0.00  0.00    +0.015 C 
ATOM      4  C   UNL     1      32.016 -25.059 -13.502  0.00  0.00    +0.065 C 
ATOM      5  C   UNL     1      30.775 -24.730 -13.995  0.00  0.00    +0.017 C 
ATOM      6  C   UNL     1      32.899 -23.252 -16.515  0.00  0.00    +0.030 C 
ATOM      7  C   UNL     1      30.097 -23.413 -16.142  0.00  0.00    +0.003 C 
ATOM      8  C   UNL     1      32.017 -22.674 -17.432  0.00  0.00    +0.053 C 
ATOM      9  C   UNL     1      30.638 -22.751 -17.250  0.00  0.00    +0.015 C 
ENDROOT
BRANCH   8  11
ATOM     10  O   UNL     1      34.833 -22.466 -18.449  0.00  0.00    -0.252 OA
ATOM     11  N   UNL     1      32.529 -22.007 -18.547  0.00  0.00    -0.268 N 
ATOM     12  N   UNL     1      33.965 -21.166 -20.152  0.00  0.00    -0.285 N 
ATOM     13  C   UNL     1      33.866 -21.937 -18.988  0.00  0.00    +0.305 C 
ATOM     14  H   UNL     1      31.870 -21.524 -19.096  0.00  0.00    +0.156 HD
ATOM     15  H   UNL     1      33.145 -20.773 -20.526  0.00  0.00    +0.151 HD
BRANCH  12  16
ATOM     16  C   UNL     1      35.218 -20.921 -20.830  0.00  0.00    +0.118 C 
BRANCH  16  17
ATOM     17  C   UNL     1      35.169 -19.676 -21.668  0.00  0.00    -0.003 C 
ATOM     18  C   UNL     1      34.934 -19.766 -23.039  0.00  0.00    -0.003 C 
ATOM     19  C   UNL     1      35.358 -18.428 -21.073  0.00  0.00    -0.003 C 
ATOM     20  C   UNL     1      34.889 -18.610 -23.817  0.00  0.00    -0.000 C 
ATOM     21  C   UNL     1      35.313 -17.271 -21.851  0.00  0.00    -0.000 C 
ATOM     22  C   UNL     1      35.078 -17.362 -23.223  0.00  0.00    -0.000 C 
ENDBRANCH  16  17
ENDBRANCH  12  16
ENDBRANCH   8  11
BRANCH   1  23
ATOM     23  C   UNL     1      34.385 -24.706 -14.183  0.00  0.00    +0.097 C 
BRANCH  23  24
ATOM     24  C   UNL     1      34.948 -23.954 -12.968  0.00  0.00    +0.040 C 
BRANCH  24  25
ATOM     25  C   UNL     1      35.907 -24.775 -12.076  0.00  0.00    +0.091 C 
BRANCH  25  26
ATOM     26  N   UNL     1      37.303 -24.762 -12.545  0.00  0.00    -0.246 NA
ATOM     27  N   UNL     1      39.458 -24.295 -12.799  0.00  0.00    -0.251 NA
ATOM     28  C   UNL     1      37.840 -25.540 -13.541  0.00  0.00    +0.125 C 
ATOM     29  C   UNL     1      38.304 -24.024 -12.120  0.00  0.00    +0.201 C 
ATOM     30  C   UNL     1      39.177 -25.268 -13.716  0.00  0.00    +0.124 C 
BRANCH  30  33
ATOM     31  O   UNL     1      40.921 -26.743 -14.324  0.00  0.00    -0.269 OA
ATOM     32  N   UNL     1      40.094 -25.382 -15.955  0.00  0.00    -0.324 N 
ATOM     33  C   UNL     1      40.107 -25.840 -14.631  0.00  0.00    +0.257 C 
ATOM     34  H   UNL     1      40.724 -25.756 -16.611  0.00  0.00    +0.145 HD
ATOM     35  H   UNL     1      39.455 -24.684 -16.228  0.00  0.00    +0.145 HD
ENDBRANCH  30  33
ENDBRANCH  25  26
BRANCH  25  36
ATOM     36  C   UNL     1      35.827 -24.299 -10.616  0.00  0.00    +0.153 C 
BRANCH  36  37
ATOM     37  O   UNL     1      35.356 -25.360  -9.792  0.00  0.00    -0.381 OA
ATOM     38  H   UNL     1      34.484 -25.648 -10.105  0.00  0.00    +0.210 HD
ENDBRANCH  36  37
ENDBRANCH  25  36
ENDBRANCH  24  25
ENDBRANCH  23  24
ENDBRANCH   1  23
TORSDOF 10
ENDMDL
MODEL 9
REMARK VINA RESULT:     -11.6      5.888     10.726
REMARK  Name = 447546
REMARK  10 active torsions:
REMARK  status: ('A' for Active; 'I' for Inactive)
REMARK    1  A    between atoms: N_1  and  C_23
REMARK    2  A    between atoms: C_8  and  N_11
REMARK    3  A    between atoms: N_12  and  C_16
REMARK    4  A    between atoms: C_16  and  C_17
REMARK    5  A    between atoms: C_23  and  C_24
REMARK    6  A    between atoms: C_24  and  C_25
REMARK    7  A    between atoms: C_25  and  N_26
REMARK    8  A    between atoms: C_25  and  C_36
REMARK    9  A    between atoms: C_30  and  C_33
REMARK   10  A    between atoms: C_36  and  O_37
REMARK                            x       y       z     vdW  Elec       q    Type
REMARK                         _______ _______ _______ _____ _____    ______ ____
ROOT
ATOM      1  N   UNL     1      34.697 -22.601 -18.266  0.00  0.00    -0.286 N 
ATOM      2  C   UNL     1      35.158 -21.687 -19.187  0.00  0.00    +0.053 C 
ATOM      3  C   UNL     1      36.452 -21.331 -18.799  0.00  0.00    +0.015 C 
ATOM      4  C   UNL     1      35.652 -22.835 -17.314  0.00  0.00    +0.065 C 
ATOM      5  C   UNL     1      36.750 -22.064 -17.617  0.00  0.00    +0.017 C 
ATOM      6  C   UNL     1      34.535 -21.153 -20.321  0.00  0.00    +0.030 C 
ATOM      7  C   UNL     1      37.161 -20.396 -19.580  0.00  0.00    +0.003 C 
ATOM      8  C   UNL     1      35.258 -20.228 -21.080  0.00  0.00    +0.053 C 
ATOM      9  C   UNL     1      36.551 -19.855 -20.717  0.00  0.00    +0.015 C 
ENDROOT
BRANCH   8  11
ATOM     10  O   UNL     1      36.433 -18.457 -23.199  0.00  0.00    -0.252 OA
ATOM     11  N   UNL     1      34.675 -19.673 -22.220  0.00  0.00    -0.268 N 
ATOM     12  N   UNL     1      34.341 -18.498 -24.184  0.00  0.00    -0.285 N 
ATOM     13  C   UNL     1      35.267 -18.844 -23.193  0.00  0.00    +0.305 C 
ATOM     14  H   UNL     1      33.725 -19.891 -22.364  0.00  0.00    +0.156 HD
ATOM     15  H   UNL     1      33.424 -18.847 -24.111  0.00  0.00    +0.151 HD
BRANCH  12  16
ATOM     16  C   UNL     1      34.670 -17.655 -25.310  0.00  0.00    +0.118 C 
BRANCH  16  17
ATOM     17  C   UNL     1      34.285 -16.223 -25.071  0.00  0.00    -0.003 C 
ATOM     18  C   UNL     1      33.427 -15.574 -25.956  0.00  0.00    -0.003 C 
ATOM     19  C   UNL     1      34.786 -15.543 -23.960  0.00  0.00    -0.003 C 
ATOM     20  C   UNL     1      33.069 -14.245 -25.734  0.00  0.00    -0.000 C 
ATOM     21  C   UNL     1      34.429 -14.213 -23.738  0.00  0.00    -0.000 C 
ATOM     22  C   UNL     1      33.570 -13.564 -24.625  0.00  0.00    -0.000 C 
ENDBRANCH  16  17
ENDBRANCH  12  16
ENDBRANCH   8  11
BRANCH   1  23
ATOM     23  C   UNL     1      33.394 -23.232 -18.287  0.00  0.00    +0.097 C 
BRANCH  23  24
ATOM     24  C   UNL     1      32.371 -22.599 -17.333  0.00  0.00    +0.040 C 
BRANCH  24  25
ATOM     25  C   UNL     1      31.670 -23.587 -16.374  0.00  0.00    +0.091 C 
BRANCH  25  26
ATOM     26  N   UNL     1      32.315 -23.685 -15.054  0.00  0.00    -0.246 NA
ATOM     27  N   UNL     1      32.738 -23.563 -12.878  0.00  0.00    -0.251 NA
ATOM     28  C   UNL     1      33.559 -24.200 -14.785  0.00  0.00    +0.125 C 
ATOM     29  C   UNL     1      31.848 -23.310 -13.883  0.00  0.00    +0.201 C 
ATOM     30  C   UNL     1      33.843 -24.136 -13.441  0.00  0.00    +0.124 C 
BRANCH  30  33
ATOM     31  O   UNL     1      35.229 -24.292 -11.532  0.00  0.00    -0.269 OA
ATOM     32  N   UNL     1      35.953 -25.324 -13.430  0.00  0.00    -0.324 N 
ATOM     33  C   UNL     1      35.009 -24.555 -12.739  0.00  0.00    +0.257 C 
ATOM     34  H   UNL     1      36.769 -25.629 -12.974  0.00  0.00    +0.145 HD
ATOM     35  H   UNL     1      35.800 -25.560 -14.374  0.00  0.00    +0.145 HD
ENDBRANCH  30  33
ENDBRANCH  25  26
BRANCH  25  36
ATOM     36  C   UNL     1      30.183 -23.228 -16.220  0.00  0.00    +0.153 C 
BRANCH  36  37
ATOM     37  O   UNL     1      29.759 -22.455 -17.337  0.00  0.00    -0.381 OA
ATOM     38  H   UNL     1      30.224 -22.756 -18.133  0.00  0.00    +0.210 HD
ENDBRANCH  36  37
ENDBRANCH  25  36
ENDBRANCH  24  25
ENDBRANCH  23  24
ENDBRANCH   1  23
TORSDOF 10
ENDMDL
