MODEL 1
REMARK VINA RESULT:     -13.7      0.000      0.000
REMARK  Name = 9808844
REMARK  5 active torsions:
REMARK  status: ('A' for Active; 'I' for Inactive)
REMARK    1  A    between atoms: N_2  and  C_13
REMARK    2  A    between atoms: C_8  and  O_19
REMARK    3  A    between atoms: O_19  and  C_20
REMARK    4  A    between atoms: C_20  and  C_22
REMARK    5  A    between atoms: C_25  and  C_29
REMARK                            x       y       z     vdW  Elec       q    Type
REMARK                         _______ _______ _______ _____ _____    ______ ____
ROOT
ATOM      1  O   UNL     1      35.327 -22.890 -17.438  0.00  0.00    -0.446 OA
ATOM      2  N   UNL     1      35.683 -19.802 -20.957  0.00  0.00    -0.296 N 
ATOM      3  N   UNL     1      33.586 -20.833 -20.456  0.00  0.00    -0.130 NA
ATOM      4  N   UNL     1      32.783 -21.693 -19.716  0.00  0.00    -0.106 NA
ATOM      5  C   UNL     1      35.456 -21.409 -19.139  0.00  0.00    +0.076 A 
ATOM      6  C   UNL     1      34.626 -22.259 -18.420  0.00  0.00    +0.202 A 
ATOM      7  C   UNL     1      34.902 -20.681 -20.186  0.00  0.00    +0.157 A 
ATOM      8  C   UNL     1      33.284 -22.415 -18.694  0.00  0.00    +0.279 A 
ATOM      9  C   UNL     1      36.741 -21.538 -18.550  0.00  0.00    +0.047 C 
ATOM     10  C   UNL     1      36.608 -22.446 -17.524  0.00  0.00    +0.180 C 
ATOM     11  H   UNL     1      36.626 -19.766 -20.678  0.00  0.00    +0.154 HD
ENDROOT
BRANCH   2  13
ATOM     12 CL   UNL     1      34.427 -16.272 -25.541  0.00  0.00    -0.082 Cl
ATOM     13  C   UNL     1      35.383 -18.961 -22.049  0.00  0.00    +0.049 C 
ATOM     14  C   UNL     1      35.058 -19.515 -23.287  0.00  0.00    +0.016 C 
ATOM     15  C   UNL     1      35.412 -17.575 -21.891  0.00  0.00    +0.016 C 
ATOM     16  C   UNL     1      34.763 -18.683 -24.367  0.00  0.00    +0.013 C 
ATOM     17  C   UNL     1      35.116 -16.744 -22.970  0.00  0.00    +0.013 C 
ATOM     18  C   UNL     1      34.791 -17.298 -24.208  0.00  0.00    +0.058 C 
ENDBRANCH   2  13
BRANCH   8  19
ATOM     19  O   UNL     1      32.457 -23.251 -17.991  0.00  0.00    -0.452 OA
BRANCH  19  20
ATOM     20  C   UNL     1      32.238 -22.932 -16.621  0.00  0.00    +0.234 C 
BRANCH  20  22
ATOM     21  N   UNL     1      28.402 -24.432 -15.435  0.00  0.00    -0.239 NA
ATOM     22  C   UNL     1      30.894 -23.457 -16.206  0.00  0.00    +0.024 C 
ATOM     23  C   UNL     1      29.749 -22.745 -16.522  0.00  0.00    +0.023 C 
ATOM     24  C   UNL     1      30.808 -24.651 -15.508  0.00  0.00    +0.020 C 
ATOM     25  C   UNL     1      28.533 -23.272 -16.116  0.00  0.00    +0.134 C 
ATOM     26  C   UNL     1      29.545 -25.093 -15.147  0.00  0.00    +0.099 C 
BRANCH  25  29
ATOM     27  O   UNL     1      26.417 -22.438 -15.545  0.00  0.00    -0.268 OA
ATOM     28  N   UNL     1      27.155 -22.052 -17.708  0.00  0.00    -0.298 N 
ATOM     29  C   UNL     1      27.295 -22.575 -16.417  0.00  0.00    +0.264 C 
ATOM     30  C   UNL     1      25.995 -21.314 -18.152  0.00  0.00    +0.111 C 
ATOM     31  H   UNL     1      27.888 -22.195 -18.350  0.00  0.00    +0.150 HD
ENDBRANCH  25  29
ENDBRANCH  20  22
ENDBRANCH  19  20
ENDBRANCH   8  19
TORSDOF 5
ENDMDL
MODEL 2
REMARK VINA RESULT:     -13.6      2.477      3.986
REMARK  Name = 9808844
REMARK  5 active torsions:
REMARK  status: ('A' for Active; 'I' for Inactive)
REMARK    1  A    between atoms: N_2  and  C_13
REMARK    2  A    between atoms: C_8  and  O_19
REMARK    3  A    between atoms: O_19  and  C_20
REMARK    4  A    between atoms: C_20  and  C_22
REMARK    5  A    between atoms: C_25  and  C_29
REMARK                            x       y       z     vdW  Elec       q    Type
REMARK                         _______ _______ _______ _____ _____    ______ ____
ROOT
ATOM      1  O   UNL     1      35.553 -22.801 -17.514  0.00  0.00    -0.446 OA
ATOM      2  N   UNL     1      35.707 -19.699 -21.035  0.00  0.00    -0.296 N 
ATOM      3  N   UNL     1      33.680 -20.857 -20.528  0.00  0.00    -0.130 NA
ATOM      4  N   UNL     1      32.935 -21.765 -19.785  0.00  0.00    -0.106 NA
ATOM      5  C   UNL     1      35.586 -21.316 -19.216  0.00  0.00    +0.076 A 
ATOM      6  C   UNL     1      34.812 -22.215 -18.495  0.00  0.00    +0.202 A 
ATOM      7  C   UNL     1      34.985 -20.624 -20.262  0.00  0.00    +0.157 A 
ATOM      8  C   UNL     1      33.481 -22.454 -18.764  0.00  0.00    +0.279 A 
ATOM      9  C   UNL     1      36.878 -21.364 -18.630  0.00  0.00    +0.047 C 
ATOM     10  C   UNL     1      36.805 -22.278 -17.604  0.00  0.00    +0.180 C 
ATOM     11  H   UNL     1      36.647 -19.604 -20.759  0.00  0.00    +0.154 HD
ENDROOT
BRANCH   2  13
ATOM     12 CL   UNL     1      34.223 -16.255 -25.617  0.00  0.00    -0.082 Cl
ATOM     13  C   UNL     1      35.353 -18.878 -22.127  0.00  0.00    +0.049 C 
ATOM     14  C   UNL     1      35.007 -19.454 -23.348  0.00  0.00    +0.016 C 
ATOM     15  C   UNL     1      35.350 -17.490 -21.984  0.00  0.00    +0.016 C 
ATOM     16  C   UNL     1      34.657 -18.644 -24.428  0.00  0.00    +0.013 C 
ATOM     17  C   UNL     1      35.000 -16.680 -23.063  0.00  0.00    +0.013 C 
ATOM     18  C   UNL     1      34.653 -17.256 -24.284  0.00  0.00    +0.058 C 
ENDBRANCH   2  13
BRANCH   8  19
ATOM     19  O   UNL     1      32.710 -23.340 -18.059  0.00  0.00    -0.452 OA
BRANCH  19  20
ATOM     20  C   UNL     1      31.841 -22.790 -17.076  0.00  0.00    +0.234 C 
BRANCH  20  22
ATOM     21  N   UNL     1      32.364 -24.924 -13.396  0.00  0.00    -0.239 NA
ATOM     22  C   UNL     1      32.025 -23.537 -15.787  0.00  0.00    +0.024 C 
ATOM     23  C   UNL     1      33.229 -23.454 -15.108  0.00  0.00    +0.023 C 
ATOM     24  C   UNL     1      30.988 -24.307 -15.284  0.00  0.00    +0.020 C 
ATOM     25  C   UNL     1      33.348 -24.162 -13.923  0.00  0.00    +0.134 C 
ATOM     26  C   UNL     1      31.207 -24.977 -14.092  0.00  0.00    +0.099 C 
BRANCH  25  29
ATOM     27  O   UNL     1      34.688 -24.726 -12.083  0.00  0.00    -0.268 OA
ATOM     28  N   UNL     1      35.643 -23.382 -13.712  0.00  0.00    -0.298 N 
ATOM     29  C   UNL     1      34.585 -24.116 -13.163  0.00  0.00    +0.264 C 
ATOM     30  C   UNL     1      36.942 -23.262 -13.089  0.00  0.00    +0.111 C 
ATOM     31  H   UNL     1      35.496 -22.924 -14.571  0.00  0.00    +0.150 HD
ENDBRANCH  25  29
ENDBRANCH  20  22
ENDBRANCH  19  20
ENDBRANCH   8  19
TORSDOF 5
ENDMDL
MODEL 3
REMARK VINA RESULT:     -13.2      7.526     11.318
REMARK  Name = 9808844
REMARK  5 active torsions:
REMARK  status: ('A' for Active; 'I' for Inactive)
REMARK    1  A    between atoms: N_2  and  C_13
REMARK    2  A    between atoms: C_8  and  O_19
REMARK    3  A    between atoms: O_19  and  C_20
REMARK    4  A    between atoms: C_20  and  C_22
REMARK    5  A    between atoms: C_25  and  C_29
REMARK                            x       y       z     vdW  Elec       q    Type
REMARK                         _______ _______ _______ _____ _____    ______ ____
ROOT
ATOM      1  O   UNL     1      33.416 -13.908 -25.334  0.00  0.00    -0.446 OA
ATOM      2  N   UNL     1      34.988 -17.757 -23.154  0.00  0.00    -0.296 N 
ATOM      3  N   UNL     1      34.481 -15.781 -21.909  0.00  0.00    -0.130 NA
ATOM      4  N   UNL     1      34.050 -14.463 -21.816  0.00  0.00    -0.106 NA
ATOM      5  C   UNL     1      34.170 -15.739 -24.248  0.00  0.00    +0.076 A 
ATOM      6  C   UNL     1      33.744 -14.424 -24.117  0.00  0.00    +0.202 A 
ATOM      7  C   UNL     1      34.546 -16.424 -23.097  0.00  0.00    +0.157 A 
ATOM      8  C   UNL     1      33.676 -13.767 -22.907  0.00  0.00    +0.279 A 
ATOM      9  C   UNL     1      34.093 -16.033 -25.634  0.00  0.00    +0.047 C 
ATOM     10  C   UNL     1      33.630 -14.891 -26.247  0.00  0.00    +0.180 C 
ATOM     11  H   UNL     1      34.998 -18.131 -24.064  0.00  0.00    +0.154 HD
ENDROOT
BRANCH   2  13
ATOM     12 CL   UNL     1      36.794 -21.575 -19.005  0.00  0.00    -0.082 Cl
ATOM     13  C   UNL     1      35.418 -18.667 -22.165  0.00  0.00    +0.049 C 
ATOM     14  C   UNL     1      34.518 -19.582 -21.620  0.00  0.00    +0.016 C 
ATOM     15  C   UNL     1      36.744 -18.652 -21.733  0.00  0.00    +0.016 C 
ATOM     16  C   UNL     1      34.943 -20.482 -20.643  0.00  0.00    +0.013 C 
ATOM     17  C   UNL     1      37.170 -19.551 -20.756  0.00  0.00    +0.013 C 
ATOM     18  C   UNL     1      36.269 -20.466 -20.212  0.00  0.00    +0.058 C 
ENDBRANCH   2  13
BRANCH   8  19
ATOM     19  O   UNL     1      33.259 -12.470 -22.769  0.00  0.00    -0.452 OA
BRANCH  19  20
ATOM     20  C   UNL     1      31.959 -12.270 -22.226  0.00  0.00    +0.234 C 
BRANCH  20  22
ATOM     21  N   UNL     1      31.986  -8.739 -19.796  0.00  0.00    -0.239 NA
ATOM     22  C   UNL     1      31.968 -11.033 -21.375  0.00  0.00    +0.024 C 
ATOM     23  C   UNL     1      31.955  -9.785 -21.975  0.00  0.00    +0.023 C 
ATOM     24  C   UNL     1      31.991 -11.148 -19.994  0.00  0.00    +0.020 C 
ATOM     25  C   UNL     1      31.964  -8.675 -21.146  0.00  0.00    +0.134 C 
ATOM     26  C   UNL     1      32.000  -9.977 -19.254  0.00  0.00    +0.099 C 
BRANCH  25  29
ATOM     27  O   UNL     1      32.335  -6.361 -21.041  0.00  0.00    -0.268 OA
ATOM     28  N   UNL     1      31.512  -7.210 -23.036  0.00  0.00    -0.298 N 
ATOM     29  C   UNL     1      31.950  -7.337 -21.712  0.00  0.00    +0.264 C 
ATOM     30  C   UNL     1      31.464  -5.952 -23.745  0.00  0.00    +0.111 C 
ATOM     31  H   UNL     1      31.222  -8.022 -23.510  0.00  0.00    +0.150 HD
ENDBRANCH  25  29
ENDBRANCH  20  22
ENDBRANCH  19  20
ENDBRANCH   8  19
TORSDOF 5
ENDMDL
MODEL 4
REMARK VINA RESULT:     -13.0      6.766     10.613
REMARK  Name = 9808844
REMARK  5 active torsions:
REMARK  status: ('A' for Active; 'I' for Inactive)
REMARK    1  A    between atoms: N_2  and  C_13
REMARK    2  A    between atoms: C_8  and  O_19
REMARK    3  A    between atoms: O_19  and  C_20
REMARK    4  A    between atoms: C_20  and  C_22
REMARK    5  A    between atoms: C_25  and  C_29
REMARK                            x       y       z     vdW  Elec       q    Type
REMARK                         _______ _______ _______ _____ _____    ______ ____
ROOT
ATOM      1  O   UNL     1      32.872 -14.712 -21.826  0.00  0.00    -0.446 OA
ATOM      2  N   UNL     1      32.510 -10.089 -22.560  0.00  0.00    -0.296 N 
ATOM      3  N   UNL     1      33.420 -11.517 -24.247  0.00  0.00    -0.130 NA
ATOM      4  N   UNL     1      33.801 -12.763 -24.729  0.00  0.00    -0.106 NA
ATOM      5  C   UNL     1      32.714 -12.493 -22.218  0.00  0.00    +0.076 A 
ATOM      6  C   UNL     1      33.106 -13.722 -22.731  0.00  0.00    +0.202 A 
ATOM      7  C   UNL     1      32.884 -11.366 -23.014  0.00  0.00    +0.157 A 
ATOM      8  C   UNL     1      33.652 -13.878 -23.988  0.00  0.00    +0.279 A 
ATOM      9  C   UNL     1      32.211 -12.762 -20.918  0.00  0.00    +0.047 C 
ATOM     10  C   UNL     1      32.328 -14.120 -20.730  0.00  0.00    +0.180 C 
ATOM     11  H   UNL     1      32.132 -10.090 -21.652  0.00  0.00    +0.154 HD
ENDROOT
BRANCH   2  13
ATOM     12 CL   UNL     1      32.756  -4.710 -25.023  0.00  0.00    -0.082 Cl
ATOM     13  C   UNL     1      32.569  -8.807 -23.147  0.00  0.00    +0.049 C 
ATOM     14  C   UNL     1      33.799  -8.169 -23.306  0.00  0.00    +0.016 C 
ATOM     15  C   UNL     1      31.397  -8.179 -23.569  0.00  0.00    +0.016 C 
ATOM     16  C   UNL     1      33.857  -6.902 -23.886  0.00  0.00    +0.013 C 
ATOM     17  C   UNL     1      31.455  -6.913 -24.149  0.00  0.00    +0.013 C 
ATOM     18  C   UNL     1      32.685  -6.274 -24.307  0.00  0.00    +0.058 C 
ENDBRANCH   2  13
BRANCH   8  19
ATOM     19  O   UNL     1      34.043 -15.087 -24.502  0.00  0.00    -0.452 OA
BRANCH  19  20
ATOM     20  C   UNL     1      35.312 -15.580 -24.088  0.00  0.00    +0.234 C 
BRANCH  20  22
ATOM     21  N   UNL     1      34.979 -19.774 -23.268  0.00  0.00    -0.239 NA
ATOM     22  C   UNL     1      35.196 -17.048 -23.800  0.00  0.00    +0.024 C 
ATOM     23  C   UNL     1      35.687 -17.558 -22.610  0.00  0.00    +0.023 C 
ATOM     24  C   UNL     1      34.597 -17.886 -24.729  0.00  0.00    +0.020 C 
ATOM     25  C   UNL     1      35.555 -18.920 -22.392  0.00  0.00    +0.134 C 
ATOM     26  C   UNL     1      34.514 -19.233 -24.417  0.00  0.00    +0.099 C 
BRANCH  25  29
ATOM     27  O   UNL     1      36.967 -18.976 -20.521  0.00  0.00    -0.268 OA
ATOM     28  N   UNL     1      35.431 -20.700 -20.737  0.00  0.00    -0.298 N 
ATOM     29  C   UNL     1      36.049 -19.517 -21.164  0.00  0.00    +0.264 C 
ATOM     30  C   UNL     1      35.793 -21.400 -19.525  0.00  0.00    +0.111 C 
ATOM     31  H   UNL     1      34.710 -21.075 -21.293  0.00  0.00    +0.150 HD
ENDBRANCH  25  29
ENDBRANCH  20  22
ENDBRANCH  19  20
ENDBRANCH   8  19
TORSDOF 5
ENDMDL
MODEL 5
REMARK VINA RESULT:     -13.0      6.439     10.739
REMARK  Name = 9808844
REMARK  5 active torsions:
REMARK  status: ('A' for Active; 'I' for Inactive)
REMARK    1  A    between atoms: N_2  and  C_13
REMARK    2  A    between atoms: C_8  and  O_19
REMARK    3  A    between atoms: O_19  and  C_20
REMARK    4  A    between atoms: C_20  and  C_22
REMARK    5  A    between atoms: C_25  and  C_29
REMARK                            x       y       z     vdW  Elec       q    Type
REMARK                         _______ _______ _______ _____ _____    ______ ____
ROOT
ATOM      1  O   UNL     1      34.875 -16.049 -24.802  0.00  0.00    -0.446 OA
ATOM      2  N   UNL     1      34.912 -19.749 -21.912  0.00  0.00    -0.296 N 
ATOM      3  N   UNL     1      34.846 -17.527 -21.035  0.00  0.00    -0.130 NA
ATOM      4  N   UNL     1      34.816 -16.146 -21.186  0.00  0.00    -0.106 NA
ATOM      5  C   UNL     1      34.891 -17.803 -23.378  0.00  0.00    +0.076 A 
ATOM      6  C   UNL     1      34.861 -16.419 -23.491  0.00  0.00    +0.202 A 
ATOM      7  C   UNL     1      34.883 -18.357 -22.102  0.00  0.00    +0.157 A 
ATOM      8  C   UNL     1      34.823 -15.572 -22.405  0.00  0.00    +0.279 A 
ATOM      9  C   UNL     1      34.925 -18.297 -24.708  0.00  0.00    +0.047 C 
ATOM     10  C   UNL     1      34.913 -17.195 -25.532  0.00  0.00    +0.180 C 
ATOM     11  H   UNL     1      34.938 -20.261 -22.752  0.00  0.00    +0.154 HD
ENDROOT
BRANCH   2  13
ATOM     12 CL   UNL     1      34.904 -23.147 -17.064  0.00  0.00    -0.082 Cl
ATOM     13  C   UNL     1      34.910 -20.559 -20.756  0.00  0.00    +0.049 C 
ATOM     14  C   UNL     1      36.116 -20.910 -20.150  0.00  0.00    +0.016 C 
ATOM     15  C   UNL     1      33.703 -21.007 -20.221  0.00  0.00    +0.016 C 
ATOM     16  C   UNL     1      36.114 -21.710 -19.008  0.00  0.00    +0.013 C 
ATOM     17  C   UNL     1      33.701 -21.808 -19.079  0.00  0.00    +0.013 C 
ATOM     18  C   UNL     1      34.906 -22.159 -18.473  0.00  0.00    +0.058 C 
ENDBRANCH   2  13
BRANCH   8  19
ATOM     19  O   UNL     1      34.794 -14.206 -22.507  0.00  0.00    -0.452 OA
BRANCH  19  20
ATOM     20  C   UNL     1      33.921 -13.655 -23.486  0.00  0.00    +0.234 C 
BRANCH  20  22
ATOM     21  N   UNL     1      31.643 -10.492 -21.703  0.00  0.00    -0.239 NA
ATOM     22  C   UNL     1      33.124 -12.546 -22.862  0.00  0.00    +0.024 C 
ATOM     23  C   UNL     1      33.178 -11.272 -23.400  0.00  0.00    +0.023 C 
ATOM     24  C   UNL     1      32.338 -12.806 -21.749  0.00  0.00    +0.020 C 
ATOM     25  C   UNL     1      32.423 -10.284 -22.787  0.00  0.00    +0.134 C 
ATOM     26  C   UNL     1      31.621 -11.750 -21.210  0.00  0.00    +0.099 C 
BRANCH  25  29
ATOM     27  O   UNL     1      31.374  -8.362 -23.626  0.00  0.00    -0.268 OA
ATOM     28  N   UNL     1      33.679  -8.291 -23.393  0.00  0.00    -0.298 N 
ATOM     29  C   UNL     1      32.435  -8.927 -23.303  0.00  0.00    +0.264 C 
ATOM     30  C   UNL     1      33.853  -6.935 -23.863  0.00  0.00    +0.111 C 
ATOM     31  H   UNL     1      34.480  -8.794 -23.120  0.00  0.00    +0.150 HD
ENDBRANCH  25  29
ENDBRANCH  20  22
ENDBRANCH  19  20
ENDBRANCH   8  19
TORSDOF 5
ENDMDL
MODEL 6
REMARK VINA RESULT:     -12.8      2.809      4.443
REMARK  Name = 9808844
REMARK  5 active torsions:
REMARK  status: ('A' for Active; 'I' for Inactive)
REMARK    1  A    between atoms: N_2  and  C_13
REMARK    2  A    between atoms: C_8  and  O_19
REMARK    3  A    between atoms: O_19  and  C_20
REMARK    4  A    between atoms: C_20  and  C_22
REMARK    5  A    between atoms: C_25  and  C_29
REMARK                            x       y       z     vdW  Elec       q    Type
REMARK                         _______ _______ _______ _____ _____    ______ ____
ROOT
ATOM      1  O   UNL     1      35.585 -22.285 -18.381  0.00  0.00    -0.446 OA
ATOM      2  N   UNL     1      35.535 -19.169 -21.892  0.00  0.00    -0.296 N 
ATOM      3  N   UNL     1      33.490 -20.052 -21.026  0.00  0.00    -0.130 NA
ATOM      4  N   UNL     1      32.772 -20.864 -20.157  0.00  0.00    -0.106 NA
ATOM      5  C   UNL     1      35.518 -20.787 -20.070  0.00  0.00    +0.076 A 
ATOM      6  C   UNL     1      34.769 -21.587 -19.218  0.00  0.00    +0.202 A 
ATOM      7  C   UNL     1      34.842 -20.002 -20.997  0.00  0.00    +0.157 A 
ATOM      8  C   UNL     1      33.391 -21.639 -19.246  0.00  0.00    +0.279 A 
ATOM      9  C   UNL     1      36.875 -21.021 -19.723  0.00  0.00    +0.047 C 
ATOM     10  C   UNL     1      36.860 -21.935 -18.695  0.00  0.00    +0.180 C 
ATOM     11  H   UNL     1      36.513 -19.206 -21.788  0.00  0.00    +0.154 HD
ENDROOT
BRANCH   2  13
ATOM     12 CL   UNL     1      33.747 -15.472 -26.157  0.00  0.00    -0.082 Cl
ATOM     13  C   UNL     1      35.109 -18.287 -22.908  0.00  0.00    +0.049 C 
ATOM     14  C   UNL     1      34.691 -18.793 -24.139  0.00  0.00    +0.016 C 
ATOM     15  C   UNL     1      35.106 -16.911 -22.682  0.00  0.00    +0.016 C 
ATOM     16  C   UNL     1      34.270 -17.923 -25.143  0.00  0.00    +0.013 C 
ATOM     17  C   UNL     1      34.684 -16.041 -23.686  0.00  0.00    +0.013 C 
ATOM     18  C   UNL     1      34.266 -16.546 -24.917  0.00  0.00    +0.058 C 
ENDBRANCH   2  13
BRANCH   8  19
ATOM     19  O   UNL     1      32.643 -22.425 -18.409  0.00  0.00    -0.452 OA
BRANCH  19  20
ATOM     20  C   UNL     1      33.254 -23.621 -17.939  0.00  0.00    +0.234 C 
BRANCH  20  22
ATOM     21  N   UNL     1      33.047 -23.702 -13.658  0.00  0.00    -0.239 NA
ATOM     22  C   UNL     1      33.182 -23.650 -16.440  0.00  0.00    +0.024 C 
ATOM     23  C   UNL     1      34.322 -23.919 -15.700  0.00  0.00    +0.023 C 
ATOM     24  C   UNL     1      31.974 -23.407 -15.804  0.00  0.00    +0.020 C 
ATOM     25  C   UNL     1      34.203 -23.933 -14.320  0.00  0.00    +0.134 C 
ATOM     26  C   UNL     1      31.960 -23.445 -14.419  0.00  0.00    +0.099 C 
BRANCH  25  29
ATOM     27  O   UNL     1      35.952 -25.301 -13.565  0.00  0.00    -0.268 OA
ATOM     28  N   UNL     1      35.782 -23.188 -12.626  0.00  0.00    -0.298 N 
ATOM     29  C   UNL     1      35.360 -24.208 -13.487  0.00  0.00    +0.264 C 
ATOM     30  C   UNL     1      36.929 -23.300 -11.754  0.00  0.00    +0.111 C 
ATOM     31  H   UNL     1      35.270 -22.347 -12.614  0.00  0.00    +0.150 HD
ENDBRANCH  25  29
ENDBRANCH  20  22
ENDBRANCH  19  20
ENDBRANCH   8  19
TORSDOF 5
ENDMDL
MODEL 7
REMARK VINA RESULT:     -12.8      5.412      8.984
REMARK  Name = 9808844
REMARK  5 active torsions:
REMARK  status: ('A' for Active; 'I' for Inactive)
REMARK    1  A    between atoms: N_2  and  C_13
REMARK    2  A    between atoms: C_8  and  O_19
REMARK    3  A    between atoms: O_19  and  C_20
REMARK    4  A    between atoms: C_20  and  C_22
REMARK    5  A    between atoms: C_25  and  C_29
REMARK                            x       y       z     vdW  Elec       q    Type
REMARK                         _______ _______ _______ _____ _____    ______ ____
ROOT
ATOM      1  O   UNL     1      34.164 -16.064 -25.759  0.00  0.00    -0.446 OA
ATOM      2  N   UNL     1      32.614 -12.245 -23.512  0.00  0.00    -0.296 N 
ATOM      3  N   UNL     1      34.037 -13.810 -22.401  0.00  0.00    -0.130 NA
ATOM      4  N   UNL     1      34.791 -14.977 -22.366  0.00  0.00    -0.106 NA
ATOM      5  C   UNL     1      33.440 -14.239 -24.643  0.00  0.00    +0.076 A 
ATOM      6  C   UNL     1      34.202 -15.397 -24.573  0.00  0.00    +0.202 A 
ATOM      7  C   UNL     1      33.366 -13.432 -23.513  0.00  0.00    +0.157 A 
ATOM      8  C   UNL     1      34.887 -15.784 -23.441  0.00  0.00    +0.279 A 
ATOM      9  C   UNL     1      32.909 -14.207 -25.959  0.00  0.00    +0.047 C 
ATOM     10  C   UNL     1      33.378 -15.334 -26.594  0.00  0.00    +0.180 C 
ATOM     11  H   UNL     1      32.165 -12.062 -24.369  0.00  0.00    +0.154 HD
ENDROOT
BRANCH   2  13
ATOM     12 CL   UNL     1      31.607  -8.123 -19.383  0.00  0.00    -0.082 Cl
ATOM     13  C   UNL     1      32.374 -11.262 -22.528  0.00  0.00    +0.049 C 
ATOM     14  C   UNL     1      31.776 -11.618 -21.320  0.00  0.00    +0.016 C 
ATOM     15  C   UNL     1      32.736  -9.936 -22.764  0.00  0.00    +0.016 C 
ATOM     16  C   UNL     1      31.538 -10.647 -20.347  0.00  0.00    +0.013 C 
ATOM     17  C   UNL     1      32.499  -8.965 -21.791  0.00  0.00    +0.013 C 
ATOM     18  C   UNL     1      31.900  -9.321 -20.583  0.00  0.00    +0.058 C 
ENDBRANCH   2  13
BRANCH   8  19
ATOM     19  O   UNL     1      35.640 -16.926 -23.361  0.00  0.00    -0.452 OA
BRANCH  19  20
ATOM     20  C   UNL     1      34.935 -18.162 -23.393  0.00  0.00    +0.234 C 
BRANCH  20  22
ATOM     21  N   UNL     1      36.058 -20.495 -19.977  0.00  0.00    -0.239 NA
ATOM     22  C   UNL     1      35.327 -18.979 -22.196  0.00  0.00    +0.024 C 
ATOM     23  C   UNL     1      34.400 -19.816 -21.599  0.00  0.00    +0.023 C 
ATOM     24  C   UNL     1      36.617 -18.890 -21.696  0.00  0.00    +0.020 C 
ATOM     25  C   UNL     1      34.812 -20.549 -20.499  0.00  0.00    +0.134 C 
ATOM     26  C   UNL     1      36.930 -19.665 -20.590  0.00  0.00    +0.099 C 
BRANCH  25  29
ATOM     27  O   UNL     1      32.707 -21.542 -20.210  0.00  0.00    -0.268 OA
ATOM     28  N   UNL     1      34.393 -22.201 -18.761  0.00  0.00    -0.298 N 
ATOM     29  C   UNL     1      33.887 -21.446 -19.827  0.00  0.00    +0.264 C 
ATOM     30  C   UNL     1      33.605 -23.152 -18.010  0.00  0.00    +0.111 C 
ATOM     31  H   UNL     1      35.336 -22.077 -18.510  0.00  0.00    +0.150 HD
ENDBRANCH  25  29
ENDBRANCH  20  22
ENDBRANCH  19  20
ENDBRANCH   8  19
TORSDOF 5
ENDMDL
MODEL 8
REMARK VINA RESULT:     -12.5      8.707     12.442
REMARK  Name = 9808844
REMARK  5 active torsions:
REMARK  status: ('A' for Active; 'I' for Inactive)
REMARK    1  A    between atoms: N_2  and  C_13
REMARK    2  A    between atoms: C_8  and  O_19
REMARK    3  A    between atoms: O_19  and  C_20
REMARK    4  A    between atoms: C_20  and  C_22
REMARK    5  A    between atoms: C_25  and  C_29
REMARK                            x       y       z     vdW  Elec       q    Type
REMARK                         _______ _______ _______ _____ _____    ______ ____
ROOT
ATOM      1  O   UNL     1      31.496 -10.737 -19.652  0.00  0.00    -0.446 OA
ATOM      2  N   UNL     1      33.044  -7.416 -22.587  0.00  0.00    -0.296 N 
ATOM      3  N   UNL     1      32.858  -9.685 -23.314  0.00  0.00    -0.130 NA
ATOM      4  N   UNL     1      32.544 -11.022 -23.103  0.00  0.00    -0.106 NA
ATOM      5  C   UNL     1      32.245  -9.168 -21.095  0.00  0.00    +0.076 A 
ATOM      6  C   UNL     1      31.941 -10.512 -20.919  0.00  0.00    +0.202 A 
ATOM      7  C   UNL     1      32.717  -8.760 -22.337  0.00  0.00    +0.157 A 
ATOM      8  C   UNL     1      32.084 -11.456 -21.913  0.00  0.00    +0.279 A 
ATOM      9  C   UNL     1      31.963  -8.544 -19.851  0.00  0.00    +0.047 C 
ATOM     10  C   UNL     1      31.512  -9.538 -19.012  0.00  0.00    +0.180 C 
ATOM     11  H   UNL     1      32.905  -6.826 -21.812  0.00  0.00    +0.154 HD
ENDROOT
BRANCH   2  13
ATOM     12 CL   UNL     1      35.087  -4.595 -27.376  0.00  0.00    -0.082 Cl
ATOM     13  C   UNL     1      33.531  -6.744 -23.729  0.00  0.00    +0.049 C 
ATOM     14  C   UNL     1      34.871  -6.869 -24.093  0.00  0.00    +0.016 C 
ATOM     15  C   UNL     1      32.671  -5.954 -24.492  0.00  0.00    +0.016 C 
ATOM     16  C   UNL     1      35.352  -6.205 -25.221  0.00  0.00    +0.013 C 
ATOM     17  C   UNL     1      33.152  -5.290 -25.620  0.00  0.00    +0.013 C 
ATOM     18  C   UNL     1      34.493  -5.416 -25.984  0.00  0.00    +0.058 C 
ENDBRANCH   2  13
BRANCH   8  19
ATOM     19  O   UNL     1      31.788 -12.784 -21.749  0.00  0.00    -0.452 OA
BRANCH  19  20
ATOM     20  C   UNL     1      32.679 -13.543 -20.940  0.00  0.00    +0.234 C 
BRANCH  20  22
ATOM     21  N   UNL     1      34.917 -16.206 -23.444  0.00  0.00    -0.239 NA
ATOM     22  C   UNL     1      33.463 -14.475 -21.818  0.00  0.00    +0.024 C 
ATOM     23  C   UNL     1      33.376 -14.360 -23.195  0.00  0.00    +0.023 C 
ATOM     24  C   UNL     1      34.268 -15.447 -21.243  0.00  0.00    +0.020 C 
ATOM     25  C   UNL     1      34.120 -15.244 -23.960  0.00  0.00    +0.134 C 
ATOM     26  C   UNL     1      34.971 -16.283 -22.096  0.00  0.00    +0.099 C 
BRANCH  25  29
ATOM     27  O   UNL     1      34.400 -16.159 -26.102  0.00  0.00    -0.268 OA
ATOM     28  N   UNL     1      33.629 -13.976 -25.978  0.00  0.00    -0.298 N 
ATOM     29  C   UNL     1      34.074 -15.176 -25.410  0.00  0.00    +0.264 C 
ATOM     30  C   UNL     1      33.506 -13.761 -27.402  0.00  0.00    +0.111 C 
ATOM     31  H   UNL     1      33.387 -13.238 -25.374  0.00  0.00    +0.150 HD
ENDBRANCH  25  29
ENDBRANCH  20  22
ENDBRANCH  19  20
ENDBRANCH   8  19
TORSDOF 5
ENDMDL
MODEL 9
REMARK VINA RESULT:     -12.1      8.280     12.164
REMARK  Name = 9808844
REMARK  5 active torsions:
REMARK  status: ('A' for Active; 'I' for Inactive)
REMARK    1  A    between atoms: N_2  and  C_13
REMARK    2  A    between atoms: C_8  and  O_19
REMARK    3  A    between atoms: O_19  and  C_20
REMARK    4  A    between atoms: C_20  and  C_22
REMARK    5  A    between atoms: C_25  and  C_29
REMARK                            x       y       z     vdW  Elec       q    Type
REMARK                         _______ _______ _______ _____ _____    ______ ____
ROOT
ATOM      1  O   UNL     1      31.691 -11.233 -20.011  0.00  0.00    -0.446 OA
ATOM      2  N   UNL     1      32.938  -7.591 -22.698  0.00  0.00    -0.296 N 
ATOM      3  N   UNL     1      33.002  -9.816 -23.567  0.00  0.00    -0.130 NA
ATOM      4  N   UNL     1      32.825 -11.190 -23.446  0.00  0.00    -0.106 NA
ATOM      5  C   UNL     1      32.298  -9.508 -21.336  0.00  0.00    +0.076 A 
ATOM      6  C   UNL     1      32.133 -10.884 -21.250  0.00  0.00    +0.202 A 
ATOM      7  C   UNL     1      32.748  -8.975 -22.539  0.00  0.00    +0.157 A 
ATOM      8  C   UNL     1      32.392 -11.743 -22.297  0.00  0.00    +0.279 A 
ATOM      9  C   UNL     1      31.931  -8.996 -20.064  0.00  0.00    +0.047 C 
ATOM     10  C   UNL     1      31.570 -10.082 -19.299  0.00  0.00    +0.180 C 
ATOM     11  H   UNL     1      32.724  -7.069 -21.891  0.00  0.00    +0.154 HD
ENDROOT
BRANCH   2  13
ATOM     12 CL   UNL     1      34.762  -4.278 -27.253  0.00  0.00    -0.082 Cl
ATOM     13  C   UNL     1      33.372  -6.801 -23.784  0.00  0.00    +0.049 C 
ATOM     14  C   UNL     1      32.477  -5.948 -24.427  0.00  0.00    +0.016 C 
ATOM     15  C   UNL     1      34.698  -6.875 -24.212  0.00  0.00    +0.016 C 
ATOM     16  C   UNL     1      32.907  -5.167 -25.500  0.00  0.00    +0.013 C 
ATOM     17  C   UNL     1      35.127  -6.094 -25.285  0.00  0.00    +0.013 C 
ATOM     18  C   UNL     1      34.232  -5.240 -25.928  0.00  0.00    +0.058 C 
ENDBRANCH   2  13
BRANCH   8  19
ATOM     19  O   UNL     1      32.233 -13.102 -22.221  0.00  0.00    -0.452 OA
BRANCH  19  20
ATOM     20  C   UNL     1      33.296 -13.840 -21.630  0.00  0.00    +0.234 C 
BRANCH  20  22
ATOM     21  N   UNL     1      34.788 -16.668 -24.484  0.00  0.00    -0.239 NA
ATOM     22  C   UNL     1      33.819 -14.831 -22.629  0.00  0.00    +0.024 C 
ATOM     23  C   UNL     1      34.559 -15.919 -22.197  0.00  0.00    +0.023 C 
ATOM     24  C   UNL     1      33.559 -14.649 -23.978  0.00  0.00    +0.020 C 
ATOM     25  C   UNL     1      35.017 -16.804 -23.159  0.00  0.00    +0.134 C 
ATOM     26  C   UNL     1      34.063 -15.591 -24.860  0.00  0.00    +0.099 C 
BRANCH  25  29
ATOM     27  O   UNL     1      35.988 -18.898 -23.576  0.00  0.00    -0.268 OA
ATOM     28  N   UNL     1      36.335 -17.972 -21.479  0.00  0.00    -0.298 N 
ATOM     29  C   UNL     1      35.798 -17.967 -22.772  0.00  0.00    +0.264 C 
ATOM     30  C   UNL     1      37.152 -19.043 -20.956  0.00  0.00    +0.111 C 
ATOM     31  H   UNL     1      36.147 -17.203 -20.894  0.00  0.00    +0.150 HD
ENDBRANCH  25  29
ENDBRANCH  20  22
ENDBRANCH  19  20
ENDBRANCH   8  19
TORSDOF 5
ENDMDL
