MODEL 1
REMARK VINA RESULT:     -12.4      0.000      0.000
REMARK  Name = 9887812
REMARK  11 active torsions:
REMARK  status: ('A' for Active; 'I' for Inactive)
REMARK    1  A    between atoms: N_1  and  C_3
REMARK    2  A    between atoms: N_1  and  C_19
REMARK    3  A    between atoms: C_4  and  C_9
REMARK    4  A    between atoms: C_12  and  C_16
REMARK    5  A    between atoms: C_16  and  O_17
REMARK    6  A    between atoms: C_19  and  C_20
REMARK    7  A    between atoms: C_20  and  N_21
REMARK    8  A    between atoms: N_21  and  C_24
REMARK    9  A    between atoms: C_24  and  C_25
REMARK   10  A    between atoms: C_25  and  C_27
REMARK   11  A    between atoms: C_25  and  O_33
REMARK                            x       y       z     vdW  Elec       q    Type
REMARK                         _______ _______ _______ _____ _____    ______ ____
ROOT
ATOM      1  N   UNL     1      35.049 -15.001 -23.440  0.00  0.00    -0.335 N 
ATOM      2  H   UNL     1      35.912 -14.612 -23.173  0.00  0.00    +0.147 HD
ENDROOT
BRANCH   1   3
ATOM      3  C   UNL     1      34.964 -16.398 -23.613  0.00  0.00    +0.045 C 
ATOM      4  C   UNL     1      35.152 -18.634 -22.715  0.00  0.00    +0.001 C 
ATOM      5  C   UNL     1      35.235 -17.251 -22.543  0.00  0.00    +0.014 C 
ATOM      6  C   UNL     1      34.611 -16.928 -24.854  0.00  0.00    +0.014 C 
ATOM      7  C   UNL     1      34.799 -19.163 -23.957  0.00  0.00    +0.000 C 
ATOM      8  C   UNL     1      34.529 -18.309 -25.027  0.00  0.00    +0.001 C 
BRANCH   4   9
ATOM      9  C   UNL     1      35.433 -19.518 -21.605  0.00  0.00    +0.000 C 
ATOM     10  C   UNL     1      34.417 -20.311 -21.069  0.00  0.00    +0.006 C 
ATOM     11  C   UNL     1      36.720 -19.578 -21.071  0.00  0.00    +0.000 C 
ATOM     12  C   UNL     1      34.689 -21.162 -19.999  0.00  0.00    +0.075 C 
ATOM     13  C   UNL     1      36.992 -20.430 -20.000  0.00  0.00    +0.000 C 
ATOM     14  C   UNL     1      35.976 -21.223 -19.464  0.00  0.00    +0.006 C 
BRANCH  12  16
ATOM     15  O   UNL     1      32.558 -21.573 -18.992  0.00  0.00    -0.245 OA
ATOM     16  C   UNL     1      33.631 -21.990 -19.441  0.00  0.00    +0.338 C 
BRANCH  16  17
ATOM     17  O   UNL     1      33.943 -23.315 -19.457  0.00  0.00    -0.477 OA
ATOM     18  H   UNL     1      34.498 -23.674 -18.794  0.00  0.00    +0.295 HD
ENDBRANCH  16  17
ENDBRANCH  12  16
ENDBRANCH   4   9
ENDBRANCH   1   3
BRANCH   1  19
ATOM     19  C   UNL     1      33.934 -14.126 -23.634  0.00  0.00    +0.064 C 
BRANCH  19  20
ATOM     20  C   UNL     1      32.979 -14.244 -22.454  0.00  0.00    -0.060 C 
BRANCH  20  21
ATOM     21  N   UNL     1      32.007 -13.158 -22.476  0.00  0.00    +0.387 N 
ATOM     22  H   UNL     1      31.328 -13.334 -23.217  0.00  0.00    -0.084 HD
ATOM     23  H   UNL     1      31.542 -13.118 -21.570  0.00  0.00    -0.084 HD
BRANCH  21  24
ATOM     24  C   UNL     1      32.661 -11.881 -22.722  0.00  0.00    -0.047 C 
BRANCH  24  25
ATOM     25  C   UNL     1      31.911 -10.741 -22.021  0.00  0.00    +0.112 C 
BRANCH  25  27
ATOM     26 CL   UNL     1      35.247  -7.139 -23.736  0.00  0.00    -0.082 Cl
ATOM     27  C   UNL     1      32.141  -9.417 -22.717  0.00  0.00    +0.003 C 
ATOM     28  C   UNL     1      33.435  -8.954 -22.880  0.00  0.00    +0.009 C 
ATOM     29  C   UNL     1      31.051  -8.698 -23.178  0.00  0.00    -0.002 C 
ATOM     30  C   UNL     1      33.646  -7.734 -23.522  0.00  0.00    +0.057 C 
ATOM     31  C   UNL     1      31.262  -7.478 -23.820  0.00  0.00    +0.001 C 
ATOM     32  C   UNL     1      32.559  -6.996 -23.993  0.00  0.00    +0.011 C 
ENDBRANCH  25  27
BRANCH  25  33
ATOM     33  O   UNL     1      30.509 -11.003 -22.013  0.00  0.00    -0.382 OA
ATOM     34  H   UNL     1      30.288 -11.562 -21.251  0.00  0.00    +0.211 HD
ENDBRANCH  25  33
ENDBRANCH  24  25
ENDBRANCH  21  24
ENDBRANCH  20  21
ENDBRANCH  19  20
ENDBRANCH   1  19
TORSDOF 11
ENDMDL
MODEL 2
REMARK VINA RESULT:     -12.1      4.095     11.285
REMARK  Name = 9887812
REMARK  11 active torsions:
REMARK  status: ('A' for Active; 'I' for Inactive)
REMARK    1  A    between atoms: N_1  and  C_3
REMARK    2  A    between atoms: N_1  and  C_19
REMARK    3  A    between atoms: C_4  and  C_9
REMARK    4  A    between atoms: C_12  and  C_16
REMARK    5  A    between atoms: C_16  and  O_17
REMARK    6  A    between atoms: C_19  and  C_20
REMARK    7  A    between atoms: C_20  and  N_21
REMARK    8  A    between atoms: N_21  and  C_24
REMARK    9  A    between atoms: C_24  and  C_25
REMARK   10  A    between atoms: C_25  and  C_27
REMARK   11  A    between atoms: C_25  and  O_33
REMARK                            x       y       z     vdW  Elec       q    Type
REMARK                         _______ _______ _______ _____ _____    ______ ____
ROOT
ATOM      1  N   UNL     1      31.783 -12.518 -22.294  0.00  0.00    -0.335 N 
ATOM      2  H   UNL     1      31.223 -12.660 -23.091  0.00  0.00    +0.147 HD
ENDROOT
BRANCH   1   3
ATOM      3  C   UNL     1      31.971 -11.200 -21.830  0.00  0.00    +0.045 C 
ATOM      4  C   UNL     1      32.651  -8.916 -22.230  0.00  0.00    +0.001 C 
ATOM      5  C   UNL     1      32.466 -10.220 -22.690  0.00  0.00    +0.014 C 
ATOM      6  C   UNL     1      31.662 -10.875 -20.509  0.00  0.00    +0.014 C 
ATOM      7  C   UNL     1      32.343  -8.592 -20.909  0.00  0.00    +0.000 C 
ATOM      8  C   UNL     1      31.848  -9.572 -20.048  0.00  0.00    +0.001 C 
BRANCH   4   9
ATOM      9  C   UNL     1      33.165  -7.901 -23.123  0.00  0.00    +0.000 C 
ATOM     10  C   UNL     1      32.320  -6.899 -23.601  0.00  0.00    +0.006 C 
ATOM     11  C   UNL     1      34.506  -7.924 -23.506  0.00  0.00    +0.000 C 
ATOM     12  C   UNL     1      32.816  -5.921 -24.462  0.00  0.00    +0.075 C 
ATOM     13  C   UNL     1      35.002  -6.945 -24.368  0.00  0.00    +0.000 C 
ATOM     14  C   UNL     1      34.157  -5.943 -24.846  0.00  0.00    +0.006 C 
BRANCH  12  16
ATOM     15  O   UNL     1      32.139  -4.188 -25.966  0.00  0.00    -0.245 OA
ATOM     16  C   UNL     1      31.936  -4.875 -24.960  0.00  0.00    +0.338 C 
BRANCH  16  17
ATOM     17  O   UNL     1      30.826  -4.716 -24.187  0.00  0.00    -0.477 OA
ATOM     18  H   UNL     1      30.900  -4.730 -23.254  0.00  0.00    +0.295 HD
ENDBRANCH  16  17
ENDBRANCH  12  16
ENDBRANCH   4   9
ENDBRANCH   1   3
BRANCH   1  19
ATOM     19  C   UNL     1      32.368 -13.657 -21.657  0.00  0.00    +0.064 C 
BRANCH  19  20
ATOM     20  C   UNL     1      33.809 -13.819 -22.122  0.00  0.00    -0.060 C 
BRANCH  20  21
ATOM     21  N   UNL     1      33.900 -13.636 -23.566  0.00  0.00    +0.387 N 
ATOM     22  H   UNL     1      33.362 -12.811 -23.832  0.00  0.00    -0.084 HD
ATOM     23  H   UNL     1      34.881 -13.516 -23.818  0.00  0.00    -0.084 HD
BRANCH  21  24
ATOM     24  C   UNL     1      33.376 -14.797 -24.271  0.00  0.00    -0.047 C 
BRANCH  24  25
ATOM     25  C   UNL     1      34.491 -15.518 -25.039  0.00  0.00    +0.112 C 
BRANCH  25  27
ATOM     26 CL   UNL     1      36.497 -18.449 -21.242  0.00  0.00    -0.082 Cl
ATOM     27  C   UNL     1      34.755 -16.894 -24.470  0.00  0.00    +0.003 C 
ATOM     28  C   UNL     1      35.424 -17.011 -23.264  0.00  0.00    +0.009 C 
ATOM     29  C   UNL     1      34.319 -18.008 -25.167  0.00  0.00    -0.002 C 
ATOM     30  C   UNL     1      35.666 -18.281 -22.740  0.00  0.00    +0.057 C 
ATOM     31  C   UNL     1      34.561 -19.278 -24.643  0.00  0.00    +0.001 C 
ATOM     32  C   UNL     1      35.234 -19.414 -23.429  0.00  0.00    +0.011 C 
ENDBRANCH  25  27
BRANCH  25  33
ATOM     33  O   UNL     1      34.130 -15.664 -26.411  0.00  0.00    -0.382 OA
ATOM     34  H   UNL     1      33.259 -15.265 -26.562  0.00  0.00    +0.211 HD
ENDBRANCH  25  33
ENDBRANCH  24  25
ENDBRANCH  21  24
ENDBRANCH  20  21
ENDBRANCH  19  20
ENDBRANCH   1  19
TORSDOF 11
ENDMDL
MODEL 3
REMARK VINA RESULT:     -12.1      6.399     12.058
REMARK  Name = 9887812
REMARK  11 active torsions:
REMARK  status: ('A' for Active; 'I' for Inactive)
REMARK    1  A    between atoms: N_1  and  C_3
REMARK    2  A    between atoms: N_1  and  C_19
REMARK    3  A    between atoms: C_4  and  C_9
REMARK    4  A    between atoms: C_12  and  C_16
REMARK    5  A    between atoms: C_16  and  O_17
REMARK    6  A    between atoms: C_19  and  C_20
REMARK    7  A    between atoms: C_20  and  N_21
REMARK    8  A    between atoms: N_21  and  C_24
REMARK    9  A    between atoms: C_24  and  C_25
REMARK   10  A    between atoms: C_25  and  C_27
REMARK   11  A    between atoms: C_25  and  O_33
REMARK                            x       y       z     vdW  Elec       q    Type
REMARK                         _______ _______ _______ _____ _____    ______ ____
ROOT
ATOM      1  N   UNL     1      33.036 -22.303 -19.015  0.00  0.00    -0.335 N 
ATOM      2  H   UNL     1      32.169 -22.138 -19.450  0.00  0.00    +0.147 HD
ENDROOT
BRANCH   1   3
ATOM      3  C   UNL     1      34.179 -21.655 -19.527  0.00  0.00    +0.045 C 
ATOM      4  C   UNL     1      35.181 -20.061 -21.041  0.00  0.00    +0.001 C 
ATOM      5  C   UNL     1      34.049 -20.701 -20.535  0.00  0.00    +0.014 C 
ATOM      6  C   UNL     1      35.442 -21.969 -19.024  0.00  0.00    +0.014 C 
ATOM      7  C   UNL     1      36.444 -20.375 -20.538  0.00  0.00    +0.000 C 
ATOM      8  C   UNL     1      36.574 -21.331 -19.529  0.00  0.00    +0.001 C 
BRANCH   4   9
ATOM      9  C   UNL     1      35.045 -19.072 -22.088  0.00  0.00    +0.000 C 
ATOM     10  C   UNL     1      35.029 -17.714 -21.767  0.00  0.00    +0.006 C 
ATOM     11  C   UNL     1      34.930 -19.476 -23.418  0.00  0.00    +0.000 C 
ATOM     12  C   UNL     1      34.897 -16.761 -22.777  0.00  0.00    +0.075 C 
ATOM     13  C   UNL     1      34.798 -18.523 -24.427  0.00  0.00    +0.000 C 
ATOM     14  C   UNL     1      34.781 -17.165 -24.107  0.00  0.00    +0.006 C 
BRANCH  12  16
ATOM     15  O   UNL     1      34.993 -14.418 -23.253  0.00  0.00    -0.245 OA
ATOM     16  C   UNL     1      34.881 -15.345 -22.444  0.00  0.00    +0.338 C 
BRANCH  16  17
ATOM     17  O   UNL     1      34.726 -15.126 -21.109  0.00  0.00    -0.477 OA
ATOM     18  H   UNL     1      34.636 -14.252 -20.786  0.00  0.00    +0.295 HD
ENDBRANCH  16  17
ENDBRANCH  12  16
ENDBRANCH   4   9
ENDBRANCH   1   3
BRANCH   1  19
ATOM     19  C   UNL     1      33.080 -23.187 -17.891  0.00  0.00    +0.064 C 
BRANCH  19  20
ATOM     20  C   UNL     1      31.904 -22.899 -16.968  0.00  0.00    -0.060 C 
BRANCH  20  21
ATOM     21  N   UNL     1      31.977 -23.737 -15.777  0.00  0.00    +0.387 N 
ATOM     22  H   UNL     1      31.103 -23.653 -15.257  0.00  0.00    -0.084 HD
ATOM     23  H   UNL     1      32.127 -24.703 -16.067  0.00  0.00    -0.084 HD
BRANCH  21  24
ATOM     24  C   UNL     1      33.083 -23.329 -14.922  0.00  0.00    -0.047 C 
BRANCH  24  25
ATOM     25  C   UNL     1      33.915 -24.543 -14.490  0.00  0.00    +0.112 C 
BRANCH  25  27
ATOM     26 CL   UNL     1      38.835 -25.741 -13.311  0.00  0.00    -0.082 Cl
ATOM     27  C   UNL     1      35.392 -24.310 -14.716  0.00  0.00    +0.003 C 
ATOM     28  C   UNL     1      36.311 -25.049 -13.991  0.00  0.00    +0.009 C 
ATOM     29  C   UNL     1      35.793 -23.365 -15.645  0.00  0.00    -0.002 C 
ATOM     30  C   UNL     1      37.674 -24.834 -14.201  0.00  0.00    +0.057 C 
ATOM     31  C   UNL     1      37.155 -23.150 -15.853  0.00  0.00    +0.001 C 
ATOM     32  C   UNL     1      38.096 -23.885 -15.132  0.00  0.00    +0.011 C 
ENDBRANCH  25  27
BRANCH  25  33
ATOM     33  O   UNL     1      33.712 -24.813 -13.105  0.00  0.00    -0.382 OA
ATOM     34  H   UNL     1      33.482 -25.748 -12.987  0.00  0.00    +0.211 HD
ENDBRANCH  25  33
ENDBRANCH  24  25
ENDBRANCH  21  24
ENDBRANCH  20  21
ENDBRANCH  19  20
ENDBRANCH   1  19
TORSDOF 11
ENDMDL
MODEL 4
REMARK VINA RESULT:     -12.1      2.937      4.910
REMARK  Name = 9887812
REMARK  11 active torsions:
REMARK  status: ('A' for Active; 'I' for Inactive)
REMARK    1  A    between atoms: N_1  and  C_3
REMARK    2  A    between atoms: N_1  and  C_19
REMARK    3  A    between atoms: C_4  and  C_9
REMARK    4  A    between atoms: C_12  and  C_16
REMARK    5  A    between atoms: C_16  and  O_17
REMARK    6  A    between atoms: C_19  and  C_20
REMARK    7  A    between atoms: C_20  and  N_21
REMARK    8  A    between atoms: N_21  and  C_24
REMARK    9  A    between atoms: C_24  and  C_25
REMARK   10  A    between atoms: C_25  and  C_27
REMARK   11  A    between atoms: C_25  and  O_33
REMARK                            x       y       z     vdW  Elec       q    Type
REMARK                         _______ _______ _______ _____ _____    ______ ____
ROOT
ATOM      1  N   UNL     1      31.452 -12.198 -21.412  0.00  0.00    -0.335 N 
ATOM      2  H   UNL     1      31.059 -12.958 -20.925  0.00  0.00    +0.147 HD
ENDROOT
BRANCH   1   3
ATOM      3  C   UNL     1      32.398 -12.464 -22.423  0.00  0.00    +0.045 C 
ATOM      4  C   UNL     1      33.758 -14.034 -23.657  0.00  0.00    +0.001 C 
ATOM      5  C   UNL     1      32.822 -13.772 -22.656  0.00  0.00    +0.014 C 
ATOM      6  C   UNL     1      32.912 -11.418 -23.190  0.00  0.00    +0.014 C 
ATOM      7  C   UNL     1      34.272 -12.988 -24.424  0.00  0.00    +0.000 C 
ATOM      8  C   UNL     1      33.849 -11.679 -24.190  0.00  0.00    +0.001 C 
BRANCH   4   9
ATOM      9  C   UNL     1      34.198 -15.391 -23.898  0.00  0.00    +0.000 C 
ATOM     10  C   UNL     1      34.937 -16.069 -22.928  0.00  0.00    +0.006 C 
ATOM     11  C   UNL     1      33.882 -16.022 -25.102  0.00  0.00    +0.000 C 
ATOM     12  C   UNL     1      35.360 -17.377 -23.162  0.00  0.00    +0.075 C 
ATOM     13  C   UNL     1      34.306 -17.331 -25.335  0.00  0.00    +0.000 C 
ATOM     14  C   UNL     1      35.045 -18.008 -24.365  0.00  0.00    +0.006 C 
BRANCH  12  16
ATOM     15  O   UNL     1      35.749 -18.327 -21.001  0.00  0.00    -0.245 OA
ATOM     16  C   UNL     1      36.130 -18.084 -22.151  0.00  0.00    +0.338 C 
BRANCH  16  17
ATOM     17  O   UNL     1      37.356 -18.469 -22.604  0.00  0.00    -0.477 OA
ATOM     18  H   UNL     1      38.126 -18.230 -22.128  0.00  0.00    +0.295 HD
ENDBRANCH  16  17
ENDBRANCH  12  16
ENDBRANCH   4   9
ENDBRANCH   1   3
BRANCH   1  19
ATOM     19  C   UNL     1      31.037 -10.874 -21.065  0.00  0.00    +0.064 C 
BRANCH  19  20
ATOM     20  C   UNL     1      31.573 -10.515 -19.686  0.00  0.00    -0.060 C 
BRANCH  20  21
ATOM     21  N   UNL     1      31.820  -9.081 -19.595  0.00  0.00    +0.387 N 
ATOM     22  H   UNL     1      31.031  -8.636 -19.125  0.00  0.00    -0.084 HD
ATOM     23  H   UNL     1      32.679  -8.931 -19.066  0.00  0.00    -0.084 HD
BRANCH  21  24
ATOM     24  C   UNL     1      31.979  -8.496 -20.919  0.00  0.00    -0.047 C 
BRANCH  24  25
ATOM     25  C   UNL     1      33.409  -7.978 -21.118  0.00  0.00    +0.112 C 
BRANCH  25  27
ATOM     26 CL   UNL     1      31.392  -4.735 -24.647  0.00  0.00    -0.082 Cl
ATOM     27  C   UNL     1      33.554  -7.245 -22.433  0.00  0.00    +0.003 C 
ATOM     28  C   UNL     1      32.524  -6.430 -22.871  0.00  0.00    +0.009 C 
ATOM     29  C   UNL     1      34.715  -7.404 -23.171  0.00  0.00    -0.002 C 
ATOM     30  C   UNL     1      32.660  -5.754 -24.084  0.00  0.00    +0.057 C 
ATOM     31  C   UNL     1      34.850  -6.728 -24.383  0.00  0.00    +0.001 C 
ATOM     32  C   UNL     1      33.823  -5.903 -24.839  0.00  0.00    +0.011 C 
ENDBRANCH  25  27
BRANCH  25  33
ATOM     33  O   UNL     1      33.760  -7.080 -20.066  0.00  0.00    -0.382 OA
ATOM     34  H   UNL     1      34.096  -6.253 -20.445  0.00  0.00    +0.211 HD
ENDBRANCH  25  33
ENDBRANCH  24  25
ENDBRANCH  21  24
ENDBRANCH  20  21
ENDBRANCH  19  20
ENDBRANCH   1  19
TORSDOF 11
ENDMDL
MODEL 5
REMARK VINA RESULT:     -12.1      5.960     11.686
REMARK  Name = 9887812
REMARK  11 active torsions:
REMARK  status: ('A' for Active; 'I' for Inactive)
REMARK    1  A    between atoms: N_1  and  C_3
REMARK    2  A    between atoms: N_1  and  C_19
REMARK    3  A    between atoms: C_4  and  C_9
REMARK    4  A    between atoms: C_12  and  C_16
REMARK    5  A    between atoms: C_16  and  O_17
REMARK    6  A    between atoms: C_19  and  C_20
REMARK    7  A    between atoms: C_20  and  N_21
REMARK    8  A    between atoms: N_21  and  C_24
REMARK    9  A    between atoms: C_24  and  C_25
REMARK   10  A    between atoms: C_25  and  C_27
REMARK   11  A    between atoms: C_25  and  O_33
REMARK                            x       y       z     vdW  Elec       q    Type
REMARK                         _______ _______ _______ _____ _____    ______ ____
ROOT
ATOM      1  N   UNL     1      33.098 -22.318 -19.351  0.00  0.00    -0.335 N 
ATOM      2  H   UNL     1      32.539 -22.769 -20.025  0.00  0.00    +0.147 HD
ENDROOT
BRANCH   1   3
ATOM      3  C   UNL     1      34.224 -21.591 -19.788  0.00  0.00    +0.045 C 
ATOM      4  C   UNL     1      35.200 -19.891 -21.201  0.00  0.00    +0.001 C 
ATOM      5  C   UNL     1      34.085 -20.610 -20.769  0.00  0.00    +0.014 C 
ATOM      6  C   UNL     1      35.480 -21.854 -19.239  0.00  0.00    +0.014 C 
ATOM      7  C   UNL     1      36.455 -20.154 -20.652  0.00  0.00    +0.000 C 
ATOM      8  C   UNL     1      36.595 -21.137 -19.671  0.00  0.00    +0.001 C 
BRANCH   4   9
ATOM      9  C   UNL     1      35.054 -18.874 -22.218  0.00  0.00    +0.000 C 
ATOM     10  C   UNL     1      35.025 -17.525 -21.859  0.00  0.00    +0.006 C 
ATOM     11  C   UNL     1      34.943 -19.240 -23.560  0.00  0.00    +0.000 C 
ATOM     12  C   UNL     1      34.884 -16.546 -22.841  0.00  0.00    +0.075 C 
ATOM     13  C   UNL     1      34.802 -18.260 -24.542  0.00  0.00    +0.000 C 
ATOM     14  C   UNL     1      34.773 -16.912 -24.182  0.00  0.00    +0.006 C 
BRANCH  12  16
ATOM     15  O   UNL     1      34.919 -14.189 -23.253  0.00  0.00    -0.245 OA
ATOM     16  C   UNL     1      34.855 -15.140 -22.467  0.00  0.00    +0.338 C 
BRANCH  16  17
ATOM     17  O   UNL     1      34.746 -14.961 -21.122  0.00  0.00    -0.477 OA
ATOM     18  H   UNL     1      35.338 -14.388 -20.677  0.00  0.00    +0.295 HD
ENDBRANCH  16  17
ENDBRANCH  12  16
ENDBRANCH   4   9
ENDBRANCH   1   3
BRANCH   1  19
ATOM     19  C   UNL     1      32.729 -22.427 -17.973  0.00  0.00    +0.064 C 
BRANCH  19  20
ATOM     20  C   UNL     1      33.480 -23.587 -17.333  0.00  0.00    -0.060 C 
BRANCH  20  21
ATOM     21  N   UNL     1      34.145 -23.148 -16.112  0.00  0.00    +0.387 N 
ATOM     22  H   UNL     1      35.146 -23.331 -16.193  0.00  0.00    -0.084 HD
ATOM     23  H   UNL     1      33.975 -22.150 -15.989  0.00  0.00    -0.084 HD
BRANCH  21  24
ATOM     24  C   UNL     1      33.623 -23.856 -14.952  0.00  0.00    -0.047 C 
BRANCH  24  25
ATOM     25  C   UNL     1      32.448 -23.091 -14.330  0.00  0.00    +0.112 C 
BRANCH  25  27
ATOM     26 CL   UNL     1      27.708 -22.492 -16.382  0.00  0.00    -0.082 Cl
ATOM     27  C   UNL     1      31.121 -23.703 -14.719  0.00  0.00    +0.003 C 
ATOM     28  C   UNL     1      30.152 -22.903 -15.299  0.00  0.00    +0.009 C 
ATOM     29  C   UNL     1      30.904 -25.050 -14.487  0.00  0.00    -0.002 C 
ATOM     30  C   UNL     1      28.928 -23.468 -15.659  0.00  0.00    +0.057 C 
ATOM     31  C   UNL     1      29.680 -25.615 -14.846  0.00  0.00    +0.001 C 
ATOM     32  C   UNL     1      28.692 -24.824 -15.432  0.00  0.00    +0.011 C 
ENDBRANCH  25  27
BRANCH  25  33
ATOM     33  O   UNL     1      32.547 -23.107 -12.907  0.00  0.00    -0.382 OA
ATOM     34  H   UNL     1      31.657 -23.094 -12.520  0.00  0.00    +0.211 HD
ENDBRANCH  25  33
ENDBRANCH  24  25
ENDBRANCH  21  24
ENDBRANCH  20  21
ENDBRANCH  19  20
ENDBRANCH   1  19
TORSDOF 11
ENDMDL
MODEL 6
REMARK VINA RESULT:     -12.0      2.745      4.055
REMARK  Name = 9887812
REMARK  11 active torsions:
REMARK  status: ('A' for Active; 'I' for Inactive)
REMARK    1  A    between atoms: N_1  and  C_3
REMARK    2  A    between atoms: N_1  and  C_19
REMARK    3  A    between atoms: C_4  and  C_9
REMARK    4  A    between atoms: C_12  and  C_16
REMARK    5  A    between atoms: C_16  and  O_17
REMARK    6  A    between atoms: C_19  and  C_20
REMARK    7  A    between atoms: C_20  and  N_21
REMARK    8  A    between atoms: N_21  and  C_24
REMARK    9  A    between atoms: C_24  and  C_25
REMARK   10  A    between atoms: C_25  and  C_27
REMARK   11  A    between atoms: C_25  and  O_33
REMARK                            x       y       z     vdW  Elec       q    Type
REMARK                         _______ _______ _______ _____ _____    ______ ____
ROOT
ATOM      1  N   UNL     1      34.138 -12.246 -23.466  0.00  0.00    -0.335 N 
ATOM      2  H   UNL     1      34.769 -12.330 -22.715  0.00  0.00    +0.147 HD
ENDROOT
BRANCH   1   3
ATOM      3  C   UNL     1      33.971 -13.348 -24.330  0.00  0.00    +0.045 C 
ATOM      4  C   UNL     1      34.221 -15.708 -24.786  0.00  0.00    +0.001 C 
ATOM      5  C   UNL     1      34.387 -14.618 -23.930  0.00  0.00    +0.014 C 
ATOM      6  C   UNL     1      33.391 -13.168 -25.586  0.00  0.00    +0.014 C 
ATOM      7  C   UNL     1      33.641 -15.528 -26.041  0.00  0.00    +0.000 C 
ATOM      8  C   UNL     1      33.226 -14.257 -26.441  0.00  0.00    +0.001 C 
BRANCH   4   9
ATOM      9  C   UNL     1      34.653 -17.025 -24.370  0.00  0.00    +0.000 C 
ATOM     10  C   UNL     1      35.573 -17.162 -23.330  0.00  0.00    +0.006 C 
ATOM     11  C   UNL     1      34.148 -18.157 -25.010  0.00  0.00    +0.000 C 
ATOM     12  C   UNL     1      35.988 -18.432 -22.932  0.00  0.00    +0.075 C 
ATOM     13  C   UNL     1      34.565 -19.427 -24.611  0.00  0.00    +0.000 C 
ATOM     14  C   UNL     1      35.485 -19.565 -23.571  0.00  0.00    +0.006 C 
BRANCH  12  16
ATOM     15  O   UNL     1      36.662 -18.694 -20.650  0.00  0.00    -0.245 OA
ATOM     16  C   UNL     1      36.947 -18.577 -21.847  0.00  0.00    +0.338 C 
BRANCH  16  17
ATOM     17  O   UNL     1      38.236 -18.570 -22.286  0.00  0.00    -0.477 OA
ATOM     18  H   UNL     1      38.837 -19.220 -21.981  0.00  0.00    +0.295 HD
ENDBRANCH  16  17
ENDBRANCH  12  16
ENDBRANCH   4   9
ENDBRANCH   1   3
BRANCH   1  19
ATOM     19  C   UNL     1      33.430 -11.014 -23.631  0.00  0.00    +0.064 C 
BRANCH  19  20
ATOM     20  C   UNL     1      32.366 -10.887 -22.550  0.00  0.00    -0.060 C 
BRANCH  20  21
ATOM     21  N   UNL     1      31.728  -9.578 -22.617  0.00  0.00    +0.387 N 
ATOM     22  H   UNL     1      32.145  -9.043 -23.379  0.00  0.00    -0.084 HD
ATOM     23  H   UNL     1      30.730  -9.709 -22.779  0.00  0.00    -0.084 HD
BRANCH  21  24
ATOM     24  C   UNL     1      31.906  -8.849 -21.368  0.00  0.00    -0.047 C 
BRANCH  24  25
ATOM     25  C   UNL     1      33.273  -8.153 -21.334  0.00  0.00    +0.112 C 
BRANCH  25  27
ATOM     26 CL   UNL     1      31.548  -4.602 -24.718  0.00  0.00    -0.082 Cl
ATOM     27  C   UNL     1      33.510  -7.336 -22.585  0.00  0.00    +0.003 C 
ATOM     28  C   UNL     1      32.531  -6.456 -23.013  0.00  0.00    +0.009 C 
ATOM     29  C   UNL     1      34.702  -7.485 -23.273  0.00  0.00    -0.002 C 
ATOM     30  C   UNL     1      32.751  -5.703 -24.167  0.00  0.00    +0.057 C 
ATOM     31  C   UNL     1      34.921  -6.732 -24.426  0.00  0.00    +0.001 C 
ATOM     32  C   UNL     1      33.947  -5.840 -24.873  0.00  0.00    +0.011 C 
ENDBRANCH  25  27
BRANCH  25  33
ATOM     33  O   UNL     1      33.354  -7.280 -20.209  0.00  0.00    -0.382 OA
ATOM     34  H   UNL     1      33.659  -6.406 -20.499  0.00  0.00    +0.211 HD
ENDBRANCH  25  33
ENDBRANCH  24  25
ENDBRANCH  21  24
ENDBRANCH  20  21
ENDBRANCH  19  20
ENDBRANCH   1  19
TORSDOF 11
ENDMDL
MODEL 7
REMARK VINA RESULT:     -12.0      5.019      8.679
REMARK  Name = 9887812
REMARK  11 active torsions:
REMARK  status: ('A' for Active; 'I' for Inactive)
REMARK    1  A    between atoms: N_1  and  C_3
REMARK    2  A    between atoms: N_1  and  C_19
REMARK    3  A    between atoms: C_4  and  C_9
REMARK    4  A    between atoms: C_12  and  C_16
REMARK    5  A    between atoms: C_16  and  O_17
REMARK    6  A    between atoms: C_19  and  C_20
REMARK    7  A    between atoms: C_20  and  N_21
REMARK    8  A    between atoms: N_21  and  C_24
REMARK    9  A    between atoms: C_24  and  C_25
REMARK   10  A    between atoms: C_25  and  C_27
REMARK   11  A    between atoms: C_25  and  O_33
REMARK                            x       y       z     vdW  Elec       q    Type
REMARK                         _______ _______ _______ _____ _____    ______ ____
ROOT
ATOM      1  N   UNL     1      35.032 -22.313 -18.592  0.00  0.00    -0.335 N 
ATOM      2  H   UNL     1      34.458 -22.436 -19.382  0.00  0.00    +0.147 HD
ENDROOT
BRANCH   1   3
ATOM      3  C   UNL     1      34.571 -22.783 -17.345  0.00  0.00    +0.045 C 
ATOM      4  C   UNL     1      32.770 -23.575 -15.943  0.00  0.00    +0.001 C 
ATOM      5  C   UNL     1      33.226 -23.110 -17.177  0.00  0.00    +0.014 C 
ATOM      6  C   UNL     1      35.460 -22.921 -16.280  0.00  0.00    +0.014 C 
ATOM      7  C   UNL     1      33.660 -23.713 -14.877  0.00  0.00    +0.000 C 
ATOM      8  C   UNL     1      35.005 -23.385 -15.046  0.00  0.00    +0.001 C 
BRANCH   4   9
ATOM      9  C   UNL     1      31.375 -23.914 -15.768  0.00  0.00    +0.000 C 
ATOM     10  C   UNL     1      30.395 -23.233 -16.492  0.00  0.00    +0.006 C 
ATOM     11  C   UNL     1      31.008 -24.921 -14.875  0.00  0.00    +0.000 C 
ATOM     12  C   UNL     1      29.050 -23.560 -16.323  0.00  0.00    +0.075 C 
ATOM     13  C   UNL     1      29.663 -25.247 -14.706  0.00  0.00    +0.000 C 
ATOM     14  C   UNL     1      28.683 -24.567 -15.430  0.00  0.00    +0.006 C 
BRANCH  12  16
ATOM     15  O   UNL     1      27.698 -21.674 -16.906  0.00  0.00    -0.245 OA
ATOM     16  C   UNL     1      28.028 -22.852 -17.078  0.00  0.00    +0.338 C 
BRANCH  16  17
ATOM     17  O   UNL     1      27.446 -23.635 -18.028  0.00  0.00    -0.477 OA
ATOM     18  H   UNL     1      27.961 -23.981 -18.729  0.00  0.00    +0.295 HD
ENDBRANCH  16  17
ENDBRANCH  12  16
ENDBRANCH   4   9
ENDBRANCH   1   3
BRANCH   1  19
ATOM     19  C   UNL     1      36.297 -21.667 -18.760  0.00  0.00    +0.064 C 
BRANCH  19  20
ATOM     20  C   UNL     1      36.377 -21.052 -20.151  0.00  0.00    -0.060 C 
BRANCH  20  21
ATOM     21  N   UNL     1      35.232 -20.180 -20.387  0.00  0.00    +0.387 N 
ATOM     22  H   UNL     1      34.375 -20.690 -20.173  0.00  0.00    -0.084 HD
ATOM     23  H   UNL     1      35.318 -19.361 -19.786  0.00  0.00    -0.084 HD
BRANCH  21  24
ATOM     24  C   UNL     1      35.193 -19.739 -21.774  0.00  0.00    -0.047 C 
BRANCH  24  25
ATOM     25  C   UNL     1      35.901 -18.388 -21.937  0.00  0.00    +0.112 C 
BRANCH  25  27
ATOM     26 CL   UNL     1      34.330 -13.828 -23.882  0.00  0.00    -0.082 Cl
ATOM     27  C   UNL     1      35.337 -17.604 -23.101  0.00  0.00    +0.003 C 
ATOM     28  C   UNL     1      35.123 -16.244 -22.960  0.00  0.00    +0.009 C 
ATOM     29  C   UNL     1      35.048 -18.263 -24.283  0.00  0.00    -0.002 C 
ATOM     30  C   UNL     1      34.604 -15.521 -24.034  0.00  0.00    +0.057 C 
ATOM     31  C   UNL     1      34.529 -17.541 -25.357  0.00  0.00    +0.001 C 
ATOM     32  C   UNL     1      34.307 -16.170 -25.233  0.00  0.00    +0.011 C 
ENDBRANCH  25  27
BRANCH  25  33
ATOM     33  O   UNL     1      35.747 -17.604 -20.755  0.00  0.00    -0.382 OA
ATOM     34  H   UNL     1      36.249 -18.009 -20.030  0.00  0.00    +0.211 HD
ENDBRANCH  25  33
ENDBRANCH  24  25
ENDBRANCH  21  24
ENDBRANCH  20  21
ENDBRANCH  19  20
ENDBRANCH   1  19
TORSDOF 11
ENDMDL
MODEL 8
REMARK VINA RESULT:     -12.0      3.770     10.513
REMARK  Name = 9887812
REMARK  11 active torsions:
REMARK  status: ('A' for Active; 'I' for Inactive)
REMARK    1  A    between atoms: N_1  and  C_3
REMARK    2  A    between atoms: N_1  and  C_19
REMARK    3  A    between atoms: C_4  and  C_9
REMARK    4  A    between atoms: C_12  and  C_16
REMARK    5  A    between atoms: C_16  and  O_17
REMARK    6  A    between atoms: C_19  and  C_20
REMARK    7  A    between atoms: C_20  and  N_21
REMARK    8  A    between atoms: N_21  and  C_24
REMARK    9  A    between atoms: C_24  and  C_25
REMARK   10  A    between atoms: C_25  and  C_27
REMARK   11  A    between atoms: C_25  and  O_33
REMARK                            x       y       z     vdW  Elec       q    Type
REMARK                         _______ _______ _______ _____ _____    ______ ____
ROOT
ATOM      1  N   UNL     1      34.120 -13.924 -24.355  0.00  0.00    -0.335 N 
ATOM      2  H   UNL     1      35.087 -14.062 -24.237  0.00  0.00    +0.147 HD
ENDROOT
BRANCH   1   3
ATOM      3  C   UNL     1      33.393 -13.319 -23.309  0.00  0.00    +0.045 C 
ATOM      4  C   UNL     1      32.444 -11.346 -22.287  0.00  0.00    +0.001 C 
ATOM      5  C   UNL     1      33.163 -11.944 -23.323  0.00  0.00    +0.014 C 
ATOM      6  C   UNL     1      32.905 -14.096 -22.258  0.00  0.00    +0.014 C 
ATOM      7  C   UNL     1      31.956 -12.123 -21.237  0.00  0.00    +0.000 C 
ATOM      8  C   UNL     1      32.187 -13.499 -21.222  0.00  0.00    +0.001 C 
BRANCH   4   9
ATOM      9  C   UNL     1      32.206  -9.919 -22.303  0.00  0.00    +0.000 C 
ATOM     10  C   UNL     1      32.335  -9.177 -21.128  0.00  0.00    +0.006 C 
ATOM     11  C   UNL     1      31.847  -9.286 -23.493  0.00  0.00    +0.000 C 
ATOM     12  C   UNL     1      32.104  -7.802 -21.145  0.00  0.00    +0.075 C 
ATOM     13  C   UNL     1      31.616  -7.910 -23.508  0.00  0.00    +0.000 C 
ATOM     14  C   UNL     1      31.745  -7.167 -22.334  0.00  0.00    +0.006 C 
BRANCH  12  16
ATOM     15  O   UNL     1      31.305  -6.549 -19.269  0.00  0.00    -0.245 OA
ATOM     16  C   UNL     1      32.239  -7.027 -19.921  0.00  0.00    +0.338 C 
BRANCH  16  17
ATOM     17  O   UNL     1      33.539  -6.870 -19.545  0.00  0.00    -0.477 OA
ATOM     18  H   UNL     1      34.217  -7.321 -20.007  0.00  0.00    +0.295 HD
ENDBRANCH  16  17
ENDBRANCH  12  16
ENDBRANCH   4   9
ENDBRANCH   1   3
BRANCH   1  19
ATOM     19  C   UNL     1      33.514 -14.344 -25.581  0.00  0.00    +0.064 C 
BRANCH  19  20
ATOM     20  C   UNL     1      33.318 -15.854 -25.563  0.00  0.00    -0.060 C 
BRANCH  20  21
ATOM     21  N   UNL     1      34.608 -16.532 -25.507  0.00  0.00    +0.387 N 
ATOM     22  H   UNL     1      34.822 -16.917 -26.427  0.00  0.00    -0.084 HD
ATOM     23  H   UNL     1      35.319 -15.857 -25.229  0.00  0.00    -0.084 HD
BRANCH  21  24
ATOM     24  C   UNL     1      34.584 -17.613 -24.531  0.00  0.00    -0.047 C 
BRANCH  24  25
ATOM     25  C   UNL     1      34.949 -17.094 -23.134  0.00  0.00    +0.112 C 
BRANCH  25  27
ATOM     26 CL   UNL     1      33.570 -21.145 -20.180  0.00  0.00    -0.082 Cl
ATOM     27  C   UNL     1      35.359 -18.223 -22.214  0.00  0.00    +0.003 C 
ATOM     28  C   UNL     1      34.385 -19.055 -21.691  0.00  0.00    +0.009 C 
ATOM     29  C   UNL     1      36.699 -18.399 -21.916  0.00  0.00    -0.002 C 
ATOM     30  C   UNL     1      34.764 -20.097 -20.843  0.00  0.00    +0.057 C 
ATOM     31  C   UNL     1      37.077 -19.440 -21.069  0.00  0.00    +0.001 C 
ATOM     32  C   UNL     1      36.110 -20.289 -20.532  0.00  0.00    +0.011 C 
ENDBRANCH  25  27
BRANCH  25  33
ATOM     33  O   UNL     1      36.034 -16.171 -23.218  0.00  0.00    -0.382 OA
ATOM     34  H   UNL     1      35.687 -15.265 -23.241  0.00  0.00    +0.211 HD
ENDBRANCH  25  33
ENDBRANCH  24  25
ENDBRANCH  21  24
ENDBRANCH  20  21
ENDBRANCH  19  20
ENDBRANCH   1  19
TORSDOF 11
ENDMDL
MODEL 9
REMARK VINA RESULT:     -11.8      4.803     11.003
REMARK  Name = 9887812
REMARK  11 active torsions:
REMARK  status: ('A' for Active; 'I' for Inactive)
REMARK    1  A    between atoms: N_1  and  C_3
REMARK    2  A    between atoms: N_1  and  C_19
REMARK    3  A    between atoms: C_4  and  C_9
REMARK    4  A    between atoms: C_12  and  C_16
REMARK    5  A    between atoms: C_16  and  O_17
REMARK    6  A    between atoms: C_19  and  C_20
REMARK    7  A    between atoms: C_20  and  N_21
REMARK    8  A    between atoms: N_21  and  C_24
REMARK    9  A    between atoms: C_24  and  C_25
REMARK   10  A    between atoms: C_25  and  C_27
REMARK   11  A    between atoms: C_25  and  O_33
REMARK                            x       y       z     vdW  Elec       q    Type
REMARK                         _______ _______ _______ _____ _____    ______ ____
ROOT
ATOM      1  N   UNL     1      35.679 -18.942 -21.021  0.00  0.00    -0.335 N 
ATOM      2  H   UNL     1      35.076 -18.743 -20.269  0.00  0.00    +0.147 HD
ENDROOT
BRANCH   1   3
ATOM      3  C   UNL     1      35.277 -18.574 -22.322  0.00  0.00    +0.045 C 
ATOM      4  C   UNL     1      34.616 -16.874 -23.907  0.00  0.00    +0.001 C 
ATOM      5  C   UNL     1      35.015 -17.237 -22.620  0.00  0.00    +0.014 C 
ATOM      6  C   UNL     1      35.140 -19.548 -23.311  0.00  0.00    +0.014 C 
ATOM      7  C   UNL     1      34.479 -17.848 -24.896  0.00  0.00    +0.000 C 
ATOM      8  C   UNL     1      34.741 -19.186 -24.597  0.00  0.00    +0.001 C 
BRANCH   4   9
ATOM      9  C   UNL     1      34.344 -15.487 -24.215  0.00  0.00    +0.000 C 
ATOM     10  C   UNL     1      34.028 -15.111 -25.521  0.00  0.00    +0.006 C 
ATOM     11  C   UNL     1      34.398 -14.526 -23.206  0.00  0.00    +0.000 C 
ATOM     12  C   UNL     1      33.767 -13.773 -25.817  0.00  0.00    +0.075 C 
ATOM     13  C   UNL     1      34.137 -13.188 -23.502  0.00  0.00    +0.000 C 
ATOM     14  C   UNL     1      33.820 -12.811 -24.808  0.00  0.00    +0.006 C 
BRANCH  12  16
ATOM     15  O   UNL     1      32.366 -12.879 -27.538  0.00  0.00    -0.245 OA
ATOM     16  C   UNL     1      33.436 -13.381 -27.178  0.00  0.00    +0.338 C 
BRANCH  16  17
ATOM     17  O   UNL     1      34.452 -13.625 -28.052  0.00  0.00    -0.477 OA
ATOM     18  H   UNL     1      34.467 -13.195 -28.883  0.00  0.00    +0.295 HD
ENDBRANCH  16  17
ENDBRANCH  12  16
ENDBRANCH   4   9
ENDBRANCH   1   3
BRANCH   1  19
ATOM     19  C   UNL     1      36.926 -19.588 -20.747  0.00  0.00    +0.064 C 
BRANCH  19  20
ATOM     20  C   UNL     1      36.679 -20.845 -19.923  0.00  0.00    -0.060 C 
BRANCH  20  21
ATOM     21  N   UNL     1      35.257 -20.997 -19.643  0.00  0.00    +0.387 N 
ATOM     22  H   UNL     1      34.997 -20.369 -18.882  0.00  0.00    -0.084 HD
ATOM     23  H   UNL     1      34.732 -20.768 -20.487  0.00  0.00    -0.084 HD
BRANCH  21  24
ATOM     24  C   UNL     1      34.947 -22.367 -19.259  0.00  0.00    -0.047 C 
BRANCH  24  25
ATOM     25  C   UNL     1      33.446 -22.532 -18.990  0.00  0.00    +0.112 C 
BRANCH  25  27
ATOM     26 CL   UNL     1      30.020 -23.130 -15.124  0.00  0.00    -0.082 Cl
ATOM     27  C   UNL     1      33.177 -22.878 -17.543  0.00  0.00    +0.003 C 
ATOM     28  C   UNL     1      31.877 -22.844 -17.069  0.00  0.00    +0.009 C 
ATOM     29  C   UNL     1      34.237 -23.224 -16.722  0.00  0.00    -0.002 C 
ATOM     30  C   UNL     1      31.630 -23.165 -15.734  0.00  0.00    +0.057 C 
ATOM     31  C   UNL     1      33.990 -23.544 -15.388  0.00  0.00    +0.001 C 
ATOM     32  C   UNL     1      32.686 -23.515 -14.894  0.00  0.00    +0.011 C 
ENDBRANCH  25  27
BRANCH  25  33
ATOM     33  O   UNL     1      32.754 -21.322 -19.295  0.00  0.00    -0.382 OA
ATOM     34  H   UNL     1      32.210 -21.060 -18.536  0.00  0.00    +0.211 HD
ENDBRANCH  25  33
ENDBRANCH  24  25
ENDBRANCH  21  24
ENDBRANCH  20  21
ENDBRANCH  19  20
ENDBRANCH   1  19
TORSDOF 11
ENDMDL
