MODEL 1
REMARK VINA RESULT:     -13.4      0.000      0.000
REMARK  Name = 107971
REMARK  9 active torsions:
REMARK  status: ('A' for Active; 'I' for Inactive)
REMARK    1  A    between atoms: C_3  and  O_20
REMARK    2  A    between atoms: C_10  and  C_12
REMARK    3  A    between atoms: C_17  and  O_18
REMARK    4  A    between atoms: O_20  and  C_26
REMARK    5  A    between atoms: C_22  and  O_27
REMARK    6  A    between atoms: C_23  and  O_29
REMARK    7  A    between atoms: C_24  and  O_31
REMARK    8  A    between atoms: C_25  and  C_33
REMARK    9  A    between atoms: C_33  and  O_34
REMARK                            x       y       z     vdW  Elec       q    Type
REMARK                         _______ _______ _______ _____ _____    ______ ____
ROOT
ATOM      1  O   UNL     1      33.094 -21.297 -20.164  0.00  0.00    -0.450 OA
ATOM      2  O   UNL     1      36.824 -19.740 -20.718  0.00  0.00    -0.286 OA
ATOM      3  C   UNL     1      34.846 -23.006 -17.466  0.00  0.00    +0.144 C 
ATOM      4  C   UNL     1      33.836 -22.586 -18.330  0.00  0.00    +0.075 C 
ATOM      5  C   UNL     1      36.144 -22.516 -17.615  0.00  0.00    +0.037 C 
ATOM      6  C   UNL     1      34.126 -21.674 -19.345  0.00  0.00    +0.151 C 
ATOM      7  C   UNL     1      35.424 -21.184 -19.494  0.00  0.00    +0.074 C 
ATOM      8  C   UNL     1      36.438 -21.603 -18.629  0.00  0.00    +0.009 C 
ATOM      9  C   UNL     1      35.706 -20.218 -20.571  0.00  0.00    +0.202 C 
ATOM     10  C   UNL     1      34.561 -19.851 -21.450  0.00  0.00    +0.077 C 
ATOM     11  C   UNL     1      33.374 -20.412 -21.177  0.00  0.00    +0.183 C 
ENDROOT
BRANCH  10  12
ATOM     12  C   UNL     1      34.715 -18.927 -22.585  0.00  0.00    +0.006 C 
ATOM     13  C   UNL     1      35.000 -17.578 -22.359  0.00  0.00    +0.003 C 
ATOM     14  C   UNL     1      34.577 -19.396 -23.894  0.00  0.00    +0.003 C 
ATOM     15  C   UNL     1      35.145 -16.704 -23.435  0.00  0.00    +0.037 C 
ATOM     16  C   UNL     1      34.722 -18.521 -24.970  0.00  0.00    +0.037 C 
ATOM     17  C   UNL     1      35.006 -17.174 -24.741  0.00  0.00    +0.134 C 
BRANCH  17  18
ATOM     18  O   UNL     1      35.148 -16.321 -25.791  0.00  0.00    -0.506 OA
ATOM     19  H   UNL     1      34.451 -16.220 -26.409  0.00  0.00    +0.292 HD
ENDBRANCH  17  18
ENDBRANCH  10  12
BRANCH   3  20
ATOM     20  O   UNL     1      34.566 -23.899 -16.474  0.00  0.00    -0.450 OA
BRANCH  20  26
ATOM     21  O   UNL     1      36.490 -24.891 -15.603  0.00  0.00    -0.316 OA
ATOM     22  C   UNL     1      35.582 -24.488 -12.908  0.00  0.00    +0.173 C 
ATOM     23  C   UNL     1      36.756 -25.406 -13.249  0.00  0.00    +0.169 C 
ATOM     24  C   UNL     1      34.667 -24.289 -14.116  0.00  0.00    +0.210 C 
ATOM     25  C   UNL     1      37.443 -24.952 -14.540  0.00  0.00    +0.177 C 
ATOM     26  C   UNL     1      35.468 -23.926 -15.367  0.00  0.00    +0.318 C 
BRANCH  22  27
ATOM     27  O   UNL     1      34.843 -25.093 -11.846  0.00  0.00    -0.379 OA
ATOM     28  H   UNL     1      33.955 -24.704 -11.807  0.00  0.00    +0.211 HD
ENDBRANCH  22  27
BRANCH  23  29
ATOM     29  O   UNL     1      37.700 -25.381 -12.181  0.00  0.00    -0.379 OA
ATOM     30  H   UNL     1      37.249 -25.584 -11.347  0.00  0.00    +0.211 HD
ENDBRANCH  23  29
BRANCH  24  31
ATOM     31  O   UNL     1      33.752 -23.227 -13.848  0.00  0.00    -0.377 OA
ATOM     32  H   UNL     1      34.047 -22.423 -14.304  0.00  0.00    +0.211 HD
ENDBRANCH  24  31
BRANCH  25  33
ATOM     33  C   UNL     1      38.544 -25.920 -14.964  0.00  0.00    +0.169 C 
BRANCH  33  34
ATOM     34  O   UNL     1      38.152 -27.232 -14.605  0.00  0.00    -0.379 OA
ATOM     35  H   UNL     1      37.377 -27.190 -14.024  0.00  0.00    +0.211 HD
ENDBRANCH  33  34
ENDBRANCH  25  33
ENDBRANCH  20  26
ENDBRANCH   3  20
TORSDOF 9
ENDMDL
MODEL 2
REMARK VINA RESULT:     -13.0      1.105      2.046
REMARK  Name = 107971
REMARK  9 active torsions:
REMARK  status: ('A' for Active; 'I' for Inactive)
REMARK    1  A    between atoms: C_3  and  O_20
REMARK    2  A    between atoms: C_10  and  C_12
REMARK    3  A    between atoms: C_17  and  O_18
REMARK    4  A    between atoms: O_20  and  C_26
REMARK    5  A    between atoms: C_22  and  O_27
REMARK    6  A    between atoms: C_23  and  O_29
REMARK    7  A    between atoms: C_24  and  O_31
REMARK    8  A    between atoms: C_25  and  C_33
REMARK    9  A    between atoms: C_33  and  O_34
REMARK                            x       y       z     vdW  Elec       q    Type
REMARK                         _______ _______ _______ _____ _____    ______ ____
ROOT
ATOM      1  O   UNL     1      36.405 -21.614 -18.885  0.00  0.00    -0.450 OA
ATOM      2  O   UNL     1      32.797 -20.679 -20.545  0.00  0.00    -0.286 OA
ATOM      3  C   UNL     1      34.236 -23.567 -16.705  0.00  0.00    +0.144 C 
ATOM      4  C   UNL     1      35.376 -23.001 -17.275  0.00  0.00    +0.075 C 
ATOM      5  C   UNL     1      32.974 -23.275 -17.224  0.00  0.00    +0.037 C 
ATOM      6  C   UNL     1      35.251 -22.140 -18.366  0.00  0.00    +0.151 C 
ATOM      7  C   UNL     1      33.990 -21.848 -18.885  0.00  0.00    +0.074 C 
ATOM      8  C   UNL     1      32.846 -22.415 -18.315  0.00  0.00    +0.009 C 
ATOM      9  C   UNL     1      33.882 -20.939 -20.041  0.00  0.00    +0.202 C 
ATOM     10  C   UNL     1      35.158 -20.374 -20.560  0.00  0.00    +0.077 C 
ATOM     11  C   UNL     1      36.291 -20.752 -19.949  0.00  0.00    +0.183 C 
ENDROOT
BRANCH  10  12
ATOM     12  C   UNL     1      35.189 -19.424 -21.685  0.00  0.00    +0.006 C 
ATOM     13  C   UNL     1      35.022 -19.882 -22.994  0.00  0.00    +0.003 C 
ATOM     14  C   UNL     1      35.386 -18.062 -21.446  0.00  0.00    +0.003 C 
ATOM     15  C   UNL     1      35.052 -18.982 -24.058  0.00  0.00    +0.037 C 
ATOM     16  C   UNL     1      35.417 -17.162 -22.511  0.00  0.00    +0.037 C 
ATOM     17  C   UNL     1      35.250 -17.622 -23.818  0.00  0.00    +0.134 C 
BRANCH  17  18
ATOM     18  O   UNL     1      35.279 -16.744 -24.857  0.00  0.00    -0.506 OA
ATOM     19  H   UNL     1      34.609 -16.094 -24.940  0.00  0.00    +0.292 HD
ENDBRANCH  17  18
ENDBRANCH  10  12
BRANCH   3  20
ATOM     20  O   UNL     1      34.354 -24.408 -15.638  0.00  0.00    -0.450 OA
BRANCH  20  26
ATOM     21  O   UNL     1      36.529 -24.684 -14.841  0.00  0.00    -0.316 OA
ATOM     22  C   UNL     1      35.694 -24.186 -12.138  0.00  0.00    +0.173 C 
ATOM     23  C   UNL     1      37.065 -24.772 -12.478  0.00  0.00    +0.169 C 
ATOM     24  C   UNL     1      34.695 -24.424 -13.271  0.00  0.00    +0.210 C 
ATOM     25  C   UNL     1      37.516 -24.325 -13.872  0.00  0.00    +0.177 C 
ATOM     26  C   UNL     1      35.284 -24.026 -14.624  0.00  0.00    +0.318 C 
BRANCH  22  27
ATOM     27  O   UNL     1      35.225 -24.824 -10.949  0.00  0.00    -0.379 OA
ATOM     28  H   UNL     1      34.952 -24.149 -10.307  0.00  0.00    +0.211 HD
ENDBRANCH  22  27
BRANCH  23  29
ATOM     29  O   UNL     1      38.017 -24.333 -11.513  0.00  0.00    -0.379 OA
ATOM     30  H   UNL     1      38.136 -25.021 -10.840  0.00  0.00    +0.211 HD
ENDBRANCH  23  29
BRANCH  24  31
ATOM     31  O   UNL     1      33.526 -23.638 -13.043  0.00  0.00    -0.377 OA
ATOM     32  H   UNL     1      33.222 -23.768 -12.131  0.00  0.00    +0.211 HD
ENDBRANCH  24  31
BRANCH  25  33
ATOM     33  C   UNL     1      38.827 -24.989 -14.281  0.00  0.00    +0.169 C 
BRANCH  33  34
ATOM     34  O   UNL     1      39.034 -26.121 -13.456  0.00  0.00    -0.379 OA
ATOM     35  H   UNL     1      39.976 -26.353 -13.456  0.00  0.00    +0.211 HD
ENDBRANCH  33  34
ENDBRANCH  25  33
ENDBRANCH  20  26
ENDBRANCH   3  20
TORSDOF 9
ENDMDL
MODEL 3
REMARK VINA RESULT:     -12.4      1.311      3.214
REMARK  Name = 107971
REMARK  9 active torsions:
REMARK  status: ('A' for Active; 'I' for Inactive)
REMARK    1  A    between atoms: C_3  and  O_20
REMARK    2  A    between atoms: C_10  and  C_12
REMARK    3  A    between atoms: C_17  and  O_18
REMARK    4  A    between atoms: O_20  and  C_26
REMARK    5  A    between atoms: C_22  and  O_27
REMARK    6  A    between atoms: C_23  and  O_29
REMARK    7  A    between atoms: C_24  and  O_31
REMARK    8  A    between atoms: C_25  and  C_33
REMARK    9  A    between atoms: C_33  and  O_34
REMARK                            x       y       z     vdW  Elec       q    Type
REMARK                         _______ _______ _______ _____ _____    ______ ____
ROOT
ATOM      1  O   UNL     1      37.221 -19.697 -20.284  0.00  0.00    -0.450 OA
ATOM      2  O   UNL     1      33.441 -20.103 -21.764  0.00  0.00    -0.286 OA
ATOM      3  C   UNL     1      35.951 -22.201 -17.963  0.00  0.00    +0.144 C 
ATOM      4  C   UNL     1      36.802 -21.299 -18.601  0.00  0.00    +0.075 C 
ATOM      5  C   UNL     1      34.643 -22.373 -18.418  0.00  0.00    +0.037 C 
ATOM      6  C   UNL     1      36.341 -20.569 -19.697  0.00  0.00    +0.151 C 
ATOM      7  C   UNL     1      35.034 -20.740 -20.152  0.00  0.00    +0.074 C 
ATOM      8  C   UNL     1      34.180 -21.644 -19.514  0.00  0.00    +0.009 C 
ATOM      9  C   UNL     1      34.571 -19.960 -21.315  0.00  0.00    +0.202 C 
ATOM     10  C   UNL     1      35.552 -19.012 -21.910  0.00  0.00    +0.077 C 
ATOM     11  C   UNL     1      36.772 -18.961 -21.354  0.00  0.00    +0.183 C 
ENDROOT
BRANCH  10  12
ATOM     12  C   UNL     1      35.206 -18.146 -23.049  0.00  0.00    +0.006 C 
ATOM     13  C   UNL     1      34.886 -18.709 -24.287  0.00  0.00    +0.003 C 
ATOM     14  C   UNL     1      35.198 -16.757 -22.896  0.00  0.00    +0.003 C 
ATOM     15  C   UNL     1      34.558 -17.888 -25.365  0.00  0.00    +0.037 C 
ATOM     16  C   UNL     1      34.871 -15.937 -23.975  0.00  0.00    +0.037 C 
ATOM     17  C   UNL     1      34.551 -16.501 -25.210  0.00  0.00    +0.134 C 
BRANCH  17  18
ATOM     18  O   UNL     1      34.232 -15.700 -26.263  0.00  0.00    -0.506 OA
ATOM     19  H   UNL     1      34.798 -14.992 -26.500  0.00  0.00    +0.292 HD
ENDBRANCH  17  18
ENDBRANCH  10  12
BRANCH   3  20
ATOM     20  O   UNL     1      36.397 -22.915 -16.891  0.00  0.00    -0.450 OA
BRANCH  20  26
ATOM     21  O   UNL     1      34.355 -22.942 -15.762  0.00  0.00    -0.316 OA
ATOM     22  C   UNL     1      35.146 -25.224 -14.208  0.00  0.00    +0.173 C 
ATOM     23  C   UNL     1      33.921 -24.379 -13.858  0.00  0.00    +0.169 C 
ATOM     24  C   UNL     1      36.138 -24.434 -15.061  0.00  0.00    +0.210 C 
ATOM     25  C   UNL     1      33.344 -23.714 -15.112  0.00  0.00    +0.177 C 
ATOM     26  C   UNL     1      35.438 -23.742 -16.230  0.00  0.00    +0.318 C 
BRANCH  22  27
ATOM     27  O   UNL     1      35.775 -25.615 -12.987  0.00  0.00    -0.379 OA
ATOM     28  H   UNL     1      35.658 -26.569 -12.853  0.00  0.00    +0.211 HD
ENDBRANCH  22  27
BRANCH  23  29
ATOM     29  O   UNL     1      32.927 -25.212 -13.267  0.00  0.00    -0.379 OA
ATOM     30  H   UNL     1      33.107 -26.138 -13.490  0.00  0.00    +0.211 HD
ENDBRANCH  23  29
BRANCH  24  31
ATOM     31  O   UNL     1      37.120 -25.323 -15.591  0.00  0.00    -0.377 OA
ATOM     32  H   UNL     1      37.301 -25.091 -16.515  0.00  0.00    +0.211 HD
ENDBRANCH  24  31
BRANCH  25  33
ATOM     33  C   UNL     1      32.192 -22.774 -14.772  0.00  0.00    +0.169 C 
BRANCH  33  34
ATOM     34  O   UNL     1      32.134 -22.623 -13.366  0.00  0.00    -0.379 OA
ATOM     35  H   UNL     1      31.231 -22.386 -13.104  0.00  0.00    +0.211 HD
ENDBRANCH  33  34
ENDBRANCH  25  33
ENDBRANCH  20  26
ENDBRANCH   3  20
TORSDOF 9
ENDMDL
MODEL 4
REMARK VINA RESULT:     -11.9      1.625      2.520
REMARK  Name = 107971
REMARK  9 active torsions:
REMARK  status: ('A' for Active; 'I' for Inactive)
REMARK    1  A    between atoms: C_3  and  O_20
REMARK    2  A    between atoms: C_10  and  C_12
REMARK    3  A    between atoms: C_17  and  O_18
REMARK    4  A    between atoms: O_20  and  C_26
REMARK    5  A    between atoms: C_22  and  O_27
REMARK    6  A    between atoms: C_23  and  O_29
REMARK    7  A    between atoms: C_24  and  O_31
REMARK    8  A    between atoms: C_25  and  C_33
REMARK    9  A    between atoms: C_33  and  O_34
REMARK                            x       y       z     vdW  Elec       q    Type
REMARK                         _______ _______ _______ _____ _____    ______ ____
ROOT
ATOM      1  O   UNL     1      36.816 -20.348 -20.028  0.00  0.00    -0.450 OA
ATOM      2  O   UNL     1      32.993 -19.990 -21.408  0.00  0.00    -0.286 OA
ATOM      3  C   UNL     1      35.197 -22.839 -17.918  0.00  0.00    +0.144 C 
ATOM      4  C   UNL     1      36.171 -22.025 -18.495  0.00  0.00    +0.075 C 
ATOM      5  C   UNL     1      33.871 -22.752 -18.342  0.00  0.00    +0.037 C 
ATOM      6  C   UNL     1      35.816 -21.122 -19.498  0.00  0.00    +0.151 C 
ATOM      7  C   UNL     1      34.490 -21.035 -19.922  0.00  0.00    +0.074 C 
ATOM      8  C   UNL     1      33.513 -21.850 -19.345  0.00  0.00    +0.009 C 
ATOM      9  C   UNL     1      34.139 -20.077 -20.986  0.00  0.00    +0.202 C 
ATOM     10  C   UNL     1      35.251 -19.243 -21.520  0.00  0.00    +0.077 C 
ATOM     11  C   UNL     1      36.472 -19.445 -21.004  0.00  0.00    +0.183 C 
ENDROOT
BRANCH  10  12
ATOM     12  C   UNL     1      35.030 -18.221 -22.557  0.00  0.00    +0.006 C 
ATOM     13  C   UNL     1      34.850 -18.601 -23.889  0.00  0.00    +0.003 C 
ATOM     14  C   UNL     1      34.999 -16.868 -22.211  0.00  0.00    +0.003 C 
ATOM     15  C   UNL     1      34.641 -17.632 -24.870  0.00  0.00    +0.037 C 
ATOM     16  C   UNL     1      34.791 -15.899 -23.193  0.00  0.00    +0.037 C 
ATOM     17  C   UNL     1      34.612 -16.281 -24.523  0.00  0.00    +0.134 C 
BRANCH  17  18
ATOM     18  O   UNL     1      34.408 -15.337 -25.481  0.00  0.00    -0.506 OA
ATOM     19  H   UNL     1      33.537 -15.141 -25.767  0.00  0.00    +0.292 HD
ENDBRANCH  17  18
ENDBRANCH  10  12
BRANCH   3  20
ATOM     20  O   UNL     1      35.540 -23.721 -16.937  0.00  0.00    -0.450 OA
BRANCH  20  26
ATOM     21  O   UNL     1      36.372 -23.501 -14.768  0.00  0.00    -0.316 OA
ATOM     22  C   UNL     1      33.781 -23.996 -13.632  0.00  0.00    +0.173 C 
ATOM     23  C   UNL     1      35.060 -24.018 -12.796  0.00  0.00    +0.169 C 
ATOM     24  C   UNL     1      34.083 -24.235 -15.111  0.00  0.00    +0.210 C 
ATOM     25  C   UNL     1      36.129 -23.113 -13.414  0.00  0.00    +0.177 C 
ATOM     26  C   UNL     1      35.224 -23.341 -15.597  0.00  0.00    +0.318 C 
BRANCH  22  27
ATOM     27  O   UNL     1      32.920 -25.029 -13.150  0.00  0.00    -0.379 OA
ATOM     28  H   UNL     1      32.873 -25.743 -13.805  0.00  0.00    +0.211 HD
ENDBRANCH  22  27
BRANCH  23  29
ATOM     29  O   UNL     1      34.768 -23.567 -11.475  0.00  0.00    -0.379 OA
ATOM     30  H   UNL     1      34.030 -22.938 -11.505  0.00  0.00    +0.211 HD
ENDBRANCH  23  29
BRANCH  24  31
ATOM     31  O   UNL     1      32.921 -23.937 -15.886  0.00  0.00    -0.377 OA
ATOM     32  H   UNL     1      32.446 -23.194 -15.484  0.00  0.00    +0.211 HD
ENDBRANCH  24  31
BRANCH  25  33
ATOM     33  C   UNL     1      37.453 -23.208 -12.663  0.00  0.00    +0.169 C 
BRANCH  33  34
ATOM     34  O   UNL     1      37.401 -22.337 -11.548  0.00  0.00    -0.379 OA
ATOM     35  H   UNL     1      38.289 -22.242 -11.171  0.00  0.00    +0.211 HD
ENDBRANCH  33  34
ENDBRANCH  25  33
ENDBRANCH  20  26
ENDBRANCH   3  20
TORSDOF 9
ENDMDL
MODEL 5
REMARK VINA RESULT:     -11.5      1.391      3.026
REMARK  Name = 107971
REMARK  9 active torsions:
REMARK  status: ('A' for Active; 'I' for Inactive)
REMARK    1  A    between atoms: C_3  and  O_20
REMARK    2  A    between atoms: C_10  and  C_12
REMARK    3  A    between atoms: C_17  and  O_18
REMARK    4  A    between atoms: O_20  and  C_26
REMARK    5  A    between atoms: C_22  and  O_27
REMARK    6  A    between atoms: C_23  and  O_29
REMARK    7  A    between atoms: C_24  and  O_31
REMARK    8  A    between atoms: C_25  and  C_33
REMARK    9  A    between atoms: C_33  and  O_34
REMARK                            x       y       z     vdW  Elec       q    Type
REMARK                         _______ _______ _______ _____ _____    ______ ____
ROOT
ATOM      1  O   UNL     1      37.724 -19.405 -19.556  0.00  0.00    -0.450 OA
ATOM      2  O   UNL     1      34.259 -20.989 -21.015  0.00  0.00    -0.286 OA
ATOM      3  C   UNL     1      37.082 -21.888 -16.968  0.00  0.00    +0.144 C 
ATOM      4  C   UNL     1      37.683 -20.865 -17.700  0.00  0.00    +0.075 C 
ATOM      5  C   UNL     1      35.889 -22.460 -17.413  0.00  0.00    +0.037 C 
ATOM      6  C   UNL     1      37.088 -20.413 -18.879  0.00  0.00    +0.151 C 
ATOM      7  C   UNL     1      35.896 -20.985 -19.324  0.00  0.00    +0.074 C 
ATOM      8  C   UNL     1      35.293 -22.011 -18.592  0.00  0.00    +0.009 C 
ATOM      9  C   UNL     1      35.288 -20.495 -20.574  0.00  0.00    +0.202 C 
ATOM     10  C   UNL     1      36.001 -19.386 -21.267  0.00  0.00    +0.077 C 
ATOM     11  C   UNL     1      37.137 -18.943 -20.709  0.00  0.00    +0.183 C 
ENDROOT
BRANCH  10  12
ATOM     12  C   UNL     1      35.482 -18.778 -22.504  0.00  0.00    +0.006 C 
ATOM     13  C   UNL     1      35.166 -19.583 -23.601  0.00  0.00    +0.003 C 
ATOM     14  C   UNL     1      35.303 -17.395 -22.583  0.00  0.00    +0.003 C 
ATOM     15  C   UNL     1      34.674 -19.006 -24.772  0.00  0.00    +0.037 C 
ATOM     16  C   UNL     1      34.812 -16.819 -23.755  0.00  0.00    +0.037 C 
ATOM     17  C   UNL     1      34.498 -17.625 -24.849  0.00  0.00    +0.134 C 
BRANCH  17  18
ATOM     18  O   UNL     1      34.018 -17.063 -25.992  0.00  0.00    -0.506 OA
ATOM     19  H   UNL     1      33.478 -17.565 -26.570  0.00  0.00    +0.292 HD
ENDBRANCH  17  18
ENDBRANCH  10  12
BRANCH   3  20
ATOM     20  O   UNL     1      37.659 -22.331 -15.815  0.00  0.00    -0.450 OA
BRANCH  20  26
ATOM     21  O   UNL     1      36.325 -23.608 -14.390  0.00  0.00    -0.316 OA
ATOM     22  C   UNL     1      38.300 -25.689 -14.265  0.00  0.00    +0.173 C 
ATOM     23  C   UNL     1      37.115 -25.625 -13.301  0.00  0.00    +0.169 C 
ATOM     24  C   UNL     1      38.598 -24.316 -14.868  0.00  0.00    +0.210 C 
ATOM     25  C   UNL     1      35.928 -24.907 -13.948  0.00  0.00    +0.177 C 
ATOM     26  C   UNL     1      37.327 -23.657 -15.403  0.00  0.00    +0.318 C 
BRANCH  22  27
ATOM     27  O   UNL     1      39.440 -26.144 -13.533  0.00  0.00    -0.379 OA
ATOM     28  H   UNL     1      39.940 -25.380 -13.204  0.00  0.00    +0.211 HD
ENDBRANCH  22  27
BRANCH  23  29
ATOM     29  O   UNL     1      36.727 -26.948 -12.943  0.00  0.00    -0.379 OA
ATOM     30  H   UNL     1      37.267 -27.252 -12.196  0.00  0.00    +0.211 HD
ENDBRANCH  23  29
BRANCH  24  31
ATOM     31  O   UNL     1      39.515 -24.464 -15.952  0.00  0.00    -0.377 OA
ATOM     32  H   UNL     1      39.535 -25.391 -16.235  0.00  0.00    +0.211 HD
ENDBRANCH  24  31
BRANCH  25  33
ATOM     33  C   UNL     1      34.774 -24.728 -12.967  0.00  0.00    +0.169 C 
BRANCH  33  34
ATOM     34  O   UNL     1      35.223 -25.087 -11.673  0.00  0.00    -0.379 OA
ATOM     35  H   UNL     1      36.190 -25.163 -11.677  0.00  0.00    +0.211 HD
ENDBRANCH  33  34
ENDBRANCH  25  33
ENDBRANCH  20  26
ENDBRANCH   3  20
TORSDOF 9
ENDMDL
MODEL 6
REMARK VINA RESULT:     -11.4      1.837      3.530
REMARK  Name = 107971
REMARK  9 active torsions:
REMARK  status: ('A' for Active; 'I' for Inactive)
REMARK    1  A    between atoms: C_3  and  O_20
REMARK    2  A    between atoms: C_10  and  C_12
REMARK    3  A    between atoms: C_17  and  O_18
REMARK    4  A    between atoms: O_20  and  C_26
REMARK    5  A    between atoms: C_22  and  O_27
REMARK    6  A    between atoms: C_23  and  O_29
REMARK    7  A    between atoms: C_24  and  O_31
REMARK    8  A    between atoms: C_25  and  C_33
REMARK    9  A    between atoms: C_33  and  O_34
REMARK                            x       y       z     vdW  Elec       q    Type
REMARK                         _______ _______ _______ _____ _____    ______ ____
ROOT
ATOM      1  O   UNL     1      33.563 -21.221 -20.094  0.00  0.00    -0.450 OA
ATOM      2  O   UNL     1      37.116 -19.397 -20.928  0.00  0.00    -0.286 OA
ATOM      3  C   UNL     1      35.596 -22.658 -17.434  0.00  0.00    +0.144 C 
ATOM      4  C   UNL     1      34.509 -22.360 -18.254  0.00  0.00    +0.075 C 
ATOM      5  C   UNL     1      36.839 -22.072 -17.678  0.00  0.00    +0.037 C 
ATOM      6  C   UNL     1      34.667 -21.476 -19.321  0.00  0.00    +0.151 C 
ATOM      7  C   UNL     1      35.909 -20.890 -19.566  0.00  0.00    +0.074 C 
ATOM      8  C   UNL     1      37.000 -21.187 -18.744  0.00  0.00    +0.009 C 
ATOM      9  C   UNL     1      36.051 -19.955 -20.697  0.00  0.00    +0.202 C 
ATOM     10  C   UNL     1      34.834 -19.722 -21.521  0.00  0.00    +0.077 C 
ATOM     11  C   UNL     1      33.714 -20.364 -21.157  0.00  0.00    +0.183 C 
ENDROOT
BRANCH  10  12
ATOM     12  C   UNL     1      34.849 -18.842 -22.701  0.00  0.00    +0.006 C 
ATOM     13  C   UNL     1      34.609 -19.369 -23.973  0.00  0.00    +0.003 C 
ATOM     14  C   UNL     1      35.102 -17.476 -22.553  0.00  0.00    +0.003 C 
ATOM     15  C   UNL     1      34.623 -18.534 -25.090  0.00  0.00    +0.037 C 
ATOM     16  C   UNL     1      35.117 -16.642 -23.671  0.00  0.00    +0.037 C 
ATOM     17  C   UNL     1      34.877 -17.171 -24.939  0.00  0.00    +0.134 C 
BRANCH  17  18
ATOM     18  O   UNL     1      34.891 -16.356 -26.030  0.00  0.00    -0.506 OA
ATOM     19  H   UNL     1      35.089 -16.710 -26.875  0.00  0.00    +0.292 HD
ENDBRANCH  17  18
ENDBRANCH  10  12
BRANCH   3  20
ATOM     20  O   UNL     1      35.445 -23.523 -16.391  0.00  0.00    -0.450 OA
BRANCH  20  26
ATOM     21  O   UNL     1      33.155 -23.085 -16.476  0.00  0.00    -0.316 OA
ATOM     22  C   UNL     1      32.621 -25.024 -14.425  0.00  0.00    +0.173 C 
ATOM     23  C   UNL     1      31.579 -24.001 -14.878  0.00  0.00    +0.169 C 
ATOM     24  C   UNL     1      34.037 -24.553 -14.754  0.00  0.00    +0.210 C 
ATOM     25  C   UNL     1      31.824 -23.582 -16.330  0.00  0.00    +0.177 C 
ATOM     26  C   UNL     1      34.142 -24.077 -16.203  0.00  0.00    +0.318 C 
BRANCH  22  27
ATOM     27  O   UNL     1      32.492 -25.190 -13.012  0.00  0.00    -0.379 OA
ATOM     28  H   UNL     1      32.101 -26.058 -12.823  0.00  0.00    +0.211 HD
ENDBRANCH  22  27
BRANCH  23  29
ATOM     29  O   UNL     1      30.278 -24.572 -14.766  0.00  0.00    -0.379 OA
ATOM     30  H   UNL     1      30.143 -25.212 -15.481  0.00  0.00    +0.211 HD
ENDBRANCH  23  29
BRANCH  24  31
ATOM     31  O   UNL     1      34.950 -25.635 -14.573  0.00  0.00    -0.377 OA
ATOM     32  H   UNL     1      34.495 -26.372 -14.136  0.00  0.00    +0.211 HD
ENDBRANCH  24  31
BRANCH  25  33
ATOM     33  C   UNL     1      30.868 -22.477 -16.768  0.00  0.00    +0.169 C 
BRANCH  33  34
ATOM     34  O   UNL     1      29.632 -23.066 -17.126  0.00  0.00    -0.379 OA
ATOM     35  H   UNL     1      28.967 -22.371 -17.253  0.00  0.00    +0.211 HD
ENDBRANCH  33  34
ENDBRANCH  25  33
ENDBRANCH  20  26
ENDBRANCH   3  20
TORSDOF 9
ENDMDL
MODEL 7
REMARK VINA RESULT:     -11.3      1.273      2.219
REMARK  Name = 107971
REMARK  9 active torsions:
REMARK  status: ('A' for Active; 'I' for Inactive)
REMARK    1  A    between atoms: C_3  and  O_20
REMARK    2  A    between atoms: C_10  and  C_12
REMARK    3  A    between atoms: C_17  and  O_18
REMARK    4  A    between atoms: O_20  and  C_26
REMARK    5  A    between atoms: C_22  and  O_27
REMARK    6  A    between atoms: C_23  and  O_29
REMARK    7  A    between atoms: C_24  and  O_31
REMARK    8  A    between atoms: C_25  and  C_33
REMARK    9  A    between atoms: C_33  and  O_34
REMARK                            x       y       z     vdW  Elec       q    Type
REMARK                         _______ _______ _______ _____ _____    ______ ____
ROOT
ATOM      1  O   UNL     1      33.113 -21.798 -19.429  0.00  0.00    -0.450 OA
ATOM      2  O   UNL     1      36.867 -20.238 -19.778  0.00  0.00    -0.286 OA
ATOM      3  C   UNL     1      34.720 -23.513 -16.645  0.00  0.00    +0.144 C 
ATOM      4  C   UNL     1      33.757 -23.091 -17.561  0.00  0.00    +0.075 C 
ATOM      5  C   UNL     1      36.024 -23.022 -16.723  0.00  0.00    +0.037 C 
ATOM      6  C   UNL     1      34.101 -22.176 -18.556  0.00  0.00    +0.151 C 
ATOM      7  C   UNL     1      35.404 -21.685 -18.634  0.00  0.00    +0.074 C 
ATOM      8  C   UNL     1      36.370 -22.106 -17.717  0.00  0.00    +0.009 C 
ATOM      9  C   UNL     1      35.743 -20.716 -19.693  0.00  0.00    +0.202 C 
ATOM     10  C   UNL     1      34.647 -20.347 -20.630  0.00  0.00    +0.077 C 
ATOM     11  C   UNL     1      33.447 -20.910 -20.423  0.00  0.00    +0.183 C 
ENDROOT
BRANCH  10  12
ATOM     12  C   UNL     1      34.860 -19.420 -21.753  0.00  0.00    +0.006 C 
ATOM     13  C   UNL     1      35.077 -18.061 -21.510  0.00  0.00    +0.003 C 
ATOM     14  C   UNL     1      34.847 -19.896 -23.067  0.00  0.00    +0.003 C 
ATOM     15  C   UNL     1      35.279 -17.184 -22.575  0.00  0.00    +0.037 C 
ATOM     16  C   UNL     1      35.049 -19.018 -24.131  0.00  0.00    +0.037 C 
ATOM     17  C   UNL     1      35.265 -17.662 -23.886  0.00  0.00    +0.134 C 
BRANCH  17  18
ATOM     18  O   UNL     1      35.462 -16.805 -24.925  0.00  0.00    -0.506 OA
ATOM     19  H   UNL     1      35.269 -15.894 -24.822  0.00  0.00    +0.292 HD
ENDBRANCH  17  18
ENDBRANCH  10  12
BRANCH   3  20
ATOM     20  O   UNL     1      34.388 -24.408 -15.672  0.00  0.00    -0.450 OA
BRANCH  20  26
ATOM     21  O   UNL     1      35.992 -23.642 -14.161  0.00  0.00    -0.316 OA
ATOM     22  C   UNL     1      37.722 -25.861 -14.740  0.00  0.00    +0.173 C 
ATOM     23  C   UNL     1      38.198 -24.630 -13.967  0.00  0.00    +0.169 C 
ATOM     24  C   UNL     1      36.495 -25.539 -15.592  0.00  0.00    +0.210 C 
ATOM     25  C   UNL     1      37.030 -23.965 -13.234  0.00  0.00    +0.177 C 
ATOM     26  C   UNL     1      35.433 -24.798 -14.779  0.00  0.00    +0.318 C 
BRANCH  22  27
ATOM     27  O   UNL     1      38.789 -26.290 -15.587  0.00  0.00    -0.379 OA
ATOM     28  H   UNL     1      38.435 -26.850 -16.296  0.00  0.00    +0.211 HD
ENDBRANCH  22  27
BRANCH  23  29
ATOM     29  O   UNL     1      39.188 -25.022 -13.020  0.00  0.00    -0.379 OA
ATOM     30  H   UNL     1      38.986 -25.912 -12.692  0.00  0.00    +0.211 HD
ENDBRANCH  23  29
BRANCH  24  31
ATOM     31  O   UNL     1      35.922 -26.753 -16.075  0.00  0.00    -0.377 OA
ATOM     32  H   UNL     1      35.634 -27.296 -15.324  0.00  0.00    +0.211 HD
ENDBRANCH  24  31
BRANCH  25  33
ATOM     33  C   UNL     1      37.457 -22.670 -12.551  0.00  0.00    +0.169 C 
BRANCH  33  34
ATOM     34  O   UNL     1      38.406 -22.982 -11.547  0.00  0.00    -0.379 OA
ATOM     35  H   UNL     1      38.448 -23.944 -11.431  0.00  0.00    +0.211 HD
ENDBRANCH  33  34
ENDBRANCH  25  33
ENDBRANCH  20  26
ENDBRANCH   3  20
TORSDOF 9
ENDMDL
MODEL 8
REMARK VINA RESULT:     -11.3      1.818     10.153
REMARK  Name = 107971
REMARK  9 active torsions:
REMARK  status: ('A' for Active; 'I' for Inactive)
REMARK    1  A    between atoms: C_3  and  O_20
REMARK    2  A    between atoms: C_10  and  C_12
REMARK    3  A    between atoms: C_17  and  O_18
REMARK    4  A    between atoms: O_20  and  C_26
REMARK    5  A    between atoms: C_22  and  O_27
REMARK    6  A    between atoms: C_23  and  O_29
REMARK    7  A    between atoms: C_24  and  O_31
REMARK    8  A    between atoms: C_25  and  C_33
REMARK    9  A    between atoms: C_33  and  O_34
REMARK                            x       y       z     vdW  Elec       q    Type
REMARK                         _______ _______ _______ _____ _____    ______ ____
ROOT
ATOM      1  O   UNL     1      37.083 -21.452 -18.409  0.00  0.00    -0.450 OA
ATOM      2  O   UNL     1      34.222 -23.377 -16.229  0.00  0.00    -0.286 OA
ATOM      3  C   UNL     1      34.243 -21.002 -20.646  0.00  0.00    +0.144 C 
ATOM      4  C   UNL     1      35.530 -20.943 -20.113  0.00  0.00    +0.075 C 
ATOM      5  C   UNL     1      33.226 -21.657 -19.950  0.00  0.00    +0.037 C 
ATOM      6  C   UNL     1      35.800 -21.542 -18.882  0.00  0.00    +0.151 C 
ATOM      7  C   UNL     1      34.784 -22.197 -18.187  0.00  0.00    +0.074 C 
ATOM      8  C   UNL     1      33.493 -22.257 -18.718  0.00  0.00    +0.009 C 
ATOM      9  C   UNL     1      35.091 -22.819 -16.885  0.00  0.00    +0.202 C 
ATOM     10  C   UNL     1      36.501 -22.715 -16.418  0.00  0.00    +0.077 C 
ATOM     11  C   UNL     1      37.362 -22.052 -17.205  0.00  0.00    +0.183 C 
ENDROOT
BRANCH  10  12
ATOM     12  C   UNL     1      36.950 -23.324 -15.155  0.00  0.00    +0.006 C 
ATOM     13  C   UNL     1      37.826 -24.412 -15.174  0.00  0.00    +0.003 C 
ATOM     14  C   UNL     1      36.502 -22.816 -13.934  0.00  0.00    +0.003 C 
ATOM     15  C   UNL     1      38.251 -24.989 -13.978  0.00  0.00    +0.037 C 
ATOM     16  C   UNL     1      36.926 -23.394 -12.737  0.00  0.00    +0.037 C 
ATOM     17  C   UNL     1      37.801 -24.480 -12.759  0.00  0.00    +0.134 C 
BRANCH  17  18
ATOM     18  O   UNL     1      38.216 -25.044 -11.591  0.00  0.00    -0.506 OA
ATOM     19  H   UNL     1      39.042 -25.483 -11.552  0.00  0.00    +0.292 HD
ENDBRANCH  17  18
ENDBRANCH  10  12
BRANCH   3  20
ATOM     20  O   UNL     1      33.976 -20.420 -21.849  0.00  0.00    -0.450 OA
BRANCH  20  26
ATOM     21  O   UNL     1      34.356 -18.151 -21.461  0.00  0.00    -0.316 OA
ATOM     22  C   UNL     1      35.314 -17.764 -24.141  0.00  0.00    +0.173 C 
ATOM     23  C   UNL     1      34.959 -16.596 -23.221  0.00  0.00    +0.169 C 
ATOM     24  C   UNL     1      34.607 -19.047 -23.704  0.00  0.00    +0.210 C 
ATOM     25  C   UNL     1      35.136 -16.989 -21.752  0.00  0.00    +0.177 C 
ATOM     26  C   UNL     1      34.777 -19.292 -22.205  0.00  0.00    +0.318 C 
BRANCH  22  27
ATOM     27  O   UNL     1      34.903 -17.424 -25.466  0.00  0.00    -0.379 OA
ATOM     28  H   UNL     1      33.937 -17.483 -25.531  0.00  0.00    +0.211 HD
ENDBRANCH  22  27
BRANCH  23  29
ATOM     29  O   UNL     1      35.806 -15.489 -23.518  0.00  0.00    -0.379 OA
ATOM     30  H   UNL     1      35.623 -14.767 -22.897  0.00  0.00    +0.211 HD
ENDBRANCH  23  29
BRANCH  24  31
ATOM     31  O   UNL     1      35.166 -20.158 -24.404  0.00  0.00    -0.377 OA
ATOM     32  H   UNL     1      34.452 -20.709 -24.759  0.00  0.00    +0.211 HD
ENDBRANCH  24  31
BRANCH  25  33
ATOM     33  C   UNL     1      34.677 -15.879 -20.812  0.00  0.00    +0.169 C 
BRANCH  33  34
ATOM     34  O   UNL     1      33.832 -15.000 -21.532  0.00  0.00    -0.379 OA
ATOM     35  H   UNL     1      33.424 -15.478 -22.270  0.00  0.00    +0.211 HD
ENDBRANCH  33  34
ENDBRANCH  25  33
ENDBRANCH  20  26
ENDBRANCH   3  20
TORSDOF 9
ENDMDL
MODEL 9
REMARK VINA RESULT:     -11.3      2.094     10.384
REMARK  Name = 107971
REMARK  9 active torsions:
REMARK  status: ('A' for Active; 'I' for Inactive)
REMARK    1  A    between atoms: C_3  and  O_20
REMARK    2  A    between atoms: C_10  and  C_12
REMARK    3  A    between atoms: C_17  and  O_18
REMARK    4  A    between atoms: O_20  and  C_26
REMARK    5  A    between atoms: C_22  and  O_27
REMARK    6  A    between atoms: C_23  and  O_29
REMARK    7  A    between atoms: C_24  and  O_31
REMARK    8  A    between atoms: C_25  and  C_33
REMARK    9  A    between atoms: C_33  and  O_34
REMARK                            x       y       z     vdW  Elec       q    Type
REMARK                         _______ _______ _______ _____ _____    ______ ____
ROOT
ATOM      1  O   UNL     1      36.933 -20.603 -19.761  0.00  0.00    -0.450 OA
ATOM      2  O   UNL     1      33.071 -21.756 -19.131  0.00  0.00    -0.286 OA
ATOM      3  C   UNL     1      35.373 -19.019 -22.647  0.00  0.00    +0.144 C 
ATOM      4  C   UNL     1      36.330 -19.434 -21.722  0.00  0.00    +0.075 C 
ATOM      5  C   UNL     1      34.038 -19.393 -22.489  0.00  0.00    +0.037 C 
ATOM      6  C   UNL     1      35.949 -20.225 -20.637  0.00  0.00    +0.151 C 
ATOM      7  C   UNL     1      34.615 -20.598 -20.479  0.00  0.00    +0.074 C 
ATOM      8  C   UNL     1      33.654 -20.184 -21.405  0.00  0.00    +0.009 C 
ATOM      9  C   UNL     1      34.235 -21.431 -19.323  0.00  0.00    +0.202 C 
ATOM     10  C   UNL     1      35.337 -21.835 -18.407  0.00  0.00    +0.077 C 
ATOM     11  C   UNL     1      36.570 -21.395 -18.698  0.00  0.00    +0.183 C 
ENDROOT
BRANCH  10  12
ATOM     12  C   UNL     1      35.101 -22.697 -17.237  0.00  0.00    +0.006 C 
ATOM     13  C   UNL     1      36.153 -23.007 -16.371  0.00  0.00    +0.003 C 
ATOM     14  C   UNL     1      33.825 -23.207 -16.989  0.00  0.00    +0.003 C 
ATOM     15  C   UNL     1      35.928 -23.823 -15.263  0.00  0.00    +0.037 C 
ATOM     16  C   UNL     1      33.601 -24.024 -15.881  0.00  0.00    +0.037 C 
ATOM     17  C   UNL     1      34.653 -24.333 -15.017  0.00  0.00    +0.134 C 
BRANCH  17  18
ATOM     18  O   UNL     1      34.434 -25.130 -13.936  0.00  0.00    -0.506 OA
ATOM     19  H   UNL     1      33.751 -25.771 -13.958  0.00  0.00    +0.292 HD
ENDBRANCH  17  18
ENDBRANCH  10  12
BRANCH   3  20
ATOM     20  O   UNL     1      35.742 -18.248 -23.709  0.00  0.00    -0.450 OA
BRANCH  20  26
ATOM     21  O   UNL     1      34.947 -16.553 -22.317  0.00  0.00    -0.316 OA
ATOM     22  C   UNL     1      33.962 -15.054 -24.560  0.00  0.00    +0.173 C 
ATOM     23  C   UNL     1      33.569 -14.727 -23.119  0.00  0.00    +0.169 C 
ATOM     24  C   UNL     1      34.433 -16.502 -24.689  0.00  0.00    +0.210 C 
ATOM     25  C   UNL     1      34.667 -15.163 -22.145  0.00  0.00    +0.177 C 
ATOM     26  C   UNL     1      35.460 -16.851 -23.612  0.00  0.00    +0.318 C 
BRANCH  22  27
ATOM     27  O   UNL     1      32.815 -14.852 -25.387  0.00  0.00    -0.379 OA
ATOM     28  H   UNL     1      33.078 -14.384 -26.196  0.00  0.00    +0.211 HD
ENDBRANCH  22  27
BRANCH  23  29
ATOM     29  O   UNL     1      33.360 -13.323 -22.995  0.00  0.00    -0.379 OA
ATOM     30  H   UNL     1      33.537 -12.893 -23.846  0.00  0.00    +0.211 HD
ENDBRANCH  23  29
BRANCH  24  31
ATOM     31  O   UNL     1      35.043 -16.690 -25.966  0.00  0.00    -0.377 OA
ATOM     32  H   UNL     1      35.776 -16.063 -26.069  0.00  0.00    +0.211 HD
ENDBRANCH  24  31
BRANCH  25  33
ATOM     33  C   UNL     1      34.248 -14.953 -20.693  0.00  0.00    +0.169 C 
BRANCH  33  34
ATOM     34  O   UNL     1      32.837 -14.846 -20.642  0.00  0.00    -0.379 OA
ATOM     35  H   UNL     1      32.584 -13.910 -20.657  0.00  0.00    +0.211 HD
ENDBRANCH  33  34
ENDBRANCH  25  33
ENDBRANCH  20  26
ENDBRANCH   3  20
TORSDOF 9
ENDMDL
