MODEL 1
REMARK VINA RESULT:     -14.2      0.000      0.000
REMARK  Name = 6105620
REMARK  4 active torsions:
REMARK  status: ('A' for Active; 'I' for Inactive)
REMARK    1  A    between atoms: N_2  and  C_7
REMARK    2  A    between atoms: N_3  and  C_21
REMARK    3  A    between atoms: C_9  and  C_29
REMARK    4  A    between atoms: C_30  and  C_31
REMARK                            x       y       z     vdW  Elec       q    Type
REMARK                         _______ _______ _______ _____ _____    ______ ____
ROOT
ATOM      1  N   UNL     1      33.828 -22.784 -17.691  0.00  0.00    -0.086 NA
ATOM      2  N   UNL     1      35.197 -22.519 -17.261  0.00  0.00    -0.132 N 
ATOM      3  N   UNL     1      33.720 -22.228 -18.998  0.00  0.00    -0.240 N 
ATOM      4  N   UNL     1      35.827 -21.756 -18.236  0.00  0.00    -0.146 NA
ATOM      5  C   UNL     1      34.937 -21.618 -19.206  0.00  0.00    +0.162 C 
ATOM      6  H   UNL     1      32.952 -22.271 -19.612  0.00  0.00    +0.170 HD
ENDROOT
BRANCH   2  11
ATOM      7  O   UNL     1      36.781 -27.188 -15.941  0.00  0.00    -0.220 OA
ATOM      8  O   UNL     1      38.736 -24.148 -12.205  0.00  0.00    -0.220 OA
ATOM      9  N   UNL     1      37.985 -26.948 -14.019  0.00  0.00    -0.062 NA
ATOM     10  N   UNL     1      38.454 -26.218 -13.122  0.00  0.00    -0.062 NA
ATOM     11  C   UNL     1      35.961 -23.086 -16.220  0.00  0.00    +0.089 C 
ATOM     12  C   UNL     1      36.204 -24.471 -16.178  0.00  0.00    +0.030 C 
ATOM     13  C   UNL     1      36.497 -22.279 -15.200  0.00  0.00    +0.019 C 
ATOM     14  C   UNL     1      36.962 -25.024 -15.142  0.00  0.00    +0.097 C 
ATOM     15  C   UNL     1      37.481 -24.216 -14.149  0.00  0.00    +0.096 C 
ATOM     16  C   UNL     1      37.254 -22.837 -14.169  0.00  0.00    +0.014 C 
ATOM     17  C   UNL     1      37.236 -26.462 -15.063  0.00  0.00    +0.174 C 
ATOM     18  C   UNL     1      38.268 -24.858 -13.091  0.00  0.00    +0.174 C 
ENDBRANCH   2  11
BRANCH   1  21
ATOM     19  S   UNL     1      33.109 -24.165 -15.514  0.00  0.00    -0.074 S 
ATOM     20  N   UNL     1      31.534 -23.167 -17.356  0.00  0.00    -0.310 N 
ATOM     21  C   UNL     1      32.820 -23.279 -17.008  0.00  0.00    +0.222 C 
ATOM     22  C   UNL     1      30.701 -23.772 -16.469  0.00  0.00    +0.052 C 
ATOM     23  C   UNL     1      31.350 -24.378 -15.388  0.00  0.00    +0.041 C 
ATOM     24  C   UNL     1      29.319 -23.814 -16.576  0.00  0.00    +0.015 C 
ATOM     25  C   UNL     1      30.639 -25.036 -14.398  0.00  0.00    +0.007 C 
ATOM     26  C   UNL     1      28.591 -24.474 -15.584  0.00  0.00    +0.001 C 
ATOM     27  C   UNL     1      29.247 -25.081 -14.502  0.00  0.00    +0.001 C 
ATOM     28  H   UNL     1      31.224 -22.699 -18.165  0.00  0.00    +0.149 HD
ENDBRANCH   1  21
BRANCH   5  29
ATOM     29  C   UNL     1      35.259 -20.848 -20.417  0.00  0.00    +0.037 C 
ATOM     30  C   UNL     1      34.487 -19.861 -20.841  0.00  0.00    +0.003 C 
BRANCH  30  31
ATOM     31  C   UNL     1      34.762 -19.069 -22.052  0.00  0.00    +0.000 C 
ATOM     32  C   UNL     1      35.140 -17.741 -21.923  0.00  0.00    +0.000 C 
ATOM     33  C   UNL     1      34.637 -19.664 -23.296  0.00  0.00    +0.000 C 
ATOM     34  C   UNL     1      35.401 -16.991 -23.070  0.00  0.00    +0.000 C 
ATOM     35  C   UNL     1      34.897 -18.914 -24.443  0.00  0.00    +0.000 C 
ATOM     36  C   UNL     1      35.280 -17.577 -24.330  0.00  0.00    +0.000 C 
ENDBRANCH  30  31
ENDBRANCH   5  29
TORSDOF 4
ENDMDL
MODEL 2
REMARK VINA RESULT:     -13.8      1.289      1.506
REMARK  Name = 6105620
REMARK  4 active torsions:
REMARK  status: ('A' for Active; 'I' for Inactive)
REMARK    1  A    between atoms: N_2  and  C_7
REMARK    2  A    between atoms: N_3  and  C_21
REMARK    3  A    between atoms: C_9  and  C_29
REMARK    4  A    between atoms: C_30  and  C_31
REMARK                            x       y       z     vdW  Elec       q    Type
REMARK                         _______ _______ _______ _____ _____    ______ ____
ROOT
ATOM      1  N   UNL     1      33.795 -22.637 -17.875  0.00  0.00    -0.086 NA
ATOM      2  N   UNL     1      35.137 -22.313 -17.400  0.00  0.00    -0.132 N 
ATOM      3  N   UNL     1      33.716 -22.110 -19.196  0.00  0.00    -0.240 N 
ATOM      4  N   UNL     1      35.774 -21.545 -18.365  0.00  0.00    -0.146 NA
ATOM      5  C   UNL     1      34.917 -21.458 -19.370  0.00  0.00    +0.162 C 
ATOM      6  H   UNL     1      32.974 -22.192 -19.837  0.00  0.00    +0.170 HD
ENDROOT
BRANCH   2  11
ATOM      7  O   UNL     1      34.149 -24.022 -12.693  0.00  0.00    -0.220 OA
ATOM      8  O   UNL     1      39.305 -24.541 -13.110  0.00  0.00    -0.220 OA
ATOM      9  N   UNL     1      36.152 -24.633 -11.789  0.00  0.00    -0.062 NA
ATOM     10  N   UNL     1      37.390 -24.758 -11.889  0.00  0.00    -0.062 NA
ATOM     11  C   UNL     1      35.881 -22.832 -16.321  0.00  0.00    +0.089 C 
ATOM     12  C   UNL     1      35.245 -23.215 -15.126  0.00  0.00    +0.030 C 
ATOM     13  C   UNL     1      37.277 -22.979 -16.415  0.00  0.00    +0.019 C 
ATOM     14  C   UNL     1      35.992 -23.729 -14.062  0.00  0.00    +0.097 C 
ATOM     15  C   UNL     1      37.362 -23.866 -14.172  0.00  0.00    +0.096 C 
ATOM     16  C   UNL     1      38.017 -23.493 -15.350  0.00  0.00    +0.014 C 
ATOM     17  C   UNL     1      35.366 -24.139 -12.801  0.00  0.00    +0.174 C 
ATOM     18  C   UNL     1      38.087 -24.413 -13.020  0.00  0.00    +0.174 C 
ENDBRANCH   2  11
BRANCH   1  21
ATOM     19  S   UNL     1      33.023 -24.548 -16.168  0.00  0.00    -0.074 S 
ATOM     20  N   UNL     1      31.523 -22.709 -17.280  0.00  0.00    -0.310 N 
ATOM     21  C   UNL     1      32.781 -23.157 -17.221  0.00  0.00    +0.222 C 
ATOM     22  C   UNL     1      30.676 -23.432 -16.502  0.00  0.00    +0.052 C 
ATOM     23  C   UNL     1      31.284 -24.483 -15.807  0.00  0.00    +0.041 C 
ATOM     24  C   UNL     1      29.316 -23.194 -16.370  0.00  0.00    +0.015 C 
ATOM     25  C   UNL     1      30.555 -25.312 -14.971  0.00  0.00    +0.007 C 
ATOM     26  C   UNL     1      28.570 -24.023 -15.531  0.00  0.00    +0.001 C 
ATOM     27  C   UNL     1      29.185 -25.075 -14.836  0.00  0.00    +0.001 C 
ATOM     28  H   UNL     1      31.241 -21.940 -17.827  0.00  0.00    +0.149 HD
ENDBRANCH   1  21
BRANCH   5  29
ATOM     29  C   UNL     1      35.255 -20.698 -20.583  0.00  0.00    +0.037 C 
ATOM     30  C   UNL     1      34.498 -19.704 -21.017  0.00  0.00    +0.003 C 
BRANCH  30  31
ATOM     31  C   UNL     1      34.790 -18.921 -22.230  0.00  0.00    +0.000 C 
ATOM     32  C   UNL     1      35.179 -17.596 -22.106  0.00  0.00    +0.000 C 
ATOM     33  C   UNL     1      34.670 -19.523 -23.472  0.00  0.00    +0.000 C 
ATOM     34  C   UNL     1      35.456 -16.855 -23.255  0.00  0.00    +0.000 C 
ATOM     35  C   UNL     1      34.947 -18.782 -24.621  0.00  0.00    +0.000 C 
ATOM     36  C   UNL     1      35.340 -17.448 -24.512  0.00  0.00    +0.000 C 
ENDBRANCH  30  31
ENDBRANCH   5  29
TORSDOF 4
ENDMDL
MODEL 3
REMARK VINA RESULT:     -13.2      1.351      2.052
REMARK  Name = 6105620
REMARK  4 active torsions:
REMARK  status: ('A' for Active; 'I' for Inactive)
REMARK    1  A    between atoms: N_2  and  C_7
REMARK    2  A    between atoms: N_3  and  C_21
REMARK    3  A    between atoms: C_9  and  C_29
REMARK    4  A    between atoms: C_30  and  C_31
REMARK                            x       y       z     vdW  Elec       q    Type
REMARK                         _______ _______ _______ _____ _____    ______ ____
ROOT
ATOM      1  N   UNL     1      33.803 -23.146 -17.220  0.00  0.00    -0.086 NA
ATOM      2  N   UNL     1      35.143 -23.033 -16.654  0.00  0.00    -0.132 N 
ATOM      3  N   UNL     1      33.873 -22.532 -18.504  0.00  0.00    -0.240 N 
ATOM      4  N   UNL     1      35.933 -22.299 -17.529  0.00  0.00    -0.146 NA
ATOM      5  C   UNL     1      35.157 -22.036 -18.569  0.00  0.00    +0.162 C 
ATOM      6  H   UNL     1      33.167 -22.475 -19.187  0.00  0.00    +0.170 HD
ENDROOT
BRANCH   2  11
ATOM      7  O   UNL     1      37.767 -21.759 -12.466  0.00  0.00    -0.220 OA
ATOM      8  O   UNL     1      37.542 -26.946 -12.219  0.00  0.00    -0.220 OA
ATOM      9  N   UNL     1      38.278 -23.709 -11.400  0.00  0.00    -0.062 NA
ATOM     10  N   UNL     1      38.225 -24.954 -11.341  0.00  0.00    -0.062 NA
ATOM     11  C   UNL     1      35.747 -23.713 -15.576  0.00  0.00    +0.089 C 
ATOM     12  C   UNL     1      36.412 -23.004 -14.560  0.00  0.00    +0.030 C 
ATOM     13  C   UNL     1      35.696 -25.116 -15.493  0.00  0.00    +0.019 C 
ATOM     14  C   UNL     1      37.007 -23.687 -13.496  0.00  0.00    +0.097 C 
ATOM     15  C   UNL     1      36.948 -25.065 -13.430  0.00  0.00    +0.096 C 
ATOM     16  C   UNL     1      36.292 -25.793 -14.428  0.00  0.00    +0.014 C 
ATOM     17  C   UNL     1      37.710 -22.984 -12.418  0.00  0.00    +0.174 C 
ATOM     18  C   UNL     1      37.592 -25.722 -12.287  0.00  0.00    +0.174 C 
ENDBRANCH   2  11
BRANCH   1  21
ATOM     19  S   UNL     1      32.748 -24.461 -15.142  0.00  0.00    -0.074 S 
ATOM     20  N   UNL     1      31.464 -23.368 -17.149  0.00  0.00    -0.310 N 
ATOM     21  C   UNL     1      32.692 -23.566 -16.657  0.00  0.00    +0.222 C 
ATOM     22  C   UNL     1      30.496 -23.908 -16.364  0.00  0.00    +0.052 C 
ATOM     23  C   UNL     1      30.974 -24.551 -15.217  0.00  0.00    +0.041 C 
ATOM     24  C   UNL     1      29.135 -23.855 -16.627  0.00  0.00    +0.015 C 
ATOM     25  C   UNL     1      30.112 -25.152 -14.315  0.00  0.00    +0.007 C 
ATOM     26  C   UNL     1      28.256 -24.458 -15.725  0.00  0.00    +0.001 C 
ATOM     27  C   UNL     1      28.741 -25.102 -14.577  0.00  0.00    +0.001 C 
ATOM     28  H   UNL     1      31.281 -22.884 -17.987  0.00  0.00    +0.149 HD
ENDBRANCH   1  21
BRANCH   5  29
ATOM     29  C   UNL     1      35.664 -21.255 -19.707  0.00  0.00    +0.037 C 
ATOM     30  C   UNL     1      34.877 -20.458 -20.412  0.00  0.00    +0.003 C 
BRANCH  30  31
ATOM     31  C   UNL     1      35.336 -19.664 -21.565  0.00  0.00    +0.000 C 
ATOM     32  C   UNL     1      36.577 -19.048 -21.513  0.00  0.00    +0.000 C 
ATOM     33  C   UNL     1      34.520 -19.548 -22.678  0.00  0.00    +0.000 C 
ATOM     34  C   UNL     1      37.012 -18.296 -22.605  0.00  0.00    +0.000 C 
ATOM     35  C   UNL     1      34.955 -18.797 -23.769  0.00  0.00    +0.000 C 
ATOM     36  C   UNL     1      36.201 -18.170 -23.733  0.00  0.00    +0.000 C 
ENDBRANCH  30  31
ENDBRANCH   5  29
TORSDOF 4
ENDMDL
