MODEL 1
REMARK VINA RESULT:     -14.6      0.000      0.000
REMARK  Name = 24767976
REMARK  5 active torsions:
REMARK  status: ('A' for Active; 'I' for Inactive)
REMARK    1  A    between atoms: C_1  and  N_9
REMARK    2  A    between atoms: C_2  and  O_19
REMARK    3  A    between atoms: C_10  and  C_14
REMARK    4  A    between atoms: O_19  and  C_27
REMARK    5  A    between atoms: C_31  and  C_33
REMARK                            x       y       z     vdW  Elec       q    Type
REMARK                         _______ _______ _______ _____ _____    ______ ____
ROOT
ATOM      1  C   UNL     1      35.378 -21.658 -18.995  0.00  0.00    +0.050 C 
ATOM      2  C   UNL     1      35.702 -20.079 -20.793  0.00  0.00    +0.148 C 
ATOM      3  C   UNL     1      34.009 -21.676 -19.256  0.00  0.00    -0.008 C 
ATOM      4  C   UNL     1      36.225 -20.859 -19.763  0.00  0.00    +0.052 C 
ATOM      5  C   UNL     1      33.485 -20.895 -20.287  0.00  0.00    +0.000 C 
ATOM      6  C   UNL     1      34.332 -20.096 -21.055  0.00  0.00    +0.037 C 
ATOM      7  C   UNL     1      33.078 -22.522 -18.449  0.00  0.00    +0.032 C 
ENDROOT
BRANCH   1   9
ATOM      8  O   UNL     1      37.366 -20.941 -16.868  0.00  0.00    -0.268 OA
ATOM      9  N   UNL     1      35.922 -22.434 -17.968  0.00  0.00    -0.279 N 
ATOM     10  C   UNL     1      36.852 -22.047 -16.997  0.00  0.00    +0.265 C 
ATOM     11  H   UNL     1      35.613 -23.369 -17.923  0.00  0.00    +0.155 HD
BRANCH  10  14
ATOM     12  N   UNL     1      36.427 -23.796 -15.212  0.00  0.00    -0.206 N 
ATOM     13  N   UNL     1      37.049 -24.714 -14.452  0.00  0.00    -0.182 NA
ATOM     14  C   UNL     1      37.263 -23.115 -16.047  0.00  0.00    +0.124 C 
ATOM     15  C   UNL     1      38.519 -23.623 -15.818  0.00  0.00    +0.037 C 
ATOM     16  C   UNL     1      38.326 -24.604 -14.827  0.00  0.00    +0.078 C 
ATOM     17  C   UNL     1      34.999 -23.621 -15.082  0.00  0.00    +0.140 C 
ATOM     18  C   UNL     1      39.347 -25.465 -14.206  0.00  0.00    +0.054 C 
ENDBRANCH  10  14
ENDBRANCH   1   9
BRANCH   2  19
ATOM     19  O   UNL     1      36.547 -19.280 -21.561  0.00  0.00    -0.435 OA
BRANCH  19  27
ATOM     20  N   UNL     1      33.841 -15.276 -23.818  0.00  0.00    -0.373 NA
ATOM     21  N   UNL     1      34.635 -16.406 -22.067  0.00  0.00    -0.173 N 
ATOM     22  N   UNL     1      35.284 -17.359 -21.342  0.00  0.00    -0.138 NA
ATOM     23  C   UNL     1      33.466 -14.661 -22.650  0.00  0.00    +0.187 C 
ATOM     24  C   UNL     1      33.943 -15.339 -21.555  0.00  0.00    +0.193 C 
ATOM     25  C   UNL     1      34.545 -16.326 -23.446  0.00  0.00    +0.204 C 
ATOM     26  C   UNL     1      35.192 -17.336 -24.196  0.00  0.00    +0.054 C 
ATOM     27  C   UNL     1      35.853 -18.251 -22.087  0.00  0.00    +0.245 C 
ATOM     28  C   UNL     1      35.854 -18.313 -23.564  0.00  0.00    +0.063 C 
ATOM     29  O   UNL     1      32.457 -13.038 -20.325  0.00  0.00    -0.275 OA
ATOM     30  N   UNL     1      32.709 -13.514 -22.623  0.00  0.00    -0.261 N 
ATOM     31  C   UNL     1      32.256 -12.783 -21.505  0.00  0.00    +0.227 C 
ATOM     32  H   UNL     1      32.448 -13.155 -23.501  0.00  0.00    +0.157 HD
BRANCH  31  33
ATOM     33  C   UNL     1      31.447 -11.569 -21.843  0.00  0.00    +0.077 C 
ATOM     34  C   UNL     1      32.098 -10.218 -21.778  0.00  0.00    +0.010 C 
ATOM     35  C   UNL     1      31.079 -10.611 -20.748  0.00  0.00    +0.010 C 
ENDBRANCH  31  33
ENDBRANCH  19  27
ENDBRANCH   2  19
TORSDOF 5
ENDMDL
MODEL 2
REMARK VINA RESULT:     -14.0      3.461     12.542
REMARK  Name = 24767976
REMARK  5 active torsions:
REMARK  status: ('A' for Active; 'I' for Inactive)
REMARK    1  A    between atoms: C_1  and  N_9
REMARK    2  A    between atoms: C_2  and  O_19
REMARK    3  A    between atoms: C_10  and  C_14
REMARK    4  A    between atoms: O_19  and  C_27
REMARK    5  A    between atoms: C_31  and  C_33
REMARK                            x       y       z     vdW  Elec       q    Type
REMARK                         _______ _______ _______ _____ _____    ______ ____
ROOT
ATOM      1  C   UNL     1      32.511 -10.722 -22.894  0.00  0.00    +0.050 C 
ATOM      2  C   UNL     1      33.624 -12.698 -23.725  0.00  0.00    +0.148 C 
ATOM      3  C   UNL     1      31.964 -11.468 -21.851  0.00  0.00    -0.008 C 
ATOM      4  C   UNL     1      33.341 -11.337 -23.831  0.00  0.00    +0.052 C 
ATOM      5  C   UNL     1      32.247 -12.831 -21.745  0.00  0.00    +0.000 C 
ATOM      6  C   UNL     1      33.077 -13.445 -22.682  0.00  0.00    +0.037 C 
ATOM      7  C   UNL     1      31.071 -10.836 -20.832  0.00  0.00    +0.032 C 
ENDROOT
BRANCH   1   9
ATOM      8  O   UNL     1      34.375  -8.400 -23.246  0.00  0.00    -0.268 OA
ATOM      9  N   UNL     1      32.240  -9.357 -23.016  0.00  0.00    -0.279 N 
ATOM     10  C   UNL     1      33.154  -8.309 -23.179  0.00  0.00    +0.265 C 
ATOM     11  H   UNL     1      31.290  -9.100 -22.982  0.00  0.00    +0.155 HD
BRANCH  10  14
ATOM     12  N   UNL     1      32.204  -6.182 -22.180  0.00  0.00    -0.206 N 
ATOM     13  N   UNL     1      31.684  -4.989 -22.515  0.00  0.00    -0.182 NA
ATOM     14  C   UNL     1      32.557  -6.949 -23.252  0.00  0.00    +0.124 C 
ATOM     15  C   UNL     1      32.246  -6.207 -24.364  0.00  0.00    +0.037 C 
ATOM     16  C   UNL     1      31.712  -5.010 -23.850  0.00  0.00    +0.078 C 
ATOM     17  C   UNL     1      32.336  -6.528 -20.784  0.00  0.00    +0.140 C 
ATOM     18  C   UNL     1      31.214  -3.851 -24.610  0.00  0.00    +0.054 C 
ENDBRANCH  10  14
ENDBRANCH   1   9
BRANCH   2  19
ATOM     19  O   UNL     1      34.452 -13.313 -24.661  0.00  0.00    -0.435 OA
BRANCH  19  27
ATOM     20  N   UNL     1      34.491 -18.600 -23.956  0.00  0.00    -0.373 NA
ATOM     21  N   UNL     1      34.992 -16.507 -23.367  0.00  0.00    -0.173 N 
ATOM     22  N   UNL     1      35.068 -15.148 -23.402  0.00  0.00    -0.138 NA
ATOM     23  C   UNL     1      35.193 -18.596 -22.777  0.00  0.00    +0.187 C 
ATOM     24  C   UNL     1      35.514 -17.317 -22.393  0.00  0.00    +0.193 C 
ATOM     25  C   UNL     1      34.379 -17.332 -24.296  0.00  0.00    +0.204 C 
ATOM     26  C   UNL     1      33.763 -16.708 -25.407  0.00  0.00    +0.054 C 
ATOM     27  C   UNL     1      34.486 -14.642 -24.441  0.00  0.00    +0.245 C 
ATOM     28  C   UNL     1      33.791 -15.374 -25.521  0.00  0.00    +0.063 C 
ATOM     29  O   UNL     1      36.698 -18.995 -20.201  0.00  0.00    -0.275 OA
ATOM     30  N   UNL     1      35.514 -19.749 -22.099  0.00  0.00    -0.261 N 
ATOM     31  C   UNL     1      36.224 -19.890 -20.890  0.00  0.00    +0.227 C 
ATOM     32  H   UNL     1      35.207 -20.586 -22.513  0.00  0.00    +0.157 HD
BRANCH  31  33
ATOM     33  C   UNL     1      36.393 -21.305 -20.430  0.00  0.00    +0.077 C 
ATOM     34  C   UNL     1      35.323 -21.929 -19.583  0.00  0.00    +0.010 C 
ATOM     35  C   UNL     1      36.649 -21.574 -18.976  0.00  0.00    +0.010 C 
ENDBRANCH  31  33
ENDBRANCH  19  27
ENDBRANCH   2  19
TORSDOF 5
ENDMDL
MODEL 3
REMARK VINA RESULT:     -13.2      2.171     10.422
REMARK  Name = 24767976
REMARK  5 active torsions:
REMARK  status: ('A' for Active; 'I' for Inactive)
REMARK    1  A    between atoms: C_1  and  N_9
REMARK    2  A    between atoms: C_2  and  O_19
REMARK    3  A    between atoms: C_10  and  C_14
REMARK    4  A    between atoms: O_19  and  C_27
REMARK    5  A    between atoms: C_31  and  C_33
REMARK                            x       y       z     vdW  Elec       q    Type
REMARK                         _______ _______ _______ _____ _____    ______ ____
ROOT
ATOM      1  C   UNL     1      34.407 -16.541 -23.540  0.00  0.00    +0.050 C 
ATOM      2  C   UNL     1      35.754 -18.435 -22.882  0.00  0.00    +0.148 C 
ATOM      3  C   UNL     1      34.257 -17.089 -24.813  0.00  0.00    -0.008 C 
ATOM      4  C   UNL     1      35.155 -17.214 -22.574  0.00  0.00    +0.052 C 
ATOM      5  C   UNL     1      34.855 -18.311 -25.122  0.00  0.00    +0.000 C 
ATOM      6  C   UNL     1      35.604 -18.984 -24.156  0.00  0.00    +0.037 C 
ATOM      7  C   UNL     1      33.461 -16.390 -25.868  0.00  0.00    +0.032 C 
ENDROOT
BRANCH   1   9
ATOM      8  O   UNL     1      34.607 -14.899 -21.039  0.00  0.00    -0.268 OA
ATOM      9  N   UNL     1      33.814 -15.319 -23.212  0.00  0.00    -0.279 N 
ATOM     10  C   UNL     1      33.941 -14.592 -22.023  0.00  0.00    +0.265 C 
ATOM     11  H   UNL     1      33.234 -14.921 -23.902  0.00  0.00    +0.155 HD
BRANCH  10  14
ATOM     12  N   UNL     1      33.153 -12.354 -22.915  0.00  0.00    -0.206 N 
ATOM     13  N   UNL     1      32.360 -11.311 -22.619  0.00  0.00    -0.182 NA
ATOM     14  C   UNL     1      33.158 -13.330 -21.961  0.00  0.00    +0.124 C 
ATOM     15  C   UNL     1      32.310 -12.894 -20.973  0.00  0.00    +0.037 C 
ATOM     16  C   UNL     1      31.847 -11.646 -21.432  0.00  0.00    +0.078 C 
ATOM     17  C   UNL     1      33.894 -12.350 -24.155  0.00  0.00    +0.140 C 
ATOM     18  C   UNL     1      30.905 -10.736 -20.759  0.00  0.00    +0.054 C 
ENDBRANCH  10  14
ENDBRANCH   1   9
BRANCH   2  19
ATOM     19  O   UNL     1      36.502 -19.107 -21.919  0.00  0.00    -0.435 OA
BRANCH  19  27
ATOM     20  N   UNL     1      33.137 -22.013 -18.970  0.00  0.00    -0.373 NA
ATOM     21  N   UNL     1      35.157 -21.221 -19.491  0.00  0.00    -0.173 N 
ATOM     22  N   UNL     1      36.137 -20.534 -20.140  0.00  0.00    -0.138 NA
ATOM     23  C   UNL     1      34.074 -22.498 -18.094  0.00  0.00    +0.187 C 
ATOM     24  C   UNL     1      35.329 -22.025 -18.395  0.00  0.00    +0.193 C 
ATOM     25  C   UNL     1      33.808 -21.245 -19.805  0.00  0.00    +0.204 C 
ATOM     26  C   UNL     1      33.390 -20.477 -20.918  0.00  0.00    +0.054 C 
ATOM     27  C   UNL     1      35.689 -19.855 -21.146  0.00  0.00    +0.245 C 
ATOM     28  C   UNL     1      34.289 -19.771 -21.614  0.00  0.00    +0.063 C 
ATOM     29  O   UNL     1      35.822 -23.760 -15.993  0.00  0.00    -0.275 OA
ATOM     30  N   UNL     1      33.757 -23.349 -17.062  0.00  0.00    -0.261 N 
ATOM     31  C   UNL     1      34.612 -23.919 -16.096  0.00  0.00    +0.227 C 
ATOM     32  H   UNL     1      32.807 -23.591 -16.986  0.00  0.00    +0.157 HD
BRANCH  31  33
ATOM     33  C   UNL     1      33.925 -24.806 -15.105  0.00  0.00    +0.077 C 
ATOM     34  C   UNL     1      32.813 -24.243 -14.270  0.00  0.00    +0.010 C 
ATOM     35  C   UNL     1      34.136 -24.563 -13.639  0.00  0.00    +0.010 C 
ENDBRANCH  31  33
ENDBRANCH  19  27
ENDBRANCH   2  19
TORSDOF 5
ENDMDL
MODEL 4
REMARK VINA RESULT:     -13.2      2.740     11.046
REMARK  Name = 24767976
REMARK  5 active torsions:
REMARK  status: ('A' for Active; 'I' for Inactive)
REMARK    1  A    between atoms: C_1  and  N_9
REMARK    2  A    between atoms: C_2  and  O_19
REMARK    3  A    between atoms: C_10  and  C_14
REMARK    4  A    between atoms: O_19  and  C_27
REMARK    5  A    between atoms: C_31  and  C_33
REMARK                            x       y       z     vdW  Elec       q    Type
REMARK                         _______ _______ _______ _____ _____    ______ ____
ROOT
ATOM      1  C   UNL     1      34.930 -19.337 -21.414  0.00  0.00    +0.050 C 
ATOM      2  C   UNL     1      34.123 -21.227 -20.145  0.00  0.00    +0.148 C 
ATOM      3  C   UNL     1      36.238 -19.649 -21.048  0.00  0.00    -0.008 C 
ATOM      4  C   UNL     1      33.871 -20.126 -20.963  0.00  0.00    +0.052 C 
ATOM      5  C   UNL     1      36.489 -20.750 -20.228  0.00  0.00    +0.000 C 
ATOM      6  C   UNL     1      35.431 -21.539 -19.777  0.00  0.00    +0.037 C 
ATOM      7  C   UNL     1      37.391 -18.821 -21.516  0.00  0.00    +0.032 C 
ENDROOT
BRANCH   1   9
ATOM      8  O   UNL     1      35.132 -19.044 -24.392  0.00  0.00    -0.268 OA
ATOM      9  N   UNL     1      34.658 -18.239 -22.235  0.00  0.00    -0.279 N 
ATOM     10  C   UNL     1      34.770 -18.156 -23.627  0.00  0.00    +0.265 C 
ATOM     11  H   UNL     1      34.351 -17.423 -21.776  0.00  0.00    +0.155 HD
BRANCH  10  14
ATOM     12  N   UNL     1      34.442 -15.644 -23.545  0.00  0.00    -0.206 N 
ATOM     13  N   UNL     1      34.098 -14.591 -24.306  0.00  0.00    -0.182 NA
ATOM     14  C   UNL     1      34.434 -16.832 -24.215  0.00  0.00    +0.124 C 
ATOM     15  C   UNL     1      34.058 -16.536 -25.502  0.00  0.00    +0.037 C 
ATOM     16  C   UNL     1      33.865 -15.141 -25.500  0.00  0.00    +0.078 C 
ATOM     17  C   UNL     1      34.774 -15.434 -22.155  0.00  0.00    +0.140 C 
ATOM     18  C   UNL     1      33.454 -14.291 -26.630  0.00  0.00    +0.054 C 
ENDBRANCH  10  14
ENDBRANCH   1   9
BRANCH   2  19
ATOM     19  O   UNL     1      33.067 -22.015 -19.693  0.00  0.00    -0.435 OA
BRANCH  19  27
ATOM     20  N   UNL     1      33.917 -23.815 -14.744  0.00  0.00    -0.373 NA
ATOM     21  N   UNL     1      34.589 -23.110 -16.751  0.00  0.00    -0.173 N 
ATOM     22  N   UNL     1      34.540 -22.648 -18.032  0.00  0.00    -0.138 NA
ATOM     23  C   UNL     1      35.287 -23.825 -14.814  0.00  0.00    +0.187 C 
ATOM     24  C   UNL     1      35.726 -23.395 -16.042  0.00  0.00    +0.193 C 
ATOM     25  C   UNL     1      33.514 -23.381 -15.922  0.00  0.00    +0.204 C 
ATOM     26  C   UNL     1      32.219 -23.159 -16.448  0.00  0.00    +0.054 C 
ATOM     27  C   UNL     1      33.329 -22.467 -18.451  0.00  0.00    +0.245 C 
ATOM     28  C   UNL     1      32.079 -22.706 -17.700  0.00  0.00    +0.063 C 
ATOM     29  O   UNL     1      38.284 -23.984 -14.582  0.00  0.00    -0.275 OA
ATOM     30  N   UNL     1      36.082 -24.222 -13.765  0.00  0.00    -0.261 N 
ATOM     31  C   UNL     1      37.490 -24.282 -13.700  0.00  0.00    +0.227 C 
ATOM     32  H   UNL     1      35.606 -24.502 -12.952  0.00  0.00    +0.157 HD
BRANCH  31  33
ATOM     33  C   UNL     1      38.031 -24.764 -12.390  0.00  0.00    +0.077 C 
ATOM     34  C   UNL     1      37.745 -26.173 -11.957  0.00  0.00    +0.010 C 
ATOM     35  C   UNL     1      37.079 -25.024 -11.259  0.00  0.00    +0.010 C 
ENDBRANCH  31  33
ENDBRANCH  19  27
ENDBRANCH   2  19
TORSDOF 5
ENDMDL
MODEL 5
REMARK VINA RESULT:     -12.8      1.315      1.694
REMARK  Name = 24767976
REMARK  5 active torsions:
REMARK  status: ('A' for Active; 'I' for Inactive)
REMARK    1  A    between atoms: C_1  and  N_9
REMARK    2  A    between atoms: C_2  and  O_19
REMARK    3  A    between atoms: C_10  and  C_14
REMARK    4  A    between atoms: O_19  and  C_27
REMARK    5  A    between atoms: C_31  and  C_33
REMARK                            x       y       z     vdW  Elec       q    Type
REMARK                         _______ _______ _______ _____ _____    ______ ____
ROOT
ATOM      1  C   UNL     1      35.455 -22.083 -17.942  0.00  0.00    +0.050 C 
ATOM      2  C   UNL     1      36.098 -20.666 -19.789  0.00  0.00    +0.148 C 
ATOM      3  C   UNL     1      34.223 -22.320 -18.552  0.00  0.00    -0.008 C 
ATOM      4  C   UNL     1      36.393 -21.256 -18.561  0.00  0.00    +0.052 C 
ATOM      5  C   UNL     1      33.929 -21.729 -19.781  0.00  0.00    +0.000 C 
ATOM      6  C   UNL     1      34.867 -20.902 -20.400  0.00  0.00    +0.037 C 
ATOM      7  C   UNL     1      33.200 -23.201 -17.912  0.00  0.00    +0.032 C 
ENDROOT
BRANCH   1   9
ATOM      8  O   UNL     1      37.918 -21.835 -16.251  0.00  0.00    -0.268 OA
ATOM      9  N   UNL     1      35.768 -22.667 -16.712  0.00  0.00    -0.279 N 
ATOM     10  C   UNL     1      36.940 -22.516 -15.962  0.00  0.00    +0.265 C 
ATOM     11  H   UNL     1      35.081 -23.257 -16.326  0.00  0.00    +0.155 HD
BRANCH  10  14
ATOM     12  N   UNL     1      37.945 -24.212 -14.368  0.00  0.00    -0.206 N 
ATOM     13  N   UNL     1      37.762 -24.779 -13.164  0.00  0.00    -0.182 NA
ATOM     14  C   UNL     1      36.990 -23.295 -14.696  0.00  0.00    +0.124 C 
ATOM     15  C   UNL     1      36.123 -23.259 -13.632  0.00  0.00    +0.037 C 
ATOM     16  C   UNL     1      36.648 -24.192 -12.718  0.00  0.00    +0.078 C 
ATOM     17  C   UNL     1      39.080 -24.607 -15.170  0.00  0.00    +0.140 C 
ATOM     18  C   UNL     1      36.109 -24.555 -11.397  0.00  0.00    +0.054 C 
ENDBRANCH  10  14
ENDBRANCH   1   9
BRANCH   2  19
ATOM     19  O   UNL     1      37.034 -19.840 -20.407  0.00  0.00    -0.435 OA
BRANCH  19  27
ATOM     20  N   UNL     1      34.602 -16.142 -23.385  0.00  0.00    -0.373 NA
ATOM     21  N   UNL     1      35.168 -17.079 -21.441  0.00  0.00    -0.173 N 
ATOM     22  N   UNL     1      35.727 -17.942 -20.547  0.00  0.00    -0.138 NA
ATOM     23  C   UNL     1      34.064 -15.430 -22.343  0.00  0.00    +0.187 C 
ATOM     24  C   UNL     1      34.398 -15.989 -21.133  0.00  0.00    +0.193 C 
ATOM     25  C   UNL     1      35.264 -17.133 -22.822  0.00  0.00    +0.204 C 
ATOM     26  C   UNL     1      36.021 -18.192 -23.376  0.00  0.00    +0.054 C 
ATOM     27  C   UNL     1      36.404 -18.884 -21.119  0.00  0.00    +0.245 C 
ATOM     28  C   UNL     1      36.606 -19.086 -22.569  0.00  0.00    +0.063 C 
ATOM     29  O   UNL     1      32.726 -13.622 -20.343  0.00  0.00    -0.275 OA
ATOM     30  N   UNL     1      33.294 -14.306 -22.529  0.00  0.00    -0.261 N 
ATOM     31  C   UNL     1      32.684 -13.486 -21.558  0.00  0.00    +0.227 C 
ATOM     32  H   UNL     1      33.150 -14.039 -23.464  0.00  0.00    +0.157 HD
BRANCH  31  33
ATOM     33  C   UNL     1      31.911 -12.332 -22.117  0.00  0.00    +0.077 C 
ATOM     34  C   UNL     1      32.477 -10.947 -21.995  0.00  0.00    +0.010 C 
ATOM     35  C   UNL     1      31.287 -11.347 -21.173  0.00  0.00    +0.010 C 
ENDBRANCH  31  33
ENDBRANCH  19  27
ENDBRANCH   2  19
TORSDOF 5
ENDMDL
MODEL 6
REMARK VINA RESULT:     -12.6      2.546      2.955
REMARK  Name = 24767976
REMARK  5 active torsions:
REMARK  status: ('A' for Active; 'I' for Inactive)
REMARK    1  A    between atoms: C_1  and  N_9
REMARK    2  A    between atoms: C_2  and  O_19
REMARK    3  A    between atoms: C_10  and  C_14
REMARK    4  A    between atoms: O_19  and  C_27
REMARK    5  A    between atoms: C_31  and  C_33
REMARK                            x       y       z     vdW  Elec       q    Type
REMARK                         _______ _______ _______ _____ _____    ______ ____
ROOT
ATOM      1  C   UNL     1      34.741 -22.474 -18.184  0.00  0.00    +0.050 C 
ATOM      2  C   UNL     1      35.187 -21.367 -20.284  0.00  0.00    +0.148 C 
ATOM      3  C   UNL     1      33.377 -22.236 -18.347  0.00  0.00    -0.008 C 
ATOM      4  C   UNL     1      35.646 -22.040 -19.153  0.00  0.00    +0.052 C 
ATOM      5  C   UNL     1      32.917 -21.562 -19.479  0.00  0.00    +0.000 C 
ATOM      6  C   UNL     1      33.822 -21.128 -20.448  0.00  0.00    +0.037 C 
ATOM      7  C   UNL     1      32.385 -22.689 -17.325  0.00  0.00    +0.032 C 
ENDROOT
BRANCH   1   9
ATOM      8  O   UNL     1      36.856 -21.687 -16.210  0.00  0.00    -0.268 OA
ATOM      9  N   UNL     1      35.221 -23.148 -17.058  0.00  0.00    -0.279 N 
ATOM     10  C   UNL     1      36.216 -22.732 -16.165  0.00  0.00    +0.265 C 
ATOM     11  H   UNL     1      34.809 -24.022 -16.869  0.00  0.00    +0.155 HD
BRANCH  10  14
ATOM     12  N   UNL     1      35.625 -24.205 -14.189  0.00  0.00    -0.206 N 
ATOM     13  N   UNL     1      36.164 -25.049 -13.292  0.00  0.00    -0.182 NA
ATOM     14  C   UNL     1      36.529 -23.689 -15.071  0.00  0.00    +0.124 C 
ATOM     15  C   UNL     1      37.742 -24.233 -14.727  0.00  0.00    +0.037 C 
ATOM     16  C   UNL     1      37.457 -25.062 -13.626  0.00  0.00    +0.078 C 
ATOM     17  C   UNL     1      34.207 -23.932 -14.140  0.00  0.00    +0.140 C 
ATOM     18  C   UNL     1      38.402 -25.892 -12.860  0.00  0.00    +0.054 C 
ENDBRANCH  10  14
ENDBRANCH   1   9
BRANCH   2  19
ATOM     19  O   UNL     1      36.090 -20.933 -21.251  0.00  0.00    -0.435 OA
BRANCH  19  27
ATOM     20  N   UNL     1      34.969 -15.892 -22.589  0.00  0.00    -0.373 NA
ATOM     21  N   UNL     1      34.995 -18.093 -22.955  0.00  0.00    -0.173 N 
ATOM     22  N   UNL     1      35.212 -19.423 -22.762  0.00  0.00    -0.138 NA
ATOM     23  C   UNL     1      34.402 -16.175 -23.806  0.00  0.00    +0.187 C 
ATOM     24  C   UNL     1      34.407 -17.526 -24.056  0.00  0.00    +0.193 C 
ATOM     25  C   UNL     1      35.320 -17.061 -22.091  0.00  0.00    +0.204 C 
ATOM     26  C   UNL     1      35.947 -17.413 -20.872  0.00  0.00    +0.054 C 
ATOM     27  C   UNL     1      35.787 -19.676 -21.631  0.00  0.00    +0.245 C 
ATOM     28  C   UNL     1      36.199 -18.699 -20.600  0.00  0.00    +0.063 C 
ATOM     29  O   UNL     1      33.103 -16.391 -26.512  0.00  0.00    -0.275 OA
ATOM     30  N   UNL     1      33.906 -15.200 -24.639  0.00  0.00    -0.261 N 
ATOM     31  C   UNL     1      33.303 -15.348 -25.905  0.00  0.00    +0.227 C 
ATOM     32  H   UNL     1      33.982 -14.277 -24.308  0.00  0.00    +0.157 HD
BRANCH  31  33
ATOM     33  C   UNL     1      32.872 -14.062 -26.541  0.00  0.00    +0.077 C 
ATOM     34  C   UNL     1      33.848 -13.308 -27.396  0.00  0.00    +0.010 C 
ATOM     35  C   UNL     1      33.460 -12.772 -26.049  0.00  0.00    +0.010 C 
ENDBRANCH  31  33
ENDBRANCH  19  27
ENDBRANCH   2  19
TORSDOF 5
ENDMDL
MODEL 7
REMARK VINA RESULT:     -12.5      2.023      3.477
REMARK  Name = 24767976
REMARK  5 active torsions:
REMARK  status: ('A' for Active; 'I' for Inactive)
REMARK    1  A    between atoms: C_1  and  N_9
REMARK    2  A    between atoms: C_2  and  O_19
REMARK    3  A    between atoms: C_10  and  C_14
REMARK    4  A    between atoms: O_19  and  C_27
REMARK    5  A    between atoms: C_31  and  C_33
REMARK                            x       y       z     vdW  Elec       q    Type
REMARK                         _______ _______ _______ _____ _____    ______ ____
ROOT
ATOM      1  C   UNL     1      35.655 -19.830 -20.827  0.00  0.00    +0.050 C 
ATOM      2  C   UNL     1      35.605 -18.858 -23.037  0.00  0.00    +0.148 C 
ATOM      3  C   UNL     1      36.953 -19.355 -20.646  0.00  0.00    -0.008 C 
ATOM      4  C   UNL     1      34.980 -19.582 -22.022  0.00  0.00    +0.052 C 
ATOM      5  C   UNL     1      37.578 -18.630 -21.662  0.00  0.00    +0.000 C 
ATOM      6  C   UNL     1      36.903 -18.382 -22.858  0.00  0.00    +0.037 C 
ATOM      7  C   UNL     1      37.700 -19.606 -19.376  0.00  0.00    +0.032 C 
ENDROOT
BRANCH   1   9
ATOM      8  O   UNL     1      35.715 -22.765 -20.216  0.00  0.00    -0.268 OA
ATOM      9  N   UNL     1      35.012 -20.557 -19.821  0.00  0.00    -0.279 N 
ATOM     10  C   UNL     1      35.075 -21.934 -19.580  0.00  0.00    +0.265 C 
ATOM     11  H   UNL     1      34.445 -20.036 -19.207  0.00  0.00    +0.155 HD
BRANCH  10  14
ATOM     12  N   UNL     1      34.722 -22.746 -17.205  0.00  0.00    -0.206 N 
ATOM     13  N   UNL     1      33.770 -23.160 -16.352  0.00  0.00    -0.182 NA
ATOM     14  C   UNL     1      34.250 -22.420 -18.442  0.00  0.00    +0.124 C 
ATOM     15  C   UNL     1      32.894 -22.635 -18.396  0.00  0.00    +0.037 C 
ATOM     16  C   UNL     1      32.655 -23.089 -17.085  0.00  0.00    +0.078 C 
ATOM     17  C   UNL     1      36.095 -22.688 -16.757  0.00  0.00    +0.140 C 
ATOM     18  C   UNL     1      31.363 -23.470 -16.490  0.00  0.00    +0.054 C 
ENDBRANCH  10  14
ENDBRANCH   1   9
BRANCH   2  19
ATOM     19  O   UNL     1      34.932 -18.610 -24.231  0.00  0.00    -0.435 OA
BRANCH  19  27
ATOM     20  N   UNL     1      33.168 -13.583 -24.494  0.00  0.00    -0.373 NA
ATOM     21  N   UNL     1      33.698 -15.454 -23.401  0.00  0.00    -0.173 N 
ATOM     22  N   UNL     1      34.124 -16.727 -23.168  0.00  0.00    -0.138 NA
ATOM     23  C   UNL     1      32.940 -13.426 -23.150  0.00  0.00    +0.187 C 
ATOM     24  C   UNL     1      33.259 -14.566 -22.454  0.00  0.00    +0.193 C 
ATOM     25  C   UNL     1      33.625 -14.812 -24.626  0.00  0.00    +0.204 C 
ATOM     26  C   UNL     1      34.032 -15.545 -25.766  0.00  0.00    +0.054 C 
ATOM     27  C   UNL     1      34.481 -17.340 -24.249  0.00  0.00    +0.245 C 
ATOM     28  C   UNL     1      34.464 -16.805 -25.627  0.00  0.00    +0.063 C 
ATOM     29  O   UNL     1      32.319 -12.702 -20.295  0.00  0.00    -0.275 OA
ATOM     30  N   UNL     1      32.454 -12.259 -22.610  0.00  0.00    -0.261 N 
ATOM     31  C   UNL     1      32.176 -11.962 -21.260  0.00  0.00    +0.227 C 
ATOM     32  H   UNL     1      32.276 -11.534 -23.251  0.00  0.00    +0.157 HD
BRANCH  31  33
ATOM     33  C   UNL     1      31.653 -10.579 -21.023  0.00  0.00    +0.077 C 
ATOM     34  C   UNL     1      32.475  -9.618 -20.214  0.00  0.00    +0.010 C 
ATOM     35  C   UNL     1      31.212 -10.193 -19.641  0.00  0.00    +0.010 C 
ENDBRANCH  31  33
ENDBRANCH  19  27
ENDBRANCH   2  19
TORSDOF 5
ENDMDL
MODEL 8
REMARK VINA RESULT:     -12.2      4.823     13.910
REMARK  Name = 24767976
REMARK  5 active torsions:
REMARK  status: ('A' for Active; 'I' for Inactive)
REMARK    1  A    between atoms: C_1  and  N_9
REMARK    2  A    between atoms: C_2  and  O_19
REMARK    3  A    between atoms: C_10  and  C_14
REMARK    4  A    between atoms: O_19  and  C_27
REMARK    5  A    between atoms: C_31  and  C_33
REMARK                            x       y       z     vdW  Elec       q    Type
REMARK                         _______ _______ _______ _____ _____    ______ ____
ROOT
ATOM      1  C   UNL     1      32.071  -8.005 -22.082  0.00  0.00    +0.050 C 
ATOM      2  C   UNL     1      31.485 -10.270 -21.485  0.00  0.00    +0.148 C 
ATOM      3  C   UNL     1      32.493  -7.768 -20.775  0.00  0.00    -0.008 C 
ATOM      4  C   UNL     1      31.567  -9.256 -22.438  0.00  0.00    +0.052 C 
ATOM      5  C   UNL     1      32.411  -8.784 -19.821  0.00  0.00    +0.000 C 
ATOM      6  C   UNL     1      31.907 -10.035 -20.176  0.00  0.00    +0.037 C 
ATOM      7  C   UNL     1      33.037  -6.438 -20.366  0.00  0.00    +0.032 C 
ENDROOT
BRANCH   1   9
ATOM      8  O   UNL     1      34.437  -6.920 -23.571  0.00  0.00    -0.268 OA
ATOM      9  N   UNL     1      32.146  -7.001 -23.052  0.00  0.00    -0.279 N 
ATOM     10  C   UNL     1      33.283  -6.531 -23.718  0.00  0.00    +0.265 C 
ATOM     11  H   UNL     1      31.294  -6.571 -23.295  0.00  0.00    +0.155 HD
BRANCH  10  14
ATOM     12  N   UNL     1      32.328  -4.293 -24.427  0.00  0.00    -0.206 N 
ATOM     13  N   UNL     1      32.260  -3.448 -25.470  0.00  0.00    -0.182 NA
ATOM     14  C   UNL     1      33.044  -5.425 -24.683  0.00  0.00    +0.124 C 
ATOM     15  C   UNL     1      33.475  -5.313 -25.982  0.00  0.00    +0.037 C 
ATOM     16  C   UNL     1      32.962  -4.075 -26.416  0.00  0.00    +0.078 C 
ATOM     17  C   UNL     1      31.668  -3.945 -23.190  0.00  0.00    +0.140 C 
ATOM     18  C   UNL     1      33.124  -3.453 -27.741  0.00  0.00    +0.054 C 
ENDBRANCH  10  14
ENDBRANCH   1   9
BRANCH   2  19
ATOM     19  O   UNL     1      30.981 -11.520 -21.839  0.00  0.00    -0.435 OA
BRANCH  19  27
ATOM     20  N   UNL     1      35.023 -14.594 -23.472  0.00  0.00    -0.373 NA
ATOM     21  N   UNL     1      33.253 -14.144 -22.192  0.00  0.00    -0.173 N 
ATOM     22  N   UNL     1      32.185 -13.483 -21.665  0.00  0.00    -0.138 NA
ATOM     23  C   UNL     1      34.789 -15.634 -22.609  0.00  0.00    +0.187 C 
ATOM     24  C   UNL     1      33.702 -15.381 -21.808  0.00  0.00    +0.193 C 
ATOM     25  C   UNL     1      34.087 -13.705 -23.206  0.00  0.00    +0.204 C 
ATOM     26  C   UNL     1      33.813 -12.434 -23.764  0.00  0.00    +0.054 C 
ATOM     27  C   UNL     1      31.989 -12.330 -22.219  0.00  0.00    +0.245 C 
ATOM     28  C   UNL     1      32.781 -11.715 -23.305  0.00  0.00    +0.063 C 
ATOM     29  O   UNL     1      34.597 -18.096 -20.888  0.00  0.00    -0.275 OA
ATOM     30  N   UNL     1      35.567 -16.767 -22.581  0.00  0.00    -0.261 N 
ATOM     31  C   UNL     1      35.440 -17.902 -21.754  0.00  0.00    +0.227 C 
ATOM     32  H   UNL     1      36.310 -16.789 -23.224  0.00  0.00    +0.157 HD
BRANCH  31  33
ATOM     33  C   UNL     1      36.468 -18.964 -21.995  0.00  0.00    +0.077 C 
ATOM     34  C   UNL     1      37.411 -19.332 -20.887  0.00  0.00    +0.010 C 
ATOM     35  C   UNL     1      37.914 -18.573 -22.080  0.00  0.00    +0.010 C 
ENDBRANCH  31  33
ENDBRANCH  19  27
ENDBRANCH   2  19
TORSDOF 5
ENDMDL
MODEL 9
REMARK VINA RESULT:     -12.2      7.951     11.679
REMARK  Name = 24767976
REMARK  5 active torsions:
REMARK  status: ('A' for Active; 'I' for Inactive)
REMARK    1  A    between atoms: C_1  and  N_9
REMARK    2  A    between atoms: C_2  and  O_19
REMARK    3  A    between atoms: C_10  and  C_14
REMARK    4  A    between atoms: O_19  and  C_27
REMARK    5  A    between atoms: C_31  and  C_33
REMARK                            x       y       z     vdW  Elec       q    Type
REMARK                         _______ _______ _______ _____ _____    ______ ____
ROOT
ATOM      1  C   UNL     1      32.224 -11.844 -22.181  0.00  0.00    +0.050 C 
ATOM      2  C   UNL     1      31.473  -9.560 -21.947  0.00  0.00    +0.148 C 
ATOM      3  C   UNL     1      32.211 -11.991 -20.795  0.00  0.00    -0.008 C 
ATOM      4  C   UNL     1      31.855 -10.628 -22.758  0.00  0.00    +0.052 C 
ATOM      5  C   UNL     1      31.828 -10.922 -19.984  0.00  0.00    +0.000 C 
ATOM      6  C   UNL     1      31.459  -9.706 -20.560  0.00  0.00    +0.037 C 
ATOM      7  C   UNL     1      32.602 -13.281 -20.150  0.00  0.00    +0.032 C 
ENDROOT
BRANCH   1   9
ATOM      8  O   UNL     1      34.349 -11.988 -24.292  0.00  0.00    -0.268 OA
ATOM      9  N   UNL     1      32.603 -12.903 -23.010  0.00  0.00    -0.279 N 
ATOM     10  C   UNL     1      33.608 -12.916 -23.984  0.00  0.00    +0.265 C 
ATOM     11  H   UNL     1      32.102 -13.743 -22.895  0.00  0.00    +0.155 HD
BRANCH  10  14
ATOM     12  N   UNL     1      33.564 -14.356 -26.070  0.00  0.00    -0.206 N 
ATOM     13  N   UNL     1      33.760 -15.615 -26.498  0.00  0.00    -0.182 NA
ATOM     14  C   UNL     1      33.756 -14.195 -24.729  0.00  0.00    +0.124 C 
ATOM     15  C   UNL     1      34.101 -15.433 -24.246  0.00  0.00    +0.037 C 
ATOM     16  C   UNL     1      34.089 -16.268 -25.380  0.00  0.00    +0.078 C 
ATOM     17  C   UNL     1      33.185 -13.337 -27.021  0.00  0.00    +0.140 C 
ATOM     18  C   UNL     1      34.388 -17.709 -25.436  0.00  0.00    +0.054 C 
ENDBRANCH  10  14
ENDBRANCH   1   9
BRANCH   2  19
ATOM     19  O   UNL     1      31.104  -8.346 -22.522  0.00  0.00    -0.435 OA
BRANCH  19  27
ATOM     20  N   UNL     1      35.428  -6.205 -24.796  0.00  0.00    -0.373 NA
ATOM     21  N   UNL     1      33.235  -6.584 -24.650  0.00  0.00    -0.173 N 
ATOM     22  N   UNL     1      32.042  -7.056 -24.192  0.00  0.00    -0.138 NA
ATOM     23  C   UNL     1      34.770  -5.570 -25.819  0.00  0.00    +0.187 C 
ATOM     24  C   UNL     1      33.416  -5.790 -25.752  0.00  0.00    +0.193 C 
ATOM     25  C   UNL     1      34.486  -6.811 -24.101  0.00  0.00    +0.204 C 
ATOM     26  C   UNL     1      34.547  -7.617 -22.941  0.00  0.00    +0.054 C 
ATOM     27  C   UNL     1      32.168  -7.785 -23.130  0.00  0.00    +0.245 C 
ATOM     28  C   UNL     1      33.421  -8.123 -22.422  0.00  0.00    +0.063 C 
ATOM     29  O   UNL     1      33.695  -4.049 -28.183  0.00  0.00    -0.275 OA
ATOM     30  N   UNL     1      35.421  -4.821 -26.771  0.00  0.00    -0.261 N 
ATOM     31  C   UNL     1      34.875  -4.122 -27.867  0.00  0.00    +0.227 C 
ATOM     32  H   UNL     1      36.398  -4.766 -26.674  0.00  0.00    +0.157 HD
BRANCH  31  33
ATOM     33  C   UNL     1      35.882  -3.402 -28.708  0.00  0.00    +0.077 C 
ATOM     34  C   UNL     1      36.538  -4.131 -29.845  0.00  0.00    +0.010 C 
ATOM     35  C   UNL     1      37.327  -3.796 -28.613  0.00  0.00    +0.010 C 
ENDBRANCH  31  33
ENDBRANCH  19  27
ENDBRANCH   2  19
TORSDOF 5
ENDMDL
