MODEL 1
REMARK VINA RESULT:     -13.3      0.000      0.000
REMARK  Name = 3151
REMARK  5 active torsions:
REMARK  status: ('A' for Active; 'I' for Inactive)
REMARK    1  A    between atoms: N_1  and  C_20
REMARK    2  A    between atoms: C_2  and  N_10
REMARK    3  A    between atoms: C_20  and  C_21
REMARK    4  A    between atoms: C_21  and  C_22
REMARK    5  A    between atoms: C_22  and  N_24
REMARK                            x       y       z     vdW  Elec       q    Type
REMARK                         _______ _______ _______ _____ _____    ______ ____
ROOT
ATOM      1  N   UNL     1      35.105 -15.799 -23.716  0.00  0.00    +0.387 N 
ATOM      2  C   UNL     1      34.885 -18.185 -22.039  0.00  0.00    +0.086 C 
ATOM      3  C   UNL     1      35.130 -16.796 -21.452  0.00  0.00    -0.000 C 
ATOM      4  C   UNL     1      35.385 -18.245 -23.482  0.00  0.00    -0.000 C 
ATOM      5  C   UNL     1      34.557 -15.703 -22.355  0.00  0.00    -0.075 C 
ATOM      6  C   UNL     1      34.803 -17.104 -24.319  0.00  0.00    -0.075 C 
ATOM      7  H   UNL     1      36.118 -15.708 -23.655  0.00  0.00    -0.080 HD
ENDROOT
BRANCH   2  10
ATOM      8 CL   UNL     1      33.487 -23.675 -18.040  0.00  0.00    -0.082 Cl
ATOM      9  O   UNL     1      37.822 -18.684 -21.440  0.00  0.00    -0.247 OA
ATOM     10  N   UNL     1      35.511 -19.202 -21.230  0.00  0.00    -0.282 N 
ATOM     11  N   UNL     1      37.023 -20.496 -20.146  0.00  0.00    -0.305 N 
ATOM     12  C   UNL     1      34.812 -20.200 -20.538  0.00  0.00    +0.079 A 
ATOM     13  C   UNL     1      36.904 -19.364 -21.002  0.00  0.00    +0.328 A 
ATOM     14  C   UNL     1      35.748 -20.991 -19.874  0.00  0.00    +0.077 A 
ATOM     15  C   UNL     1      33.459 -20.456 -20.450  0.00  0.00    +0.020 C 
ATOM     16  C   UNL     1      35.385 -22.068 -19.096  0.00  0.00    +0.030 C 
ATOM     17  C   UNL     1      33.066 -21.545 -19.665  0.00  0.00    +0.013 C 
ATOM     18  C   UNL     1      34.019 -22.342 -18.996  0.00  0.00    +0.059 C 
ATOM     19  H   UNL     1      37.868 -20.868 -19.804  0.00  0.00    +0.170 HD
ENDBRANCH   2  10
BRANCH   1  20
ATOM     20  C   UNL     1      34.586 -14.716 -24.554  0.00  0.00    -0.075 C 
BRANCH  20  21
ATOM     21  C   UNL     1      34.270 -13.462 -23.735  0.00  0.00    +0.002 C 
BRANCH  21  22
ATOM     22  C   UNL     1      32.781 -13.139 -23.624  0.00  0.00    +0.108 C 
BRANCH  22  24
ATOM     23  O   UNL     1      32.158 -13.991 -20.796  0.00  0.00    -0.247 OA
ATOM     24  N   UNL     1      32.476 -12.334 -22.473  0.00  0.00    -0.280 N 
ATOM     25  N   UNL     1      31.952 -11.676 -20.361  0.00  0.00    -0.305 N 
ATOM     26  C   UNL     1      32.408 -10.930 -22.450  0.00  0.00    +0.079 A 
ATOM     27  C   UNL     1      32.192 -12.826 -21.165  0.00  0.00    +0.328 A 
ATOM     28  C   UNL     1      32.086 -10.535 -21.153  0.00  0.00    +0.076 A 
ATOM     29  C   UNL     1      32.603 -10.008 -23.457  0.00  0.00    +0.019 C 
ATOM     30  C   UNL     1      31.945  -9.212 -20.798  0.00  0.00    +0.019 C 
ATOM     31  C   UNL     1      32.464  -8.658 -23.121  0.00  0.00    +0.002 C 
ATOM     32  C   UNL     1      32.139  -8.264 -21.806  0.00  0.00    +0.002 C 
ATOM     33  H   UNL     1      31.728 -11.684 -19.402  0.00  0.00    +0.170 HD
ENDBRANCH  22  24
ENDBRANCH  21  22
ENDBRANCH  20  21
ENDBRANCH   1  20
TORSDOF 5
ENDMDL
MODEL 2
REMARK VINA RESULT:     -13.0      3.468      6.117
REMARK  Name = 3151
REMARK  5 active torsions:
REMARK  status: ('A' for Active; 'I' for Inactive)
REMARK    1  A    between atoms: N_1  and  C_20
REMARK    2  A    between atoms: C_2  and  N_10
REMARK    3  A    between atoms: C_20  and  C_21
REMARK    4  A    between atoms: C_21  and  C_22
REMARK    5  A    between atoms: C_22  and  N_24
REMARK                            x       y       z     vdW  Elec       q    Type
REMARK                         _______ _______ _______ _____ _____    ______ ____
ROOT
ATOM      1  N   UNL     1      31.922 -10.626 -22.723  0.00  0.00    +0.387 N 
ATOM      2  C   UNL     1      33.589 -13.019 -22.952  0.00  0.00    +0.086 C 
ATOM      3  C   UNL     1      33.659 -11.876 -23.965  0.00  0.00    -0.000 C 
ATOM      4  C   UNL     1      32.220 -13.039 -22.272  0.00  0.00    -0.000 C 
ATOM      5  C   UNL     1      33.260 -10.544 -23.327  0.00  0.00    -0.075 C 
ATOM      6  C   UNL     1      31.870 -11.669 -21.689  0.00  0.00    -0.075 C 
ATOM      7  H   UNL     1      31.260 -10.875 -23.456  0.00  0.00    -0.080 HD
ENDROOT
BRANCH   2  10
ATOM      8 CL   UNL     1      35.912 -19.423 -21.659  0.00  0.00    -0.082 Cl
ATOM      9  O   UNL     1      33.294 -13.872 -25.853  0.00  0.00    -0.247 OA
ATOM     10  N   UNL     1      33.873 -14.283 -23.584  0.00  0.00    -0.282 N 
ATOM     11  N   UNL     1      34.116 -15.956 -25.095  0.00  0.00    -0.305 N 
ATOM     12  C   UNL     1      34.369 -15.407 -22.911  0.00  0.00    +0.079 A 
ATOM     13  C   UNL     1      33.705 -14.599 -24.960  0.00  0.00    +0.328 A 
ATOM     14  C   UNL     1      34.516 -16.431 -23.846  0.00  0.00    +0.077 A 
ATOM     15  C   UNL     1      34.690 -15.593 -21.583  0.00  0.00    +0.020 C 
ATOM     16  C   UNL     1      34.986 -17.680 -23.505  0.00  0.00    +0.030 C 
ATOM     17  C   UNL     1      35.170 -16.853 -21.212  0.00  0.00    +0.013 C 
ATOM     18  C   UNL     1      35.316 -17.885 -22.163  0.00  0.00    +0.059 C 
ATOM     19  H   UNL     1      34.118 -16.472 -25.932  0.00  0.00    +0.170 HD
ENDBRANCH   2  10
BRANCH   1  20
ATOM     20  C   UNL     1      31.536  -9.330 -22.161  0.00  0.00    -0.075 C 
BRANCH  20  21
ATOM     21  C   UNL     1      32.621  -8.758 -21.245  0.00  0.00    +0.002 C 
BRANCH  21  22
ATOM     22  C   UNL     1      32.496  -7.259 -20.978  0.00  0.00    +0.108 C 
BRANCH  22  24
ATOM     23  O   UNL     1      30.214  -5.479 -21.839  0.00  0.00    -0.247 OA
ATOM     24  N   UNL     1      32.338  -6.496 -22.186  0.00  0.00    -0.280 N 
ATOM     25  N   UNL     1      31.499  -5.123 -23.791  0.00  0.00    -0.305 N 
ATOM     26  C   UNL     1      33.262  -6.433 -23.242  0.00  0.00    +0.079 A 
ATOM     27  C   UNL     1      31.217  -5.676 -22.511  0.00  0.00    +0.328 A 
ATOM     28  C   UNL     1      32.741  -5.591 -24.223  0.00  0.00    +0.076 A 
ATOM     29  C   UNL     1      34.489  -7.046 -23.396  0.00  0.00    +0.019 C 
ATOM     30  C   UNL     1      33.410  -5.318 -25.394  0.00  0.00    +0.019 C 
ATOM     31  C   UNL     1      35.188  -6.785 -24.579  0.00  0.00    +0.002 C 
ATOM     32  C   UNL     1      34.655  -5.930 -25.567  0.00  0.00    +0.002 C 
ATOM     33  H   UNL     1      30.912  -4.510 -24.293  0.00  0.00    +0.170 HD
ENDBRANCH  22  24
ENDBRANCH  21  22
ENDBRANCH  20  21
ENDBRANCH   1  20
TORSDOF 5
ENDMDL
MODEL 3
REMARK VINA RESULT:     -12.9      3.581      5.883
REMARK  Name = 3151
REMARK  5 active torsions:
REMARK  status: ('A' for Active; 'I' for Inactive)
REMARK    1  A    between atoms: N_1  and  C_20
REMARK    2  A    between atoms: C_2  and  N_10
REMARK    3  A    between atoms: C_20  and  C_21
REMARK    4  A    between atoms: C_21  and  C_22
REMARK    5  A    between atoms: C_22  and  N_24
REMARK                            x       y       z     vdW  Elec       q    Type
REMARK                         _______ _______ _______ _____ _____    ______ ____
ROOT
ATOM      1  N   UNL     1      32.974 -11.464 -22.487  0.00  0.00    +0.387 N 
ATOM      2  C   UNL     1      33.206 -13.928 -24.046  0.00  0.00    +0.086 C 
ATOM      3  C   UNL     1      32.648 -13.913 -22.623  0.00  0.00    -0.000 C 
ATOM      4  C   UNL     1      34.136 -12.734 -24.262  0.00  0.00    -0.000 C 
ATOM      5  C   UNL     1      32.015 -12.561 -22.290  0.00  0.00    -0.075 C 
ATOM      6  C   UNL     1      33.453 -11.421 -23.875  0.00  0.00    -0.075 C 
ATOM      7  H   UNL     1      33.776 -11.634 -21.882  0.00  0.00    -0.080 HD
ENDROOT
BRANCH   2  10
ATOM      8 CL   UNL     1      36.565 -19.155 -20.971  0.00  0.00    -0.082 Cl
ATOM      9  O   UNL     1      33.705 -15.354 -26.682  0.00  0.00    -0.247 OA
ATOM     10  N   UNL     1      33.884 -15.170 -24.319  0.00  0.00    -0.282 N 
ATOM     11  N   UNL     1      34.792 -16.975 -25.347  0.00  0.00    -0.305 N 
ATOM     12  C   UNL     1      34.466 -15.982 -23.336  0.00  0.00    +0.079 A 
ATOM     13  C   UNL     1      34.073 -15.770 -25.593  0.00  0.00    +0.328 A 
ATOM     14  C   UNL     1      35.023 -17.089 -23.975  0.00  0.00    +0.077 A 
ATOM     15  C   UNL     1      34.541 -15.827 -21.968  0.00  0.00    +0.020 C 
ATOM     16  C   UNL     1      35.676 -18.088 -23.288  0.00  0.00    +0.030 C 
ATOM     17  C   UNL     1      35.201 -16.828 -21.247  0.00  0.00    +0.013 C 
ATOM     18  C   UNL     1      35.762 -17.945 -21.900  0.00  0.00    +0.059 C 
ATOM     19  H   UNL     1      35.078 -17.621 -26.032  0.00  0.00    +0.170 HD
ENDBRANCH   2  10
BRANCH   1  20
ATOM     20  C   UNL     1      32.369 -10.184 -22.115  0.00  0.00    -0.075 C 
BRANCH  20  21
ATOM     21  C   UNL     1      32.880  -9.035 -22.990  0.00  0.00    +0.002 C 
BRANCH  21  22
ATOM     22  C   UNL     1      32.880  -7.671 -22.303  0.00  0.00    +0.108 C 
BRANCH  22  24
ATOM     23  O   UNL     1      30.418  -5.927 -22.380  0.00  0.00    -0.247 OA
ATOM     24  N   UNL     1      32.546  -6.601 -23.203  0.00  0.00    -0.280 N 
ATOM     25  N   UNL     1      31.457  -4.894 -24.236  0.00  0.00    -0.305 N 
ATOM     26  C   UNL     1      33.344  -6.146 -24.266  0.00  0.00    +0.079 A 
ATOM     27  C   UNL     1      31.351  -5.825 -23.165  0.00  0.00    +0.328 A 
ATOM     28  C   UNL     1      32.670  -5.100 -24.895  0.00  0.00    +0.076 A 
ATOM     29  C   UNL     1      34.580  -6.573 -24.705  0.00  0.00    +0.019 C 
ATOM     30  C   UNL     1      33.190  -4.434 -25.982  0.00  0.00    +0.019 C 
ATOM     31  C   UNL     1      35.129  -5.912 -25.808  0.00  0.00    +0.002 C 
ATOM     32  C   UNL     1      34.442  -4.853 -26.440  0.00  0.00    +0.002 C 
ATOM     33  H   UNL     1      30.784  -4.215 -24.475  0.00  0.00    +0.170 HD
ENDBRANCH  22  24
ENDBRANCH  21  22
ENDBRANCH  20  21
ENDBRANCH   1  20
TORSDOF 5
ENDMDL
MODEL 4
REMARK VINA RESULT:     -12.8      4.903     11.250
REMARK  Name = 3151
REMARK  5 active torsions:
REMARK  status: ('A' for Active; 'I' for Inactive)
REMARK    1  A    between atoms: N_1  and  C_20
REMARK    2  A    between atoms: C_2  and  N_10
REMARK    3  A    between atoms: C_20  and  C_21
REMARK    4  A    between atoms: C_21  and  C_22
REMARK    5  A    between atoms: C_22  and  N_24
REMARK                            x       y       z     vdW  Elec       q    Type
REMARK                         _______ _______ _______ _____ _____    ______ ____
ROOT
ATOM      1  N   UNL     1      32.651 -12.147 -22.035  0.00  0.00    +0.387 N 
ATOM      2  C   UNL     1      31.772  -9.362 -22.199  0.00  0.00    +0.086 C 
ATOM      3  C   UNL     1      33.018  -9.868 -22.927  0.00  0.00    -0.000 C 
ATOM      4  C   UNL     1      31.475 -10.242 -20.985  0.00  0.00    -0.000 C 
ATOM      5  C   UNL     1      32.903 -11.359 -23.250  0.00  0.00    -0.075 C 
ATOM      6  C   UNL     1      31.411 -11.720 -21.373  0.00  0.00    -0.075 C 
ATOM      7  H   UNL     1      33.423 -11.987 -21.389  0.00  0.00    -0.080 HD
ENDROOT
BRANCH   2  10
ATOM      8 CL   UNL     1      31.272  -2.882 -24.615  0.00  0.00    -0.082 Cl
ATOM      9  O   UNL     1      32.590  -8.148 -19.537  0.00  0.00    -0.247 OA
ATOM     10  N   UNL     1      31.929  -7.981 -21.815  0.00  0.00    -0.282 N 
ATOM     11  N   UNL     1      32.330  -6.078 -20.651  0.00  0.00    -0.305 N 
ATOM     12  C   UNL     1      31.713  -6.894 -22.672  0.00  0.00    +0.079 A 
ATOM     13  C   UNL     1      32.318  -7.497 -20.536  0.00  0.00    +0.328 A 
ATOM     14  C   UNL     1      31.962  -5.728 -21.950  0.00  0.00    +0.077 A 
ATOM     15  C   UNL     1      31.326  -6.854 -23.995  0.00  0.00    +0.020 C 
ATOM     16  C   UNL     1      31.838  -4.475 -22.507  0.00  0.00    +0.030 C 
ATOM     17  C   UNL     1      31.195  -5.592 -24.584  0.00  0.00    +0.013 C 
ATOM     18  C   UNL     1      31.448  -4.416 -23.847  0.00  0.00    +0.059 C 
ATOM     19  H   UNL     1      32.561  -5.448 -19.931  0.00  0.00    +0.170 HD
ENDBRANCH   2  10
BRANCH   1  20
ATOM     20  C   UNL     1      32.594 -13.575 -22.354  0.00  0.00    -0.075 C 
BRANCH  20  21
ATOM     21  C   UNL     1      33.176 -13.874 -23.739  0.00  0.00    +0.002 C 
BRANCH  21  22
ATOM     22  C   UNL     1      34.587 -14.457 -23.718  0.00  0.00    +0.108 C 
BRANCH  22  24
ATOM     23  O   UNL     1      34.137 -15.660 -26.450  0.00  0.00    -0.247 OA
ATOM     24  N   UNL     1      34.621 -15.835 -24.126  0.00  0.00    -0.280 N 
ATOM     25  N   UNL     1      34.527 -17.731 -25.376  0.00  0.00    -0.305 N 
ATOM     26  C   UNL     1      34.882 -16.931 -23.288  0.00  0.00    +0.079 A 
ATOM     27  C   UNL     1      34.394 -16.316 -25.449  0.00  0.00    +0.328 A 
ATOM     28  C   UNL     1      34.823 -18.089 -24.060  0.00  0.00    +0.076 A 
ATOM     29  C   UNL     1      35.159 -16.979 -21.937  0.00  0.00    +0.019 C 
ATOM     30  C   UNL     1      35.035 -19.342 -23.531  0.00  0.00    +0.019 C 
ATOM     31  C   UNL     1      35.378 -18.242 -21.376  0.00  0.00    +0.002 C 
ATOM     32  C   UNL     1      35.318 -19.411 -22.164  0.00  0.00    +0.002 C 
ATOM     33  H   UNL     1      34.427 -18.356 -26.131  0.00  0.00    +0.170 HD
ENDBRANCH  22  24
ENDBRANCH  21  22
ENDBRANCH  20  21
ENDBRANCH   1  20
TORSDOF 5
ENDMDL
MODEL 5
REMARK VINA RESULT:     -12.8      3.033      4.914
REMARK  Name = 3151
REMARK  5 active torsions:
REMARK  status: ('A' for Active; 'I' for Inactive)
REMARK    1  A    between atoms: N_1  and  C_20
REMARK    2  A    between atoms: C_2  and  N_10
REMARK    3  A    between atoms: C_20  and  C_21
REMARK    4  A    between atoms: C_21  and  C_22
REMARK    5  A    between atoms: C_22  and  N_24
REMARK                            x       y       z     vdW  Elec       q    Type
REMARK                         _______ _______ _______ _____ _____    ______ ____
ROOT
ATOM      1  N   UNL     1      35.806 -18.961 -21.248  0.00  0.00    +0.387 N 
ATOM      2  C   UNL     1      35.255 -21.459 -19.829  0.00  0.00    +0.086 C 
ATOM      3  C   UNL     1      34.139 -20.549 -20.340  0.00  0.00    -0.000 C 
ATOM      4  C   UNL     1      36.531 -20.650 -19.593  0.00  0.00    -0.000 C 
ATOM      5  C   UNL     1      34.597 -19.739 -21.555  0.00  0.00    -0.075 C 
ATOM      6  C   UNL     1      36.909 -19.838 -20.833  0.00  0.00    -0.075 C 
ATOM      7  H   UNL     1      35.590 -18.337 -20.472  0.00  0.00    -0.080 HD
ENDROOT
BRANCH   2  10
ATOM      8 CL   UNL     1      37.596 -23.690 -13.695  0.00  0.00    -0.082 Cl
ATOM      9  O   UNL     1      32.554 -22.610 -19.049  0.00  0.00    -0.247 OA
ATOM     10  N   UNL     1      34.847 -22.146 -18.629  0.00  0.00    -0.282 N 
ATOM     11  N   UNL     1      33.646 -23.242 -17.049  0.00  0.00    -0.305 N 
ATOM     12  C   UNL     1      35.696 -22.414 -17.546  0.00  0.00    +0.079 A 
ATOM     13  C   UNL     1      33.552 -22.656 -18.343  0.00  0.00    +0.328 A 
ATOM     14  C   UNL     1      34.951 -23.088 -16.579  0.00  0.00    +0.077 A 
ATOM     15  C   UNL     1      37.029 -22.120 -17.353  0.00  0.00    +0.020 C 
ATOM     16  C   UNL     1      35.494 -23.498 -15.382  0.00  0.00    +0.030 C 
ATOM     17  C   UNL     1      37.604 -22.527 -16.145  0.00  0.00    +0.013 C 
ATOM     18  C   UNL     1      36.845 -23.208 -15.170  0.00  0.00    +0.059 C 
ATOM     19  H   UNL     1      32.912 -23.683 -16.565  0.00  0.00    +0.170 HD
ENDBRANCH   2  10
BRANCH   1  20
ATOM     20  C   UNL     1      36.201 -18.154 -22.403  0.00  0.00    -0.075 C 
BRANCH  20  21
ATOM     21  C   UNL     1      35.011 -17.838 -23.314  0.00  0.00    +0.002 C 
BRANCH  21  22
ATOM     22  C   UNL     1      35.288 -16.767 -24.366  0.00  0.00    +0.108 C 
BRANCH  22  24
ATOM     23  O   UNL     1      33.731 -15.558 -26.652  0.00  0.00    -0.247 OA
ATOM     24  N   UNL     1      34.311 -15.712 -24.350  0.00  0.00    -0.280 N 
ATOM     25  N   UNL     1      32.764 -14.178 -24.994  0.00  0.00    -0.305 N 
ATOM     26  C   UNL     1      33.879 -15.014 -23.210  0.00  0.00    +0.079 A 
ATOM     27  C   UNL     1      33.621 -15.201 -25.487  0.00  0.00    +0.328 A 
ATOM     28  C   UNL     1      32.931 -14.075 -23.612  0.00  0.00    +0.076 A 
ATOM     29  C   UNL     1      34.250 -15.143 -21.887  0.00  0.00    +0.019 C 
ATOM     30  C   UNL     1      32.310 -13.226 -22.725  0.00  0.00    +0.019 C 
ATOM     31  C   UNL     1      33.632 -14.290 -20.966  0.00  0.00    +0.002 C 
ATOM     32  C   UNL     1      32.672 -13.343 -21.380  0.00  0.00    +0.002 C 
ATOM     33  H   UNL     1      32.152 -13.630 -25.538  0.00  0.00    +0.170 HD
ENDBRANCH  22  24
ENDBRANCH  21  22
ENDBRANCH  20  21
ENDBRANCH   1  20
TORSDOF 5
ENDMDL
MODEL 6
REMARK VINA RESULT:     -12.7      4.128     10.178
REMARK  Name = 3151
REMARK  5 active torsions:
REMARK  status: ('A' for Active; 'I' for Inactive)
REMARK    1  A    between atoms: N_1  and  C_20
REMARK    2  A    between atoms: C_2  and  N_10
REMARK    3  A    between atoms: C_20  and  C_21
REMARK    4  A    between atoms: C_21  and  C_22
REMARK    5  A    between atoms: C_22  and  N_24
REMARK                            x       y       z     vdW  Elec       q    Type
REMARK                         _______ _______ _______ _____ _____    ______ ____
ROOT
ATOM      1  N   UNL     1      35.400 -21.010 -20.629  0.00  0.00    +0.387 N 
ATOM      2  C   UNL     1      34.982 -18.408 -21.899  0.00  0.00    +0.086 C 
ATOM      3  C   UNL     1      33.883 -19.469 -21.831  0.00  0.00    -0.000 C 
ATOM      4  C   UNL     1      36.359 -19.068 -21.823  0.00  0.00    -0.000 C 
ATOM      5  C   UNL     1      34.070 -20.385 -20.621  0.00  0.00    -0.075 C 
ATOM      6  C   UNL     1      36.463 -19.997 -20.612  0.00  0.00    -0.075 C 
ATOM      7  H   UNL     1      35.490 -21.546 -21.491  0.00  0.00    -0.080 HD
ENDROOT
BRANCH   2  10
ATOM      8 CL   UNL     1      34.023 -11.904 -24.102  0.00  0.00    -0.082 Cl
ATOM      9  O   UNL     1      35.064 -19.229 -24.823  0.00  0.00    -0.247 OA
ATOM     10  N   UNL     1      34.853 -17.611 -23.093  0.00  0.00    -0.282 N 
ATOM     11  N   UNL     1      34.729 -16.927 -25.251  0.00  0.00    -0.305 N 
ATOM     12  C   UNL     1      34.654 -16.224 -23.098  0.00  0.00    +0.079 A 
ATOM     13  C   UNL     1      34.904 -18.080 -24.434  0.00  0.00    +0.328 A 
ATOM     14  C   UNL     1      34.579 -15.811 -24.427  0.00  0.00    +0.077 A 
ATOM     15  C   UNL     1      34.539 -15.327 -22.057  0.00  0.00    +0.020 C 
ATOM     16  C   UNL     1      34.386 -14.494 -24.781  0.00  0.00    +0.030 C 
ATOM     17  C   UNL     1      34.341 -13.984 -22.391  0.00  0.00    +0.013 C 
ATOM     18  C   UNL     1      34.266 -13.572 -23.738  0.00  0.00    +0.059 C 
ATOM     19  H   UNL     1      34.717 -16.919 -26.235  0.00  0.00    +0.170 HD
ENDBRANCH   2  10
BRANCH   1  20
ATOM     20  C   UNL     1      35.543 -21.921 -19.492  0.00  0.00    -0.075 C 
BRANCH  20  21
ATOM     21  C   UNL     1      34.235 -22.071 -18.711  0.00  0.00    +0.002 C 
BRANCH  21  22
ATOM     22  C   UNL     1      33.977 -23.477 -18.173  0.00  0.00    +0.108 C 
BRANCH  22  24
ATOM     23  O   UNL     1      36.099 -23.743 -16.043  0.00  0.00    -0.247 OA
ATOM     24  N   UNL     1      33.838 -23.503 -16.743  0.00  0.00    -0.280 N 
ATOM     25  N   UNL     1      34.296 -23.610 -14.519  0.00  0.00    -0.305 N 
ATOM     26  C   UNL     1      32.628 -23.405 -16.036  0.00  0.00    +0.079 A 
ATOM     27  C   UNL     1      34.904 -23.634 -15.806  0.00  0.00    +0.328 A 
ATOM     28  C   UNL     1      32.916 -23.472 -14.675  0.00  0.00    +0.076 A 
ATOM     29  C   UNL     1      31.333 -23.266 -16.493  0.00  0.00    +0.019 C 
ATOM     30  C   UNL     1      31.939 -23.403 -13.708  0.00  0.00    +0.019 C 
ATOM     31  C   UNL     1      30.322 -23.194 -15.529  0.00  0.00    +0.002 C 
ATOM     32  C   UNL     1      30.621 -23.261 -14.152  0.00  0.00    +0.002 C 
ATOM     33  H   UNL     1      34.771 -23.681 -13.659  0.00  0.00    +0.170 HD
ENDBRANCH  22  24
ENDBRANCH  21  22
ENDBRANCH  20  21
ENDBRANCH   1  20
TORSDOF 5
ENDMDL
MODEL 7
REMARK VINA RESULT:     -12.6      4.461     11.126
REMARK  Name = 3151
REMARK  5 active torsions:
REMARK  status: ('A' for Active; 'I' for Inactive)
REMARK    1  A    between atoms: N_1  and  C_20
REMARK    2  A    between atoms: C_2  and  N_10
REMARK    3  A    between atoms: C_20  and  C_21
REMARK    4  A    between atoms: C_21  and  C_22
REMARK    5  A    between atoms: C_22  and  N_24
REMARK                            x       y       z     vdW  Elec       q    Type
REMARK                         _______ _______ _______ _____ _____    ______ ____
ROOT
ATOM      1  N   UNL     1      35.268 -21.573 -19.844  0.00  0.00    +0.387 N 
ATOM      2  C   UNL     1      35.021 -19.019 -21.249  0.00  0.00    +0.086 C 
ATOM      3  C   UNL     1      33.866 -20.017 -21.161  0.00  0.00    -0.000 C 
ATOM      4  C   UNL     1      36.358 -19.745 -21.103  0.00  0.00    -0.000 C 
ATOM      5  C   UNL     1      33.973 -20.880 -19.903  0.00  0.00    -0.075 C 
ATOM      6  C   UNL     1      36.382 -20.616 -19.845  0.00  0.00    -0.075 C 
ATOM      7  H   UNL     1      35.351 -22.155 -20.676  0.00  0.00    -0.080 HD
ENDROOT
BRANCH   2  10
ATOM      8 CL   UNL     1      34.253 -12.616 -23.795  0.00  0.00    -0.082 Cl
ATOM      9  O   UNL     1      35.250 -19.974 -24.124  0.00  0.00    -0.247 OA
ATOM     10  N   UNL     1      34.965 -18.277 -22.484  0.00  0.00    -0.282 N 
ATOM     11  N   UNL     1      34.964 -17.692 -24.674  0.00  0.00    -0.305 N 
ATOM     12  C   UNL     1      34.782 -16.890 -22.563  0.00  0.00    +0.079 A 
ATOM     13  C   UNL     1      35.083 -18.808 -23.797  0.00  0.00    +0.328 A 
ATOM     14  C   UNL     1      34.782 -16.538 -23.911  0.00  0.00    +0.077 A 
ATOM     15  C   UNL     1      34.621 -15.945 -21.571  0.00  0.00    +0.020 C 
ATOM     16  C   UNL     1      34.624 -15.237 -24.335  0.00  0.00    +0.030 C 
ATOM     17  C   UNL     1      34.457 -14.617 -21.976  0.00  0.00    +0.013 C 
ATOM     18  C   UNL     1      34.458 -14.267 -23.343  0.00  0.00    +0.059 C 
ATOM     19  H   UNL     1      35.005 -17.729 -25.656  0.00  0.00    +0.170 HD
ENDBRANCH   2  10
BRANCH   1  20
ATOM     20  C   UNL     1      35.333 -22.432 -18.660  0.00  0.00    -0.075 C 
BRANCH  20  21
ATOM     21  C   UNL     1      36.528 -22.084 -17.768  0.00  0.00    +0.002 C 
BRANCH  21  22
ATOM     22  C   UNL     1      36.228 -22.115 -16.271  0.00  0.00    +0.108 C 
BRANCH  22  24
ATOM     23  O   UNL     1      33.763 -23.794 -15.802  0.00  0.00    -0.247 OA
ATOM     24  N   UNL     1      36.117 -23.454 -15.758  0.00  0.00    -0.280 N 
ATOM     25  N   UNL     1      35.279 -25.443 -15.047  0.00  0.00    -0.305 N 
ATOM     26  C   UNL     1      37.190 -24.270 -15.361  0.00  0.00    +0.079 A 
ATOM     27  C   UNL     1      34.902 -24.174 -15.568  0.00  0.00    +0.328 A 
ATOM     28  C   UNL     1      36.669 -25.487 -14.926  0.00  0.00    +0.076 A 
ATOM     29  C   UNL     1      38.548 -24.024 -15.356  0.00  0.00    +0.019 C 
ATOM     30  C   UNL     1      37.466 -26.511 -14.468  0.00  0.00    +0.019 C 
ATOM     31  C   UNL     1      39.379 -25.050 -14.894  0.00  0.00    +0.002 C 
ATOM     32  C   UNL     1      38.845 -26.280 -14.456  0.00  0.00    +0.002 C 
ATOM     33  H   UNL     1      34.660 -26.172 -14.808  0.00  0.00    +0.170 HD
ENDBRANCH  22  24
ENDBRANCH  21  22
ENDBRANCH  20  21
ENDBRANCH   1  20
TORSDOF 5
ENDMDL
MODEL 8
REMARK VINA RESULT:     -12.4      3.650      9.787
REMARK  Name = 3151
REMARK  5 active torsions:
REMARK  status: ('A' for Active; 'I' for Inactive)
REMARK    1  A    between atoms: N_1  and  C_20
REMARK    2  A    between atoms: C_2  and  N_10
REMARK    3  A    between atoms: C_20  and  C_21
REMARK    4  A    between atoms: C_21  and  C_22
REMARK    5  A    between atoms: C_22  and  N_24
REMARK                            x       y       z     vdW  Elec       q    Type
REMARK                         _______ _______ _______ _____ _____    ______ ____
ROOT
ATOM      1  N   UNL     1      36.054 -19.666 -20.660  0.00  0.00    +0.387 N 
ATOM      2  C   UNL     1      35.398 -17.961 -22.945  0.00  0.00    +0.086 C 
ATOM      3  C   UNL     1      36.485 -17.590 -21.936  0.00  0.00    -0.000 C 
ATOM      4  C   UNL     1      34.371 -18.890 -22.298  0.00  0.00    -0.000 C 
ATOM      5  C   UNL     1      37.091 -18.837 -21.290  0.00  0.00    -0.075 C 
ATOM      6  C   UNL     1      35.048 -20.095 -21.642  0.00  0.00    -0.075 C 
ATOM      7  H   UNL     1      35.584 -19.100 -19.955  0.00  0.00    -0.080 HD
ENDROOT
BRANCH   2  10
ATOM      8 CL   UNL     1      31.966 -12.236 -21.068  0.00  0.00    -0.082 Cl
ATOM      9  O   UNL     1      35.100 -17.018 -25.818  0.00  0.00    -0.247 OA
ATOM     10  N   UNL     1      34.766 -16.779 -23.476  0.00  0.00    -0.282 N 
ATOM     11  N   UNL     1      33.966 -15.175 -24.864  0.00  0.00    -0.305 N 
ATOM     12  C   UNL     1      34.141 -15.800 -22.693  0.00  0.00    +0.079 A 
ATOM     13  C   UNL     1      34.672 -16.412 -24.846  0.00  0.00    +0.328 A 
ATOM     14  C   UNL     1      33.651 -14.818 -23.552  0.00  0.00    +0.077 A 
ATOM     15  C   UNL     1      33.975 -15.709 -21.327  0.00  0.00    +0.020 C 
ATOM     16  C   UNL     1      32.978 -13.706 -23.096  0.00  0.00    +0.030 C 
ATOM     17  C   UNL     1      33.293 -14.590 -20.839  0.00  0.00    +0.013 C 
ATOM     18  C   UNL     1      32.801 -13.600 -21.714  0.00  0.00    +0.059 C 
ATOM     19  H   UNL     1      33.738 -14.658 -25.669  0.00  0.00    +0.170 HD
ENDBRANCH   2  10
BRANCH   1  20
ATOM     20  C   UNL     1      36.657 -20.828 -20.005  0.00  0.00    -0.075 C 
BRANCH  20  21
ATOM     21  C   UNL     1      35.617 -21.906 -19.684  0.00  0.00    +0.002 C 
BRANCH  21  22
ATOM     22  C   UNL     1      35.580 -22.330 -18.217  0.00  0.00    +0.108 C 
BRANCH  22  24
ATOM     23  O   UNL     1      32.941 -21.987 -19.642  0.00  0.00    -0.247 OA
ATOM     24  N   UNL     1      34.251 -22.645 -17.768  0.00  0.00    -0.280 N 
ATOM     25  N   UNL     1      31.995 -22.899 -17.676  0.00  0.00    -0.305 N 
ATOM     26  C   UNL     1      33.918 -23.198 -16.520  0.00  0.00    +0.079 A 
ATOM     27  C   UNL     1      33.053 -22.447 -18.514  0.00  0.00    +0.328 A 
ATOM     28  C   UNL     1      32.534 -23.350 -16.470  0.00  0.00    +0.076 A 
ATOM     29  C   UNL     1      34.722 -23.564 -15.460  0.00  0.00    +0.019 C 
ATOM     30  C   UNL     1      31.887 -23.871 -15.373  0.00  0.00    +0.019 C 
ATOM     31  C   UNL     1      34.087 -24.096 -14.332  0.00  0.00    +0.002 C 
ATOM     32  C   UNL     1      32.685 -24.249 -14.289  0.00  0.00    +0.002 C 
ATOM     33  H   UNL     1      31.037 -22.893 -17.908  0.00  0.00    +0.170 HD
ENDBRANCH  22  24
ENDBRANCH  21  22
ENDBRANCH  20  21
ENDBRANCH   1  20
TORSDOF 5
ENDMDL
MODEL 9
REMARK VINA RESULT:     -12.4      3.326      5.586
REMARK  Name = 3151
REMARK  5 active torsions:
REMARK  status: ('A' for Active; 'I' for Inactive)
REMARK    1  A    between atoms: N_1  and  C_20
REMARK    2  A    between atoms: C_2  and  N_10
REMARK    3  A    between atoms: C_20  and  C_21
REMARK    4  A    between atoms: C_21  and  C_22
REMARK    5  A    between atoms: C_22  and  N_24
REMARK                            x       y       z     vdW  Elec       q    Type
REMARK                         _______ _______ _______ _____ _____    ______ ____
ROOT
ATOM      1  N   UNL     1      35.496 -20.045 -20.629  0.00  0.00    +0.387 N 
ATOM      2  C   UNL     1      34.666 -22.268 -18.919  0.00  0.00    +0.086 C 
ATOM      3  C   UNL     1      33.671 -21.245 -19.466  0.00  0.00    -0.000 C 
ATOM      4  C   UNL     1      36.065 -21.656 -18.842  0.00  0.00    -0.000 C 
ATOM      5  C   UNL     1      34.162 -20.643 -20.784  0.00  0.00    -0.075 C 
ATOM      6  C   UNL     1      36.477 -21.042 -20.181  0.00  0.00    -0.075 C 
ATOM      7  H   UNL     1      35.434 -19.320 -19.915  0.00  0.00    -0.080 HD
ENDROOT
BRANCH   2  10
ATOM      8 CL   UNL     1      37.026 -23.957 -12.621  0.00  0.00    -0.082 Cl
ATOM      9  O   UNL     1      31.899 -23.033 -17.924  0.00  0.00    -0.247 OA
ATOM     10  N   UNL     1      34.242 -22.757 -17.631  0.00  0.00    -0.282 N 
ATOM     11  N   UNL     1      33.006 -23.523 -15.892  0.00  0.00    -0.305 N 
ATOM     12  C   UNL     1      35.104 -22.976 -16.547  0.00  0.00    +0.079 A 
ATOM     13  C   UNL     1      32.916 -23.093 -17.247  0.00  0.00    +0.328 A 
ATOM     14  C   UNL     1      34.337 -23.446 -15.483  0.00  0.00    +0.077 A 
ATOM     15  C   UNL     1      36.467 -22.797 -16.430  0.00  0.00    +0.020 C 
ATOM     16  C   UNL     1      34.886 -23.760 -14.259  0.00  0.00    +0.030 C 
ATOM     17  C   UNL     1      37.048 -23.109 -15.197  0.00  0.00    +0.013 C 
ATOM     18  C   UNL     1      36.266 -23.585 -14.124  0.00  0.00    +0.059 C 
ATOM     19  H   UNL     1      32.252 -23.825 -15.336  0.00  0.00    +0.170 HD
ENDBRANCH   2  10
BRANCH   1  20
ATOM     20  C   UNL     1      35.929 -19.431 -21.886  0.00  0.00    -0.075 C 
BRANCH  20  21
ATOM     21  C   UNL     1      34.997 -18.294 -22.318  0.00  0.00    +0.002 C 
BRANCH  21  22
ATOM     22  C   UNL     1      35.709 -17.102 -22.954  0.00  0.00    +0.108 C 
BRANCH  22  24
ATOM     23  O   UNL     1      34.937 -16.457 -25.800  0.00  0.00    -0.247 OA
ATOM     24  N   UNL     1      34.791 -16.113 -23.450  0.00  0.00    -0.280 N 
ATOM     25  N   UNL     1      33.537 -14.816 -24.832  0.00  0.00    -0.305 N 
ATOM     26  C   UNL     1      34.045 -15.219 -22.663  0.00  0.00    +0.079 A 
ATOM     27  C   UNL     1      34.486 -15.877 -24.823  0.00  0.00    +0.328 A 
ATOM     28  C   UNL     1      33.280 -14.428 -23.517  0.00  0.00    +0.076 A 
ATOM     29  C   UNL     1      33.996 -15.060 -21.294  0.00  0.00    +0.019 C 
ATOM     30  C   UNL     1      32.433 -13.446 -23.053  0.00  0.00    +0.019 C 
ATOM     31  C   UNL     1      33.143 -14.068 -20.798  0.00  0.00    +0.002 C 
ATOM     32  C   UNL     1      32.369 -13.270 -21.668  0.00  0.00    +0.002 C 
ATOM     33  H   UNL     1      33.129 -14.419 -25.637  0.00  0.00    +0.170 HD
ENDBRANCH  22  24
ENDBRANCH  21  22
ENDBRANCH  20  21
ENDBRANCH   1  20
TORSDOF 5
ENDMDL
