MODEL 1
REMARK VINA RESULT:     -13.5      0.000      0.000
REMARK  Name = 11691242
REMARK  5 active torsions:
REMARK  status: ('A' for Active; 'I' for Inactive)
REMARK    1  A    between atoms: N_1  and  C_25
REMARK    2  A    between atoms: C_5  and  N_11
REMARK    3  A    between atoms: N_12  and  C_17
REMARK    4  A    between atoms: C_18  and  O_23
REMARK    5  A    between atoms: C_25  and  C_28
REMARK                            x       y       z     vdW  Elec       q    Type
REMARK                         _______ _______ _______ _____ _____    ______ ____
ROOT
ATOM      1  N   UNL     1      35.205 -16.876 -22.756  0.00  0.00    -0.282 N 
ATOM      2  C   UNL     1      34.555 -16.142 -23.723  0.00  0.00    +0.053 C 
ATOM      3  C   UNL     1      33.990 -15.034 -23.087  0.00  0.00    +0.028 C 
ATOM      4  C   UNL     1      35.070 -16.273 -21.535  0.00  0.00    +0.066 C 
ATOM      5  C   UNL     1      33.258 -14.109 -23.858  0.00  0.00    +0.053 C 
ATOM      6  C   UNL     1      34.322 -15.131 -21.706  0.00  0.00    +0.019 C 
ATOM      7  C   UNL     1      34.426 -16.371 -25.097  0.00  0.00    +0.015 C 
ATOM      8  C   UNL     1      33.120 -14.326 -25.234  0.00  0.00    +0.015 C 
ATOM      9  C   UNL     1      33.696 -15.439 -25.842  0.00  0.00    +0.003 C 
ENDROOT
BRANCH   5  11
ATOM     10  O   UNL     1      34.188 -11.272 -23.778  0.00  0.00    -0.252 OA
ATOM     11  N   UNL     1      32.672 -12.986 -23.273  0.00  0.00    -0.268 N 
ATOM     12  N   UNL     1      32.244 -10.833 -22.554  0.00  0.00    -0.266 N 
ATOM     13  C   UNL     1      33.144 -11.651 -23.256  0.00  0.00    +0.308 C 
ATOM     14  H   UNL     1      31.817 -13.142 -22.810  0.00  0.00    +0.156 HD
ATOM     15  H   UNL     1      31.447 -11.282 -22.190  0.00  0.00    +0.157 HD
BRANCH  12  17
ATOM     16 BR   UNL     1      32.241  -5.987 -24.599  0.00  0.00    -0.049 Br
ATOM     17  C   UNL     1      32.341  -9.443 -22.308  0.00  0.00    +0.086 C 
ATOM     18  C   UNL     1      32.518  -8.980 -21.013  0.00  0.00    +0.152 C 
ATOM     19  C   UNL     1      32.254  -8.569 -23.379  0.00  0.00    +0.024 C 
ATOM     20  C   UNL     1      32.611  -7.608 -20.785  0.00  0.00    +0.039 C 
ATOM     21  C   UNL     1      32.349  -7.196 -23.151  0.00  0.00    +0.036 C 
ATOM     22  C   UNL     1      32.526  -6.716 -21.854  0.00  0.00    +0.010 C 
BRANCH  18  23
ATOM     23  O   UNL     1      32.604  -9.836 -19.956  0.00  0.00    -0.470 OA
ATOM     24  C   UNL     1      31.417 -10.046 -19.193  0.00  0.00    +0.253 C 
ENDBRANCH  18  23
ENDBRANCH  12  17
ENDBRANCH   5  11
BRANCH   1  25
ATOM     25  C   UNL     1      35.927 -18.110 -22.981  0.00  0.00    +0.122 C 
BRANCH  25  28
ATOM     26  N   UNL     1      35.221 -20.935 -19.836  0.00  0.00    -0.230 NA
ATOM     27  N   UNL     1      32.900 -20.933 -20.375  0.00  0.00    -0.343 N 
ATOM     28  C   UNL     1      35.678 -19.101 -21.877  0.00  0.00    +0.002 C 
ATOM     29  C   UNL     1      34.393 -19.556 -21.640  0.00  0.00    +0.031 C 
ATOM     30  C   UNL     1      36.738 -19.548 -21.109  0.00  0.00    +0.018 C 
ATOM     31  C   UNL     1      34.218 -20.469 -20.613  0.00  0.00    +0.125 C 
ATOM     32  C   UNL     1      36.458 -20.461 -20.105  0.00  0.00    +0.100 C 
ATOM     33  H   UNL     1      32.731 -21.582 -19.655  0.00  0.00    +0.144 HD
ATOM     34  H   UNL     1      32.155 -20.607 -20.930  0.00  0.00    +0.144 HD
ENDBRANCH  25  28
ENDBRANCH   1  25
TORSDOF 5
ENDMDL
MODEL 2
REMARK VINA RESULT:     -12.6      5.763      9.684
REMARK  Name = 11691242
REMARK  5 active torsions:
REMARK  status: ('A' for Active; 'I' for Inactive)
REMARK    1  A    between atoms: N_1  and  C_25
REMARK    2  A    between atoms: C_5  and  N_11
REMARK    3  A    between atoms: N_12  and  C_17
REMARK    4  A    between atoms: C_18  and  O_23
REMARK    5  A    between atoms: C_25  and  C_28
REMARK                            x       y       z     vdW  Elec       q    Type
REMARK                         _______ _______ _______ _____ _____    ______ ____
ROOT
ATOM      1  N   UNL     1      36.469 -22.626 -16.028  0.00  0.00    -0.282 N 
ATOM      2  C   UNL     1      35.469 -22.673 -16.972  0.00  0.00    +0.053 C 
ATOM      3  C   UNL     1      35.890 -21.898 -18.055  0.00  0.00    +0.028 C 
ATOM      4  C   UNL     1      37.505 -21.850 -16.475  0.00  0.00    +0.066 C 
ATOM      5  C   UNL     1      35.041 -21.776 -19.173  0.00  0.00    +0.053 C 
ATOM      6  C   UNL     1      37.176 -21.385 -17.727  0.00  0.00    +0.019 C 
ATOM      7  C   UNL     1      34.237 -23.335 -16.951  0.00  0.00    +0.015 C 
ATOM      8  C   UNL     1      33.805 -22.433 -19.166  0.00  0.00    +0.015 C 
ATOM      9  C   UNL     1      33.411 -23.200 -18.072  0.00  0.00    +0.003 C 
ENDROOT
BRANCH   5  11
ATOM     10  O   UNL     1      33.489 -19.754 -20.729  0.00  0.00    -0.252 OA
ATOM     11  N   UNL     1      35.412 -21.015 -20.282  0.00  0.00    -0.268 N 
ATOM     12  N   UNL     1      35.407 -19.527 -22.048  0.00  0.00    -0.266 N 
ATOM     13  C   UNL     1      34.646 -20.062 -20.996  0.00  0.00    +0.308 C 
ATOM     14  H   UNL     1      36.329 -21.159 -20.612  0.00  0.00    +0.156 HD
ATOM     15  H   UNL     1      36.323 -19.873 -22.138  0.00  0.00    +0.157 HD
BRANCH  12  17
ATOM     16 BR   UNL     1      34.726 -14.413 -23.077  0.00  0.00    -0.049 Br
ATOM     17  C   UNL     1      35.017 -18.550 -22.995  0.00  0.00    +0.086 C 
ATOM     18  C   UNL     1      34.601 -18.939 -24.260  0.00  0.00    +0.152 C 
ATOM     19  C   UNL     1      35.061 -17.214 -22.632  0.00  0.00    +0.024 C 
ATOM     20  C   UNL     1      34.220 -17.966 -25.182  0.00  0.00    +0.039 C 
ATOM     21  C   UNL     1      34.679 -16.241 -23.555  0.00  0.00    +0.036 C 
ATOM     22  C   UNL     1      34.259 -16.617 -24.831  0.00  0.00    +0.010 C 
BRANCH  18  23
ATOM     23  O   UNL     1      34.554 -20.252 -24.622  0.00  0.00    -0.470 OA
ATOM     24  C   UNL     1      35.727 -20.801 -25.221  0.00  0.00    +0.253 C 
ENDBRANCH  18  23
ENDBRANCH  12  17
ENDBRANCH   5  11
BRANCH   1  25
ATOM     25  C   UNL     1      36.444 -23.290 -14.742  0.00  0.00    +0.122 C 
BRANCH  25  28
ATOM     26  N   UNL     1      38.276 -27.159 -14.940  0.00  0.00    -0.230 NA
ATOM     27  N   UNL     1      40.345 -26.199 -14.252  0.00  0.00    -0.343 N 
ATOM     28  C   UNL     1      37.088 -24.648 -14.812  0.00  0.00    +0.002 C 
ATOM     29  C   UNL     1      38.428 -24.788 -14.497  0.00  0.00    +0.031 C 
ATOM     30  C   UNL     1      36.332 -25.744 -15.190  0.00  0.00    +0.018 C 
ATOM     31  C   UNL     1      38.973 -26.059 -14.576  0.00  0.00    +0.125 C 
ATOM     32  C   UNL     1      36.971 -26.972 -15.238  0.00  0.00    +0.100 C 
ATOM     33  H   UNL     1      40.773 -27.084 -14.294  0.00  0.00    +0.144 HD
ATOM     34  H   UNL     1      40.870 -25.410 -13.984  0.00  0.00    +0.144 HD
ENDBRANCH  25  28
ENDBRANCH   1  25
TORSDOF 5
ENDMDL
MODEL 3
REMARK VINA RESULT:     -12.2      7.044     12.513
REMARK  Name = 11691242
REMARK  5 active torsions:
REMARK  status: ('A' for Active; 'I' for Inactive)
REMARK    1  A    between atoms: N_1  and  C_25
REMARK    2  A    between atoms: C_5  and  N_11
REMARK    3  A    between atoms: N_12  and  C_17
REMARK    4  A    between atoms: C_18  and  O_23
REMARK    5  A    between atoms: C_25  and  C_28
REMARK                            x       y       z     vdW  Elec       q    Type
REMARK                         _______ _______ _______ _____ _____    ______ ____
ROOT
ATOM      1  N   UNL     1      35.865 -19.191 -21.618  0.00  0.00    -0.282 N 
ATOM      2  C   UNL     1      35.201 -20.102 -20.829  0.00  0.00    +0.053 C 
ATOM      3  C   UNL     1      36.123 -20.594 -19.903  0.00  0.00    +0.028 C 
ATOM      4  C   UNL     1      37.172 -19.090 -21.225  0.00  0.00    +0.066 C 
ATOM      5  C   UNL     1      35.698 -21.554 -18.965  0.00  0.00    +0.053 C 
ATOM      6  C   UNL     1      37.364 -19.946 -20.166  0.00  0.00    +0.019 C 
ATOM      7  C   UNL     1      33.867 -20.525 -20.863  0.00  0.00    +0.015 C 
ATOM      8  C   UNL     1      34.366 -21.987 -18.987  0.00  0.00    +0.015 C 
ATOM      9  C   UNL     1      33.467 -21.479 -19.922  0.00  0.00    +0.003 C 
ENDROOT
BRANCH   5  11
ATOM     10  O   UNL     1      35.146 -22.892 -16.352  0.00  0.00    -0.252 OA
ATOM     11  N   UNL     1      36.578 -22.079 -18.018  0.00  0.00    -0.268 N 
ATOM     12  N   UNL     1      37.467 -23.087 -16.139  0.00  0.00    -0.266 N 
ATOM     13  C   UNL     1      36.279 -22.708 -16.785  0.00  0.00    +0.308 C 
ATOM     14  H   UNL     1      37.536 -22.001 -18.235  0.00  0.00    +0.156 HD
ATOM     15  H   UNL     1      38.303 -22.872 -16.612  0.00  0.00    +0.157 HD
BRANCH  12  17
ATOM     16 BR   UNL     1      35.380 -24.051 -11.408  0.00  0.00    -0.049 Br
ATOM     17  C   UNL     1      37.609 -23.740 -14.892  0.00  0.00    +0.086 C 
ATOM     18  C   UNL     1      38.738 -24.504 -14.636  0.00  0.00    +0.152 C 
ATOM     19  C   UNL     1      36.606 -23.599 -13.947  0.00  0.00    +0.024 C 
ATOM     20  C   UNL     1      38.865 -25.142 -13.403  0.00  0.00    +0.039 C 
ATOM     21  C   UNL     1      36.734 -24.237 -12.713  0.00  0.00    +0.036 C 
ATOM     22  C   UNL     1      37.863 -25.009 -12.441  0.00  0.00    +0.010 C 
BRANCH  18  23
ATOM     23  O   UNL     1      39.728 -24.645 -15.562  0.00  0.00    -0.470 OA
ATOM     24  C   UNL     1      40.579 -25.782 -15.432  0.00  0.00    +0.253 C 
ENDBRANCH  18  23
ENDBRANCH  12  17
ENDBRANCH   5  11
BRANCH   1  25
ATOM     25  C   UNL     1      35.282 -18.444 -22.712  0.00  0.00    +0.122 C 
BRANCH  25  28
ATOM     26  N   UNL     1      34.438 -14.400 -21.569  0.00  0.00    -0.230 NA
ATOM     27  N   UNL     1      34.630 -13.731 -23.848  0.00  0.00    -0.343 N 
ATOM     28  C   UNL     1      34.987 -17.024 -22.312  0.00  0.00    +0.002 C 
ATOM     29  C   UNL     1      34.948 -16.034 -23.277  0.00  0.00    +0.031 C 
ATOM     30  C   UNL     1      34.756 -16.724 -20.981  0.00  0.00    +0.018 C 
ATOM     31  C   UNL     1      34.670 -14.743 -22.856  0.00  0.00    +0.125 C 
ATOM     32  C   UNL     1      34.487 -15.402 -20.663  0.00  0.00    +0.100 C 
ATOM     33  H   UNL     1      34.435 -12.801 -23.593  0.00  0.00    +0.144 HD
ATOM     34  H   UNL     1      34.795 -13.960 -24.791  0.00  0.00    +0.144 HD
ENDBRANCH  25  28
ENDBRANCH   1  25
TORSDOF 5
ENDMDL
MODEL 4
REMARK VINA RESULT:     -11.9      5.085     10.370
REMARK  Name = 11691242
REMARK  5 active torsions:
REMARK  status: ('A' for Active; 'I' for Inactive)
REMARK    1  A    between atoms: N_1  and  C_25
REMARK    2  A    between atoms: C_5  and  N_11
REMARK    3  A    between atoms: N_12  and  C_17
REMARK    4  A    between atoms: C_18  and  O_23
REMARK    5  A    between atoms: C_25  and  C_28
REMARK                            x       y       z     vdW  Elec       q    Type
REMARK                         _______ _______ _______ _____ _____    ______ ____
ROOT
ATOM      1  N   UNL     1      34.672 -15.750 -23.021  0.00  0.00    -0.282 N 
ATOM      2  C   UNL     1      34.713 -17.050 -23.472  0.00  0.00    +0.053 C 
ATOM      3  C   UNL     1      35.015 -17.857 -22.373  0.00  0.00    +0.028 C 
ATOM      4  C   UNL     1      34.937 -15.707 -21.679  0.00  0.00    +0.066 C 
ATOM      5  C   UNL     1      35.119 -19.249 -22.561  0.00  0.00    +0.053 C 
ATOM      6  C   UNL     1      35.154 -16.995 -21.248  0.00  0.00    +0.019 C 
ATOM      7  C   UNL     1      34.508 -17.568 -24.755  0.00  0.00    +0.015 C 
ATOM      8  C   UNL     1      34.916 -19.782 -23.840  0.00  0.00    +0.015 C 
ATOM      9  C   UNL     1      34.616 -18.953 -24.919  0.00  0.00    +0.003 C 
ENDROOT
BRANCH   5  11
ATOM     10  O   UNL     1      33.376 -20.271 -20.361  0.00  0.00    -0.252 OA
ATOM     11  N   UNL     1      35.418 -20.101 -21.497  0.00  0.00    -0.268 N 
ATOM     12  N   UNL     1      35.272 -21.408 -19.599  0.00  0.00    -0.266 N 
ATOM     13  C   UNL     1      34.562 -20.566 -20.469  0.00  0.00    +0.308 C 
ATOM     14  H   UNL     1      36.348 -20.423 -21.456  0.00  0.00    +0.156 HD
ATOM     15  H   UNL     1      36.221 -21.552 -19.815  0.00  0.00    +0.157 HD
BRANCH  12  17
ATOM     16 BR   UNL     1      31.092 -23.331 -17.050  0.00  0.00    -0.049 Br
ATOM     17  C   UNL     1      34.790 -22.077 -18.448  0.00  0.00    +0.086 C 
ATOM     18  C   UNL     1      35.674 -22.467 -17.454  0.00  0.00    +0.152 C 
ATOM     19  C   UNL     1      33.432 -22.328 -18.344  0.00  0.00    +0.024 C 
ATOM     20  C   UNL     1      35.185 -23.125 -16.326  0.00  0.00    +0.039 C 
ATOM     21  C   UNL     1      32.943 -22.986 -17.215  0.00  0.00    +0.036 C 
ATOM     22  C   UNL     1      33.819 -23.385 -16.207  0.00  0.00    +0.010 C 
BRANCH  18  23
ATOM     23  O   UNL     1      37.011 -22.221 -17.551  0.00  0.00    -0.470 OA
ATOM     24  C   UNL     1      37.806 -22.495 -16.399  0.00  0.00    +0.253 C 
ENDBRANCH  18  23
ENDBRANCH  12  17
ENDBRANCH   5  11
BRANCH   1  25
ATOM     25  C   UNL     1      34.395 -14.586 -23.835  0.00  0.00    +0.122 C 
BRANCH  25  28
ATOM     26  N   UNL     1      31.985 -11.739 -21.725  0.00  0.00    -0.230 NA
ATOM     27  N   UNL     1      32.663 -10.048 -23.261  0.00  0.00    -0.343 N 
ATOM     28  C   UNL     1      33.550 -13.586 -23.094  0.00  0.00    +0.002 C 
ATOM     29  C   UNL     1      33.503 -12.273 -23.528  0.00  0.00    +0.031 C 
ATOM     30  C   UNL     1      32.827 -13.990 -21.987  0.00  0.00    +0.018 C 
ATOM     31  C   UNL     1      32.709 -11.392 -22.813  0.00  0.00    +0.125 C 
ATOM     32  C   UNL     1      32.062 -13.033 -21.340  0.00  0.00    +0.100 C 
ATOM     33  H   UNL     1      32.110  -9.389 -22.782  0.00  0.00    +0.144 HD
ATOM     34  H   UNL     1      33.182  -9.775 -24.052  0.00  0.00    +0.144 HD
ENDBRANCH  25  28
ENDBRANCH   1  25
TORSDOF 5
ENDMDL
MODEL 5
REMARK VINA RESULT:     -11.7      6.710     12.009
REMARK  Name = 11691242
REMARK  5 active torsions:
REMARK  status: ('A' for Active; 'I' for Inactive)
REMARK    1  A    between atoms: N_1  and  C_25
REMARK    2  A    between atoms: C_5  and  N_11
REMARK    3  A    between atoms: N_12  and  C_17
REMARK    4  A    between atoms: C_18  and  O_23
REMARK    5  A    between atoms: C_25  and  C_28
REMARK                            x       y       z     vdW  Elec       q    Type
REMARK                         _______ _______ _______ _____ _____    ______ ____
ROOT
ATOM      1  N   UNL     1      35.900 -18.784 -22.356  0.00  0.00    -0.282 N 
ATOM      2  C   UNL     1      35.195 -19.619 -21.520  0.00  0.00    +0.053 C 
ATOM      3  C   UNL     1      36.071 -20.023 -20.509  0.00  0.00    +0.028 C 
ATOM      4  C   UNL     1      37.187 -18.647 -21.912  0.00  0.00    +0.066 C 
ATOM      5  C   UNL     1      35.597 -20.893 -19.508  0.00  0.00    +0.053 C 
ATOM      6  C   UNL     1      37.325 -19.402 -20.771  0.00  0.00    +0.019 C 
ATOM      7  C   UNL     1      33.864 -20.043 -21.578  0.00  0.00    +0.015 C 
ATOM      8  C   UNL     1      34.267 -21.326 -19.553  0.00  0.00    +0.015 C 
ATOM      9  C   UNL     1      33.415 -20.906 -20.573  0.00  0.00    +0.003 C 
ENDROOT
BRANCH   5  11
ATOM     10  O   UNL     1      35.239 -23.121 -17.551  0.00  0.00    -0.252 OA
ATOM     11  N   UNL     1      36.430 -21.328 -18.476  0.00  0.00    -0.268 N 
ATOM     12  N   UNL     1      37.317 -22.486 -16.685  0.00  0.00    -0.266 N 
ATOM     13  C   UNL     1      36.226 -22.392 -17.565  0.00  0.00    +0.308 C 
ATOM     14  H   UNL     1      37.272 -20.828 -18.366  0.00  0.00    +0.156 HD
ATOM     15  H   UNL     1      38.037 -21.829 -16.819  0.00  0.00    +0.157 HD
BRANCH  12  17
ATOM     16 BR   UNL     1      40.460 -26.098 -14.509  0.00  0.00    -0.049 Br
ATOM     17  C   UNL     1      37.508 -23.409 -15.630  0.00  0.00    +0.086 C 
ATOM     18  C   UNL     1      36.535 -23.555 -14.653  0.00  0.00    +0.152 C 
ATOM     19  C   UNL     1      38.676 -24.154 -15.599  0.00  0.00    +0.024 C 
ATOM     20  C   UNL     1      36.737 -24.468 -13.619  0.00  0.00    +0.039 C 
ATOM     21  C   UNL     1      38.877 -25.068 -14.565  0.00  0.00    +0.036 C 
ATOM     22  C   UNL     1      37.908 -25.225 -13.575  0.00  0.00    +0.010 C 
BRANCH  18  23
ATOM     23  O   UNL     1      35.384 -22.825 -14.679  0.00  0.00    -0.470 OA
ATOM     24  C   UNL     1      34.166 -23.528 -14.436  0.00  0.00    +0.253 C 
ENDBRANCH  18  23
ENDBRANCH  12  17
ENDBRANCH   5  11
BRANCH   1  25
ATOM     25  C   UNL     1      35.373 -18.140 -23.541  0.00  0.00    +0.122 C 
BRANCH  25  28
ATOM     26  N   UNL     1      34.119 -14.127 -22.713  0.00  0.00    -0.230 NA
ATOM     27  N   UNL     1      33.732 -13.783 -25.038  0.00  0.00    -0.343 N 
ATOM     28  C   UNL     1      34.934 -16.731 -23.251  0.00  0.00    +0.002 C 
ATOM     29  C   UNL     1      34.536 -15.909 -24.291  0.00  0.00    +0.031 C 
ATOM     30  C   UNL     1      34.930 -16.271 -21.946  0.00  0.00    +0.018 C 
ATOM     31  C   UNL     1      34.139 -14.621 -23.971  0.00  0.00    +0.125 C 
ATOM     32  C   UNL     1      34.516 -14.967 -21.731  0.00  0.00    +0.100 C 
ATOM     33  H   UNL     1      33.442 -12.861 -24.856  0.00  0.00    +0.144 HD
ATOM     34  H   UNL     1      33.739 -14.124 -25.962  0.00  0.00    +0.144 HD
ENDBRANCH  25  28
ENDBRANCH   1  25
TORSDOF 5
ENDMDL
MODEL 6
REMARK VINA RESULT:     -11.4      3.856     10.753
REMARK  Name = 11691242
REMARK  5 active torsions:
REMARK  status: ('A' for Active; 'I' for Inactive)
REMARK    1  A    between atoms: N_1  and  C_25
REMARK    2  A    between atoms: C_5  and  N_11
REMARK    3  A    between atoms: N_12  and  C_17
REMARK    4  A    between atoms: C_18  and  O_23
REMARK    5  A    between atoms: C_25  and  C_28
REMARK                            x       y       z     vdW  Elec       q    Type
REMARK                         _______ _______ _______ _____ _____    ______ ____
ROOT
ATOM      1  N   UNL     1      33.314  -7.861 -22.828  0.00  0.00    -0.282 N 
ATOM      2  C   UNL     1      32.681  -9.051 -22.546  0.00  0.00    +0.053 C 
ATOM      3  C   UNL     1      33.443 -10.069 -23.125  0.00  0.00    +0.028 C 
ATOM      4  C   UNL     1      34.446  -8.091 -23.562  0.00  0.00    +0.066 C 
ATOM      5  C   UNL     1      33.011 -11.402 -22.985  0.00  0.00    +0.053 C 
ATOM      6  C   UNL     1      34.553  -9.447 -23.763  0.00  0.00    +0.019 C 
ATOM      7  C   UNL     1      31.505  -9.302 -21.831  0.00  0.00    +0.015 C 
ATOM      8  C   UNL     1      31.836 -11.669 -22.273  0.00  0.00    +0.015 C 
ATOM      9  C   UNL     1      31.096 -10.633 -21.705  0.00  0.00    +0.003 C 
ENDROOT
BRANCH   5  11
ATOM     10  O   UNL     1      32.924 -14.328 -22.389  0.00  0.00    -0.252 OA
ATOM     11  N   UNL     1      33.735 -12.457 -23.543  0.00  0.00    -0.268 N 
ATOM     12  N   UNL     1      34.569 -14.553 -24.035  0.00  0.00    -0.266 N 
ATOM     13  C   UNL     1      33.666 -13.837 -23.234  0.00  0.00    +0.308 C 
ATOM     14  H   UNL     1      34.379 -12.209 -24.246  0.00  0.00    +0.156 HD
ATOM     15  H   UNL     1      35.099 -14.021 -24.670  0.00  0.00    +0.157 HD
BRANCH  12  17
ATOM     16 BR   UNL     1      36.196 -18.754 -21.319  0.00  0.00    -0.049 Br
ATOM     17  C   UNL     1      34.811 -15.948 -24.042  0.00  0.00    +0.086 C 
ATOM     18  C   UNL     1      34.567 -16.688 -25.188  0.00  0.00    +0.152 C 
ATOM     19  C   UNL     1      35.291 -16.546 -22.888  0.00  0.00    +0.024 C 
ATOM     20  C   UNL     1      34.809 -18.060 -25.180  0.00  0.00    +0.039 C 
ATOM     21  C   UNL     1      35.534 -17.920 -22.880  0.00  0.00    +0.036 C 
ATOM     22  C   UNL     1      35.293 -18.677 -24.026  0.00  0.00    +0.010 C 
BRANCH  18  23
ATOM     23  O   UNL     1      34.096 -16.104 -26.326  0.00  0.00    -0.470 OA
ATOM     24  C   UNL     1      32.704 -15.792 -26.366  0.00  0.00    +0.253 C 
ENDBRANCH  18  23
ENDBRANCH  12  17
ENDBRANCH   5  11
BRANCH   1  25
ATOM     25  C   UNL     1      32.860  -6.549 -22.418  0.00  0.00    +0.122 C 
BRANCH  25  28
ATOM     26  N   UNL     1      31.981  -4.070 -25.801  0.00  0.00    -0.230 NA
ATOM     27  N   UNL     1      30.161  -3.105 -24.604  0.00  0.00    -0.343 N 
ATOM     28  C   UNL     1      32.550  -5.679 -23.605  0.00  0.00    +0.002 C 
ATOM     29  C   UNL     1      31.490  -4.793 -23.548  0.00  0.00    +0.031 C 
ATOM     30  C   UNL     1      33.331  -5.774 -24.743  0.00  0.00    +0.018 C 
ATOM     31  C   UNL     1      31.248  -4.013 -24.667  0.00  0.00    +0.125 C 
ATOM     32  C   UNL     1      33.006  -4.951 -25.810  0.00  0.00    +0.100 C 
ATOM     33  H   UNL     1      29.954  -2.532 -25.376  0.00  0.00    +0.144 HD
ATOM     34  H   UNL     1      29.615  -3.048 -23.786  0.00  0.00    +0.144 HD
ENDBRANCH  25  28
ENDBRANCH   1  25
TORSDOF 5
ENDMDL
MODEL 7
REMARK VINA RESULT:     -11.3      1.824      2.444
REMARK  Name = 11691242
REMARK  5 active torsions:
REMARK  status: ('A' for Active; 'I' for Inactive)
REMARK    1  A    between atoms: N_1  and  C_25
REMARK    2  A    between atoms: C_5  and  N_11
REMARK    3  A    between atoms: N_12  and  C_17
REMARK    4  A    between atoms: C_18  and  O_23
REMARK    5  A    between atoms: C_25  and  C_28
REMARK                            x       y       z     vdW  Elec       q    Type
REMARK                         _______ _______ _______ _____ _____    ______ ____
ROOT
ATOM      1  N   UNL     1      34.630 -16.926 -23.687  0.00  0.00    -0.282 N 
ATOM      2  C   UNL     1      34.090 -16.116 -24.660  0.00  0.00    +0.053 C 
ATOM      3  C   UNL     1      34.175 -14.801 -24.195  0.00  0.00    +0.028 C 
ATOM      4  C   UNL     1      35.051 -16.171 -22.625  0.00  0.00    +0.066 C 
ATOM      5  C   UNL     1      33.686 -13.761 -25.008  0.00  0.00    +0.053 C 
ATOM      6  C   UNL     1      34.782 -14.852 -22.908  0.00  0.00    +0.019 C 
ATOM      7  C   UNL     1      33.540 -16.442 -25.904  0.00  0.00    +0.015 C 
ATOM      8  C   UNL     1      33.132 -14.072 -26.256  0.00  0.00    +0.015 C 
ATOM      9  C   UNL     1      33.062 -15.392 -26.696  0.00  0.00    +0.003 C 
ENDROOT
BRANCH   5  11
ATOM     10  O   UNL     1      32.340 -12.397 -22.717  0.00  0.00    -0.252 OA
ATOM     11  N   UNL     1      33.745 -12.430 -24.592  0.00  0.00    -0.268 N 
ATOM     12  N   UNL     1      33.428 -10.456 -23.437  0.00  0.00    -0.266 N 
ATOM     13  C   UNL     1      33.091 -11.817 -23.496  0.00  0.00    +0.308 C 
ATOM     14  H   UNL     1      34.318 -11.838 -25.131  0.00  0.00    +0.156 HD
ATOM     15  H   UNL     1      34.043 -10.133 -24.133  0.00  0.00    +0.157 HD
BRANCH  12  17
ATOM     16 BR   UNL     1      31.093  -9.552 -18.810  0.00  0.00    -0.049 Br
ATOM     17  C   UNL     1      32.991  -9.490 -22.498  0.00  0.00    +0.086 C 
ATOM     18  C   UNL     1      33.182  -8.141 -22.753  0.00  0.00    +0.152 C 
ATOM     19  C   UNL     1      32.376  -9.923 -21.335  0.00  0.00    +0.024 C 
ATOM     20  C   UNL     1      32.748  -7.202 -21.819  0.00  0.00    +0.039 C 
ATOM     21  C   UNL     1      31.940  -8.983 -20.401  0.00  0.00    +0.036 C 
ATOM     22  C   UNL     1      32.127  -7.622 -20.643  0.00  0.00    +0.010 C 
BRANCH  18  23
ATOM     23  O   UNL     1      33.786  -7.710 -23.896  0.00  0.00    -0.470 OA
ATOM     24  C   UNL     1      33.576  -6.349 -24.267  0.00  0.00    +0.253 C 
ENDBRANCH  18  23
ENDBRANCH  12  17
ENDBRANCH   5  11
BRANCH   1  25
ATOM     25  C   UNL     1      34.740 -18.367 -23.758  0.00  0.00    +0.122 C 
BRANCH  25  28
ATOM     26  N   UNL     1      36.706 -19.960 -20.299  0.00  0.00    -0.230 NA
ATOM     27  N   UNL     1      34.745 -21.210 -19.778  0.00  0.00    -0.343 N 
ATOM     28  C   UNL     1      35.429 -18.926 -22.543  0.00  0.00    +0.002 C 
ATOM     29  C   UNL     1      34.757 -19.814 -21.722  0.00  0.00    +0.031 C 
ATOM     30  C   UNL     1      36.729 -18.547 -22.260  0.00  0.00    +0.018 C 
ATOM     31  C   UNL     1      35.436 -20.301 -20.617  0.00  0.00    +0.125 C 
ATOM     32  C   UNL     1      37.321 -19.090 -21.131  0.00  0.00    +0.100 C 
ATOM     33  H   UNL     1      35.190 -21.581 -18.983  0.00  0.00    +0.144 HD
ATOM     34  H   UNL     1      33.820 -21.472 -19.993  0.00  0.00    +0.144 HD
ENDBRANCH  25  28
ENDBRANCH   1  25
TORSDOF 5
ENDMDL
MODEL 8
REMARK VINA RESULT:     -11.2      2.637      4.601
REMARK  Name = 11691242
REMARK  5 active torsions:
REMARK  status: ('A' for Active; 'I' for Inactive)
REMARK    1  A    between atoms: N_1  and  C_25
REMARK    2  A    between atoms: C_5  and  N_11
REMARK    3  A    between atoms: N_12  and  C_17
REMARK    4  A    between atoms: C_18  and  O_23
REMARK    5  A    between atoms: C_25  and  C_28
REMARK                            x       y       z     vdW  Elec       q    Type
REMARK                         _______ _______ _______ _____ _____    ______ ____
ROOT
ATOM      1  N   UNL     1      34.185 -13.446 -23.059  0.00  0.00    -0.282 N 
ATOM      2  C   UNL     1      33.235 -12.808 -22.295  0.00  0.00    +0.053 C 
ATOM      3  C   UNL     1      32.873 -11.644 -22.977  0.00  0.00    +0.028 C 
ATOM      4  C   UNL     1      34.437 -12.728 -24.196  0.00  0.00    +0.066 C 
ATOM      5  C   UNL     1      31.904 -10.796 -22.406  0.00  0.00    +0.053 C 
ATOM      6  C   UNL     1      33.641 -11.606 -24.175  0.00  0.00    +0.019 C 
ATOM      7  C   UNL     1      32.672 -13.168 -21.066  0.00  0.00    +0.015 C 
ATOM      8  C   UNL     1      31.333 -11.143 -21.176  0.00  0.00    +0.015 C 
ATOM      9  C   UNL     1      31.712 -12.311 -20.518  0.00  0.00    +0.003 C 
ENDROOT
BRANCH   5  11
ATOM     10  O   UNL     1      33.165  -8.088 -22.419  0.00  0.00    -0.252 OA
ATOM     11  N   UNL     1      31.507  -9.620 -23.045  0.00  0.00    -0.268 N 
ATOM     12  N   UNL     1      31.398  -7.443 -23.807  0.00  0.00    -0.266 N 
ATOM     13  C   UNL     1      32.133  -8.350 -23.028  0.00  0.00    +0.308 C 
ATOM     14  H   UNL     1      30.682  -9.682 -23.578  0.00  0.00    +0.156 HD
ATOM     15  H   UNL     1      30.588  -7.801 -24.237  0.00  0.00    +0.157 HD
BRANCH  12  17
ATOM     16 BR   UNL     1      33.741  -3.920 -26.933  0.00  0.00    -0.049 Br
ATOM     17  C   UNL     1      31.679  -6.078 -24.052  0.00  0.00    +0.086 C 
ATOM     18  C   UNL     1      31.205  -5.107 -23.183  0.00  0.00    +0.152 C 
ATOM     19  C   UNL     1      32.429  -5.742 -25.167  0.00  0.00    +0.024 C 
ATOM     20  C   UNL     1      31.489  -3.766 -23.437  0.00  0.00    +0.039 C 
ATOM     21  C   UNL     1      32.714  -4.400 -25.421  0.00  0.00    +0.036 C 
ATOM     22  C   UNL     1      32.244  -3.412 -24.556  0.00  0.00    +0.010 C 
BRANCH  18  23
ATOM     23  O   UNL     1      30.468  -5.433 -22.084  0.00  0.00    -0.470 OA
ATOM     24  C   UNL     1      31.168  -5.563 -20.849  0.00  0.00    +0.253 C 
ENDBRANCH  18  23
ENDBRANCH  12  17
ENDBRANCH   5  11
BRANCH   1  25
ATOM     25  C   UNL     1      34.837 -14.693 -22.721  0.00  0.00    +0.122 C 
BRANCH  25  28
ATOM     26  N   UNL     1      33.927 -17.757 -25.576  0.00  0.00    -0.230 NA
ATOM     27  N   UNL     1      35.073 -19.344 -24.217  0.00  0.00    -0.343 N 
ATOM     28  C   UNL     1      34.519 -15.769 -23.723  0.00  0.00    +0.002 C 
ATOM     29  C   UNL     1      34.951 -17.064 -23.498  0.00  0.00    +0.031 C 
ATOM     30  C   UNL     1      33.797 -15.452 -24.859  0.00  0.00    +0.018 C 
ATOM     31  C   UNL     1      34.630 -18.018 -24.451  0.00  0.00    +0.125 C 
ATOM     32  C   UNL     1      33.528 -16.478 -25.751  0.00  0.00    +0.100 C 
ATOM     33  H   UNL     1      34.867 -20.053 -24.867  0.00  0.00    +0.144 HD
ATOM     34  H   UNL     1      35.585 -19.555 -23.403  0.00  0.00    +0.144 HD
ENDBRANCH  25  28
ENDBRANCH   1  25
TORSDOF 5
ENDMDL
MODEL 9
REMARK VINA RESULT:     -11.1      3.762     10.544
REMARK  Name = 11691242
REMARK  5 active torsions:
REMARK  status: ('A' for Active; 'I' for Inactive)
REMARK    1  A    between atoms: N_1  and  C_25
REMARK    2  A    between atoms: C_5  and  N_11
REMARK    3  A    between atoms: N_12  and  C_17
REMARK    4  A    between atoms: C_18  and  O_23
REMARK    5  A    between atoms: C_25  and  C_28
REMARK                            x       y       z     vdW  Elec       q    Type
REMARK                         _______ _______ _______ _____ _____    ______ ____
ROOT
ATOM      1  N   UNL     1      31.846  -7.657 -22.662  0.00  0.00    -0.282 N 
ATOM      2  C   UNL     1      31.870  -8.566 -21.629  0.00  0.00    +0.053 C 
ATOM      3  C   UNL     1      31.943  -9.838 -22.202  0.00  0.00    +0.028 C 
ATOM      4  C   UNL     1      31.900  -8.307 -23.865  0.00  0.00    +0.066 C 
ATOM      5  C   UNL     1      31.981 -10.963 -21.356  0.00  0.00    +0.053 C 
ATOM      6  C   UNL     1      31.961  -9.658 -23.615  0.00  0.00    +0.019 C 
ATOM      7  C   UNL     1      31.833  -8.363 -20.245  0.00  0.00    +0.015 C 
ATOM      8  C   UNL     1      31.945 -10.775 -19.969  0.00  0.00    +0.015 C 
ATOM      9  C   UNL     1      31.872  -9.495 -19.424  0.00  0.00    +0.003 C 
ENDROOT
BRANCH   5  11
ATOM     10  O   UNL     1      34.142 -12.285 -22.938  0.00  0.00    -0.252 OA
ATOM     11  N   UNL     1      32.054 -12.256 -21.876  0.00  0.00    -0.268 N 
ATOM     12  N   UNL     1      32.763 -14.173 -22.950  0.00  0.00    -0.266 N 
ATOM     13  C   UNL     1      33.099 -12.850 -22.624  0.00  0.00    +0.308 C 
ATOM     14  H   UNL     1      31.275 -12.832 -21.700  0.00  0.00    +0.156 HD
ATOM     15  H   UNL     1      31.888 -14.488 -22.628  0.00  0.00    +0.157 HD
BRANCH  12  17
ATOM     16 BR   UNL     1      36.116 -18.222 -22.780  0.00  0.00    -0.049 Br
ATOM     17  C   UNL     1      33.527 -15.110 -23.685  0.00  0.00    +0.086 C 
ATOM     18  C   UNL     1      33.497 -15.093 -25.071  0.00  0.00    +0.152 C 
ATOM     19  C   UNL     1      34.296 -16.032 -22.993  0.00  0.00    +0.024 C 
ATOM     20  C   UNL     1      34.255 -16.023 -25.782  0.00  0.00    +0.039 C 
ATOM     21  C   UNL     1      35.055 -16.961 -23.705  0.00  0.00    +0.036 C 
ATOM     22  C   UNL     1      35.035 -16.957 -25.099  0.00  0.00    +0.010 C 
BRANCH  18  23
ATOM     23  O   UNL     1      32.743 -14.188 -25.757  0.00  0.00    -0.470 OA
ATOM     24  C   UNL     1      33.395 -13.451 -26.790  0.00  0.00    +0.253 C 
ENDBRANCH  18  23
ENDBRANCH  12  17
ENDBRANCH   5  11
BRANCH   1  25
ATOM     25  C   UNL     1      31.769  -6.219 -22.515  0.00  0.00    +0.122 C 
BRANCH  25  28
ATOM     26  N   UNL     1      32.997  -4.212 -26.097  0.00  0.00    -0.230 NA
ATOM     27  N   UNL     1      34.988  -5.519 -26.130  0.00  0.00    -0.343 N 
ATOM     28  C   UNL     1      32.201  -5.514 -23.772  0.00  0.00    +0.002 C 
ATOM     29  C   UNL     1      33.404  -5.850 -24.367  0.00  0.00    +0.031 C 
ATOM     30  C   UNL     1      31.389  -4.538 -24.321  0.00  0.00    +0.018 C 
ATOM     31  C   UNL     1      33.755  -5.173 -25.523  0.00  0.00    +0.125 C 
ATOM     32  C   UNL     1      31.830  -3.919 -25.480  0.00  0.00    +0.100 C 
ATOM     33  H   UNL     1      35.276  -5.064 -26.953  0.00  0.00    +0.144 HD
ATOM     34  H   UNL     1      35.555  -6.217 -25.729  0.00  0.00    +0.144 HD
ENDBRANCH  25  28
ENDBRANCH   1  25
TORSDOF 5
ENDMDL
