MODEL 1
REMARK VINA RESULT:     -12.1      0.000      0.000
REMARK  Name = 9801640
REMARK  6 active torsions:
REMARK  status: ('A' for Active; 'I' for Inactive)
REMARK    1  A    between atoms: C_1  and  C_2
REMARK    2  A    between atoms: C_1  and  C_16
REMARK    3  A    between atoms: C_2  and  N_3
REMARK    4  A    between atoms: C_7  and  C_11
REMARK    5  A    between atoms: C_16  and  C_17
REMARK    6  A    between atoms: C_17  and  N_21
REMARK                            x       y       z     vdW  Elec       q    Type
REMARK                         _______ _______ _______ _____ _____    ______ ____
ROOT
ATOM      1  C   UNL     1      32.700 -13.004 -23.180  0.00  0.00    -0.021 C 
ENDROOT
BRANCH   1   2
ATOM      2  C   UNL     1      34.105 -13.573 -23.374  0.00  0.00    -0.077 C 
BRANCH   2   3
ATOM      3  N   UNL     1      34.170 -14.945 -22.877  0.00  0.00    +0.390 N 
ATOM      4  C   UNL     1      35.138 -15.739 -23.639  0.00  0.00    -0.072 C 
ATOM      5  C   UNL     1      34.496 -14.965 -21.442  0.00  0.00    -0.051 C 
ATOM      6  C   UNL     1      35.063 -17.211 -23.206  0.00  0.00    +0.005 C 
ATOM      7  C   UNL     1      35.081 -17.385 -21.704  0.00  0.00    -0.013 C 
ATOM      8  C   UNL     1      34.818 -16.334 -20.906  0.00  0.00    -0.052 C 
ATOM      9  H   UNL     1      33.250 -15.368 -23.002  0.00  0.00    -0.079 HD
BRANCH   7  11
ATOM     10  N   UNL     1      36.674 -18.955 -20.812  0.00  0.00    -0.244 NA
ATOM     11  C   UNL     1      35.385 -18.729 -21.156  0.00  0.00    +0.077 C 
ATOM     12  C   UNL     1      34.374 -19.670 -21.021  0.00  0.00    +0.019 C 
ATOM     13  C   UNL     1      34.707 -20.917 -20.503  0.00  0.00    +0.003 C 
ATOM     14  C   UNL     1      36.960 -20.179 -20.313  0.00  0.00    +0.099 C 
ATOM     15  C   UNL     1      36.023 -21.184 -20.140  0.00  0.00    +0.021 C 
ENDBRANCH   7  11
ENDBRANCH   2   3
ENDBRANCH   1   2
BRANCH   1  16
ATOM     16  C   UNL     1      32.635 -12.104 -21.942  0.00  0.00    +0.020 C 
BRANCH  16  17
ATOM     17  C   UNL     1      31.387 -11.227 -21.919  0.00  0.00    +0.099 C 
BRANCH  17  21
ATOM     18 CL   UNL     1      31.006 -10.208 -19.191  0.00  0.00    -0.062 Cl
ATOM     19  O   UNL     1      33.160  -7.341 -20.865  0.00  0.00    -0.448 OA
ATOM     20  O   UNL     1      32.076  -9.597 -24.044  0.00  0.00    -0.269 OA
ATOM     21  N   UNL     1      31.706  -9.802 -21.748  0.00  0.00    -0.244 N 
ATOM     22  C   UNL     1      31.936  -9.073 -22.936  0.00  0.00    +0.256 C 
ATOM     23  C   UNL     1      31.765  -9.283 -20.456  0.00  0.00    +0.151 C 
ATOM     24  C   UNL     1      31.913  -7.591 -22.928  0.00  0.00    +0.088 C 
ATOM     25  C   UNL     1      32.513  -6.811 -21.945  0.00  0.00    +0.150 C 
ATOM     26  C   UNL     1      32.410  -8.172 -20.080  0.00  0.00    +0.206 C 
ATOM     27  C   UNL     1      31.300  -6.952 -24.019  0.00  0.00    +0.008 C 
ATOM     28  C   UNL     1      32.526  -5.415 -22.052  0.00  0.00    +0.038 C 
ATOM     29  C   UNL     1      31.294  -5.559 -24.116  0.00  0.00    +0.000 C 
ATOM     30  C   UNL     1      31.911  -4.791 -23.134  0.00  0.00    +0.003 C 
ENDBRANCH  17  21
ENDBRANCH  16  17
ENDBRANCH   1  16
TORSDOF 6
ENDMDL
MODEL 2
REMARK VINA RESULT:     -12.0      2.503      3.609
REMARK  Name = 9801640
REMARK  6 active torsions:
REMARK  status: ('A' for Active; 'I' for Inactive)
REMARK    1  A    between atoms: C_1  and  C_2
REMARK    2  A    between atoms: C_1  and  C_16
REMARK    3  A    between atoms: C_2  and  N_3
REMARK    4  A    between atoms: C_7  and  C_11
REMARK    5  A    between atoms: C_16  and  C_17
REMARK    6  A    between atoms: C_17  and  N_21
REMARK                            x       y       z     vdW  Elec       q    Type
REMARK                         _______ _______ _______ _____ _____    ______ ____
ROOT
ATOM      1  C   UNL     1      33.424 -15.272 -25.470  0.00  0.00    -0.021 C 
ENDROOT
BRANCH   1   2
ATOM      2  C   UNL     1      34.748 -15.765 -24.888  0.00  0.00    -0.077 C 
BRANCH   2   3
ATOM      3  N   UNL     1      34.508 -16.812 -23.897  0.00  0.00    +0.390 N 
ATOM      4  C   UNL     1      34.977 -18.115 -24.379  0.00  0.00    -0.072 C 
ATOM      5  C   UNL     1      35.144 -16.472 -22.615  0.00  0.00    -0.051 C 
ATOM      6  C   UNL     1      34.562 -19.216 -23.392  0.00  0.00    +0.005 C 
ATOM      7  C   UNL     1      34.883 -18.872 -21.955  0.00  0.00    -0.013 C 
ATOM      8  C   UNL     1      35.151 -17.598 -21.616  0.00  0.00    -0.052 C 
ATOM      9  H   UNL     1      33.501 -16.877 -23.748  0.00  0.00    -0.079 HD
BRANCH   7  11
ATOM     10  N   UNL     1      36.092 -20.317 -20.455  0.00  0.00    -0.244 NA
ATOM     11  C   UNL     1      34.884 -19.966 -20.953  0.00  0.00    +0.077 C 
ATOM     12  C   UNL     1      33.690 -20.567 -20.579  0.00  0.00    +0.019 C 
ATOM     13  C   UNL     1      33.741 -21.589 -19.637  0.00  0.00    +0.003 C 
ATOM     14  C   UNL     1      36.102 -21.315 -19.542  0.00  0.00    +0.099 C 
ATOM     15  C   UNL     1      34.966 -21.976 -19.105  0.00  0.00    +0.021 C 
ENDBRANCH   7  11
ENDBRANCH   2   3
ENDBRANCH   1   2
BRANCH   1  16
ATOM     16  C   UNL     1      33.174 -13.805 -25.106  0.00  0.00    +0.020 C 
BRANCH  16  17
ATOM     17  C   UNL     1      33.952 -13.367 -23.870  0.00  0.00    +0.099 C 
BRANCH  17  21
ATOM     18 CL   UNL     1      35.266 -10.914 -24.811  0.00  0.00    -0.062 Cl
ATOM     19  O   UNL     1      31.993  -9.506 -23.089  0.00  0.00    -0.448 OA
ATOM     20  O   UNL     1      32.030 -13.367 -21.882  0.00  0.00    -0.269 OA
ATOM     21  N   UNL     1      33.424 -12.126 -23.285  0.00  0.00    -0.244 N 
ATOM     22  C   UNL     1      32.525 -12.284 -22.206  0.00  0.00    +0.256 C 
ATOM     23  C   UNL     1      33.830 -10.908 -23.826  0.00  0.00    +0.151 C 
ATOM     24  C   UNL     1      32.205 -11.143 -21.316  0.00  0.00    +0.088 C 
ATOM     25  C   UNL     1      31.946  -9.854 -21.770  0.00  0.00    +0.150 C 
ATOM     26  C   UNL     1      33.184  -9.740 -23.717  0.00  0.00    +0.206 C 
ATOM     27  C   UNL     1      32.099 -11.411 -19.940  0.00  0.00    +0.008 C 
ATOM     28  C   UNL     1      31.564  -8.847 -20.875  0.00  0.00    +0.038 C 
ATOM     29  C   UNL     1      31.739 -10.402 -19.044  0.00  0.00    +0.000 C 
ATOM     30  C   UNL     1      31.467  -9.121 -19.513  0.00  0.00    +0.003 C 
ENDBRANCH  17  21
ENDBRANCH  16  17
ENDBRANCH   1  16
TORSDOF 6
ENDMDL
MODEL 3
REMARK VINA RESULT:     -11.8      4.722     11.837
REMARK  Name = 9801640
REMARK  6 active torsions:
REMARK  status: ('A' for Active; 'I' for Inactive)
REMARK    1  A    between atoms: C_1  and  C_2
REMARK    2  A    between atoms: C_1  and  C_16
REMARK    3  A    between atoms: C_2  and  N_3
REMARK    4  A    between atoms: C_7  and  C_11
REMARK    5  A    between atoms: C_16  and  C_17
REMARK    6  A    between atoms: C_17  and  N_21
REMARK                            x       y       z     vdW  Elec       q    Type
REMARK                         _______ _______ _______ _____ _____    ______ ____
ROOT
ATOM      1  C   UNL     1      35.087 -17.874 -21.383  0.00  0.00    -0.021 C 
ENDROOT
BRANCH   1   2
ATOM      2  C   UNL     1      35.438 -17.187 -22.701  0.00  0.00    -0.077 C 
BRANCH   2   3
ATOM      3  N   UNL     1      34.993 -15.796 -22.682  0.00  0.00    +0.390 N 
ATOM      4  C   UNL     1      34.102 -15.509 -23.811  0.00  0.00    -0.072 C 
ATOM      5  C   UNL     1      34.333 -15.477 -21.406  0.00  0.00    -0.051 C 
ATOM      6  C   UNL     1      33.786 -14.007 -23.859  0.00  0.00    +0.005 C 
ATOM      7  C   UNL     1      33.374 -13.448 -22.515  0.00  0.00    -0.013 C 
ATOM      8  C   UNL     1      33.634 -14.144 -21.393  0.00  0.00    -0.052 C 
ATOM      9  H   UNL     1      35.816 -15.201 -22.774  0.00  0.00    -0.079 HD
BRANCH   7  11
ATOM     10  N   UNL     1      33.163 -11.195 -23.339  0.00  0.00    -0.244 NA
ATOM     11  C   UNL     1      32.694 -12.130 -22.481  0.00  0.00    +0.077 C 
ATOM     12  C   UNL     1      31.643 -11.914 -21.602  0.00  0.00    +0.019 C 
ATOM     13  C   UNL     1      31.037 -10.662 -21.605  0.00  0.00    +0.003 C 
ATOM     14  C   UNL     1      32.549  -9.990 -23.313  0.00  0.00    +0.099 C 
ATOM     15  C   UNL     1      31.493  -9.677 -22.473  0.00  0.00    +0.021 C 
ENDBRANCH   7  11
ENDBRANCH   2   3
ENDBRANCH   1   2
BRANCH   1  16
ATOM     16  C   UNL     1      36.003 -19.076 -21.126  0.00  0.00    +0.020 C 
BRANCH  16  17
ATOM     17  C   UNL     1      35.301 -20.409 -21.360  0.00  0.00    +0.099 C 
BRANCH  17  21
ATOM     18 CL   UNL     1      32.530 -20.220 -20.403  0.00  0.00    -0.062 Cl
ATOM     19  O   UNL     1      33.962 -23.210 -18.242  0.00  0.00    -0.448 OA
ATOM     20  O   UNL     1      37.302 -21.655 -19.913  0.00  0.00    -0.269 OA
ATOM     21  N   UNL     1      35.035 -21.131 -20.107  0.00  0.00    -0.244 N 
ATOM     22  C   UNL     1      36.170 -21.625 -19.425  0.00  0.00    +0.256 C 
ATOM     23  C   UNL     1      33.714 -21.281 -19.691  0.00  0.00    +0.151 C 
ATOM     24  C   UNL     1      36.075 -22.046 -18.007  0.00  0.00    +0.088 C 
ATOM     25  C   UNL     1      35.028 -22.804 -17.491  0.00  0.00    +0.150 C 
ATOM     26  C   UNL     1      33.252 -22.210 -18.845  0.00  0.00    +0.206 C 
ATOM     27  C   UNL     1      37.144 -21.705 -17.161  0.00  0.00    +0.008 C 
ATOM     28  C   UNL     1      35.051 -23.239 -16.161  0.00  0.00    +0.038 C 
ATOM     29  C   UNL     1      37.158 -22.120 -15.828  0.00  0.00    +0.000 C 
ATOM     30  C   UNL     1      36.113 -22.891 -15.329  0.00  0.00    +0.003 C 
ENDBRANCH  17  21
ENDBRANCH  16  17
ENDBRANCH   1  16
TORSDOF 6
ENDMDL
MODEL 4
REMARK VINA RESULT:     -11.7      3.043     10.814
REMARK  Name = 9801640
REMARK  6 active torsions:
REMARK  status: ('A' for Active; 'I' for Inactive)
REMARK    1  A    between atoms: C_1  and  C_2
REMARK    2  A    between atoms: C_1  and  C_16
REMARK    3  A    between atoms: C_2  and  N_3
REMARK    4  A    between atoms: C_7  and  C_11
REMARK    5  A    between atoms: C_16  and  C_17
REMARK    6  A    between atoms: C_17  and  N_21
REMARK                            x       y       z     vdW  Elec       q    Type
REMARK                         _______ _______ _______ _____ _____    ______ ____
ROOT
ATOM      1  C   UNL     1      31.832 -12.527 -21.814  0.00  0.00    -0.021 C 
ENDROOT
BRANCH   1   2
ATOM      2  C   UNL     1      32.015 -11.397 -20.802  0.00  0.00    -0.077 C 
BRANCH   2   3
ATOM      3  N   UNL     1      31.776 -10.103 -21.437  0.00  0.00    +0.390 N 
ATOM      4  C   UNL     1      32.358  -9.011 -20.651  0.00  0.00    -0.072 C 
ATOM      5  C   UNL     1      32.302 -10.092 -22.811  0.00  0.00    -0.051 C 
ATOM      6  C   UNL     1      31.948  -7.658 -21.253  0.00  0.00    +0.005 C 
ATOM      7  C   UNL     1      32.149  -7.594 -22.751  0.00  0.00    -0.013 C 
ATOM      8  C   UNL     1      32.313  -8.731 -23.453  0.00  0.00    -0.052 C 
ATOM      9  H   UNL     1      30.768  -9.956 -21.479  0.00  0.00    -0.079 HD
BRANCH   7  11
ATOM     10  N   UNL     1      31.477  -5.282 -22.759  0.00  0.00    -0.244 NA
ATOM     11  C   UNL     1      32.152  -6.262 -23.403  0.00  0.00    +0.077 C 
ATOM     12  C   UNL     1      32.822  -6.079 -24.604  0.00  0.00    +0.019 C 
ATOM     13  C   UNL     1      32.796  -4.812 -25.179  0.00  0.00    +0.003 C 
ATOM     14  C   UNL     1      31.474  -4.065 -23.349  0.00  0.00    +0.099 C 
ATOM     15  C   UNL     1      32.112  -3.781 -24.545  0.00  0.00    +0.021 C 
ENDBRANCH   7  11
ENDBRANCH   2   3
ENDBRANCH   1   2
BRANCH   1  16
ATOM     16  C   UNL     1      32.968 -13.550 -21.709  0.00  0.00    +0.020 C 
BRANCH  16  17
ATOM     17  C   UNL     1      33.987 -13.413 -22.836  0.00  0.00    +0.099 C 
BRANCH  17  21
ATOM     18 CL   UNL     1      32.362 -13.628 -25.273  0.00  0.00    -0.062 Cl
ATOM     19  O   UNL     1      35.006 -16.530 -25.769  0.00  0.00    -0.448 OA
ATOM     20  O   UNL     1      35.564 -15.484 -21.901  0.00  0.00    -0.269 OA
ATOM     21  N   UNL     1      34.168 -14.665 -23.584  0.00  0.00    -0.244 N 
ATOM     22  C   UNL     1      34.915 -15.672 -22.933  0.00  0.00    +0.256 C 
ATOM     23  C   UNL     1      33.610 -14.768 -24.857  0.00  0.00    +0.151 C 
ATOM     24  C   UNL     1      34.870 -17.075 -23.411  0.00  0.00    +0.088 C 
ATOM     25  C   UNL     1      34.930 -17.439 -24.753  0.00  0.00    +0.150 C 
ATOM     26  C   UNL     1      33.988 -15.618 -25.819  0.00  0.00    +0.206 C 
ATOM     27  C   UNL     1      34.827 -18.086 -22.437  0.00  0.00    +0.008 C 
ATOM     28  C   UNL     1      34.971 -18.788 -25.124  0.00  0.00    +0.038 C 
ATOM     29  C   UNL     1      34.847 -19.432 -22.806  0.00  0.00    +0.000 C 
ATOM     30  C   UNL     1      34.923 -19.783 -24.150  0.00  0.00    +0.003 C 
ENDBRANCH  17  21
ENDBRANCH  16  17
ENDBRANCH   1  16
TORSDOF 6
ENDMDL
MODEL 5
REMARK VINA RESULT:     -11.7      7.800     13.558
REMARK  Name = 9801640
REMARK  6 active torsions:
REMARK  status: ('A' for Active; 'I' for Inactive)
REMARK    1  A    between atoms: C_1  and  C_2
REMARK    2  A    between atoms: C_1  and  C_16
REMARK    3  A    between atoms: C_2  and  N_3
REMARK    4  A    between atoms: C_7  and  C_11
REMARK    5  A    between atoms: C_16  and  C_17
REMARK    6  A    between atoms: C_17  and  N_21
REMARK                            x       y       z     vdW  Elec       q    Type
REMARK                         _______ _______ _______ _____ _____    ______ ____
ROOT
ATOM      1  C   UNL     1      34.728 -22.676 -18.958  0.00  0.00    -0.021 C 
ENDROOT
BRANCH   1   2
ATOM      2  C   UNL     1      35.917 -21.719 -18.882  0.00  0.00    -0.077 C 
BRANCH   2   3
ATOM      3  N   UNL     1      35.690 -20.558 -19.740  0.00  0.00    +0.390 N 
ATOM      4  C   UNL     1      36.864 -20.275 -20.571  0.00  0.00    -0.072 C 
ATOM      5  C   UNL     1      34.496 -20.755 -20.578  0.00  0.00    -0.051 C 
ATOM      6  C   UNL     1      36.658 -18.959 -21.335  0.00  0.00    +0.005 C 
ATOM      7  C   UNL     1      35.312 -18.878 -22.019  0.00  0.00    -0.013 C 
ATOM      8  C   UNL     1      34.326 -19.719 -21.656  0.00  0.00    -0.052 C 
ATOM      9  H   UNL     1      35.529 -19.750 -19.139  0.00  0.00    -0.079 HD
BRANCH   7  11
ATOM     10  N   UNL     1      35.220 -16.566 -22.684  0.00  0.00    -0.244 NA
ATOM     11  C   UNL     1      35.121 -17.856 -23.077  0.00  0.00    +0.077 C 
ATOM     12  C   UNL     1      34.858 -18.248 -24.382  0.00  0.00    +0.019 C 
ATOM     13  C   UNL     1      34.686 -17.254 -25.340  0.00  0.00    +0.003 C 
ATOM     14  C   UNL     1      35.046 -15.628 -23.642  0.00  0.00    +0.099 C 
ATOM     15  C   UNL     1      34.780 -15.917 -24.971  0.00  0.00    +0.021 C 
ENDBRANCH   7  11
ENDBRANCH   2   3
ENDBRANCH   1   2
BRANCH   1  16
ATOM     16  C   UNL     1      33.827 -22.535 -17.728  0.00  0.00    +0.020 C 
BRANCH  16  17
ATOM     17  C   UNL     1      33.507 -23.877 -17.078  0.00  0.00    +0.099 C 
BRANCH  17  21
ATOM     18 CL   UNL     1      31.348 -22.876 -15.356  0.00  0.00    -0.062 Cl
ATOM     19  O   UNL     1      33.714 -24.700 -12.761  0.00  0.00    -0.448 OA
ATOM     20  O   UNL     1      35.995 -24.585 -16.101  0.00  0.00    -0.269 OA
ATOM     21  N   UNL     1      33.813 -23.893 -15.641  0.00  0.00    -0.244 N 
ATOM     22  C   UNL     1      35.155 -24.172 -15.297  0.00  0.00    +0.256 C 
ATOM     23  C   UNL     1      32.783 -23.644 -14.737  0.00  0.00    +0.151 C 
ATOM     24  C   UNL     1      35.665 -23.873 -13.938  0.00  0.00    +0.088 C 
ATOM     25  C   UNL     1      34.964 -24.149 -12.768  0.00  0.00    +0.150 C 
ATOM     26  C   UNL     1      32.761 -24.001 -13.446  0.00  0.00    +0.206 C 
ATOM     27  C   UNL     1      36.960 -23.336 -13.841  0.00  0.00    +0.008 C 
ATOM     28  C   UNL     1      35.548 -23.919 -11.517  0.00  0.00    +0.038 C 
ATOM     29  C   UNL     1      37.535 -23.086 -12.593  0.00  0.00    +0.000 C 
ATOM     30  C   UNL     1      36.830 -23.382 -11.431  0.00  0.00    +0.003 C 
ENDBRANCH  17  21
ENDBRANCH  16  17
ENDBRANCH   1  16
TORSDOF 6
ENDMDL
MODEL 6
REMARK VINA RESULT:     -11.7      7.870     13.416
REMARK  Name = 9801640
REMARK  6 active torsions:
REMARK  status: ('A' for Active; 'I' for Inactive)
REMARK    1  A    between atoms: C_1  and  C_2
REMARK    2  A    between atoms: C_1  and  C_16
REMARK    3  A    between atoms: C_2  and  N_3
REMARK    4  A    between atoms: C_7  and  C_11
REMARK    5  A    between atoms: C_16  and  C_17
REMARK    6  A    between atoms: C_17  and  N_21
REMARK                            x       y       z     vdW  Elec       q    Type
REMARK                         _______ _______ _______ _____ _____    ______ ____
ROOT
ATOM      1  C   UNL     1      37.160 -21.358 -17.187  0.00  0.00    -0.021 C 
ENDROOT
BRANCH   1   2
ATOM      2  C   UNL     1      36.406 -21.874 -18.412  0.00  0.00    -0.077 C 
BRANCH   2   3
ATOM      3  N   UNL     1      36.082 -20.768 -19.310  0.00  0.00    +0.390 N 
ATOM      4  C   UNL     1      37.196 -20.479 -20.218  0.00  0.00    -0.072 C 
ATOM      5  C   UNL     1      34.855 -21.056 -20.070  0.00  0.00    -0.051 C 
ATOM      6  C   UNL     1      36.892 -19.212 -21.031  0.00  0.00    +0.005 C 
ATOM      7  C   UNL     1      35.509 -19.222 -21.643  0.00  0.00    -0.013 C 
ATOM      8  C   UNL     1      34.582 -20.084 -21.185  0.00  0.00    -0.052 C 
ATOM      9  H   UNL     1      35.918 -19.939 -18.740  0.00  0.00    -0.079 HD
BRANCH   7  11
ATOM     10  N   UNL     1      35.255 -16.952 -22.404  0.00  0.00    -0.244 NA
ATOM     11  C   UNL     1      35.216 -18.263 -22.736  0.00  0.00    +0.077 C 
ATOM     12  C   UNL     1      34.925 -18.730 -24.009  0.00  0.00    +0.019 C 
ATOM     13  C   UNL     1      34.656 -17.794 -25.002  0.00  0.00    +0.003 C 
ATOM     14  C   UNL     1      34.988 -16.071 -23.396  0.00  0.00    +0.099 C 
ATOM     15  C   UNL     1      34.687 -16.437 -24.697  0.00  0.00    +0.021 C 
ENDBRANCH   7  11
ENDBRANCH   2   3
ENDBRANCH   1   2
BRANCH   1  16
ATOM     16  C   UNL     1      36.739 -22.113 -15.922  0.00  0.00    +0.020 C 
BRANCH  16  17
ATOM     17  C   UNL     1      36.112 -23.469 -16.229  0.00  0.00    +0.099 C 
BRANCH  17  21
ATOM     18 CL   UNL     1      36.722 -25.120 -13.877  0.00  0.00    -0.062 Cl
ATOM     19  O   UNL     1      33.141 -23.687 -12.992  0.00  0.00    -0.448 OA
ATOM     20  O   UNL     1      33.539 -22.707 -16.897  0.00  0.00    -0.269 OA
ATOM     21  N   UNL     1      34.956 -23.760 -15.369  0.00  0.00    -0.244 N 
ATOM     22  C   UNL     1      33.692 -23.404 -15.890  0.00  0.00    +0.256 C 
ATOM     23  C   UNL     1      35.181 -24.347 -14.126  0.00  0.00    +0.151 C 
ATOM     24  C   UNL     1      32.449 -23.954 -15.299  0.00  0.00    +0.088 C 
ATOM     25  C   UNL     1      32.220 -24.057 -13.931  0.00  0.00    +0.150 C 
ATOM     26  C   UNL     1      34.351 -24.316 -13.076  0.00  0.00    +0.206 C 
ATOM     27  C   UNL     1      31.426 -24.330 -16.186  0.00  0.00    +0.008 C 
ATOM     28  C   UNL     1      30.986 -24.505 -13.446  0.00  0.00    +0.038 C 
ATOM     29  C   UNL     1      30.202 -24.797 -15.705  0.00  0.00    +0.000 C 
ATOM     30  C   UNL     1      29.981 -24.881 -14.334  0.00  0.00    +0.003 C 
ENDBRANCH  17  21
ENDBRANCH  16  17
ENDBRANCH   1  16
TORSDOF 6
ENDMDL
MODEL 7
REMARK VINA RESULT:     -11.6      5.172      8.352
REMARK  Name = 9801640
REMARK  6 active torsions:
REMARK  status: ('A' for Active; 'I' for Inactive)
REMARK    1  A    between atoms: C_1  and  C_2
REMARK    2  A    between atoms: C_1  and  C_16
REMARK    3  A    between atoms: C_2  and  N_3
REMARK    4  A    between atoms: C_7  and  C_11
REMARK    5  A    between atoms: C_16  and  C_17
REMARK    6  A    between atoms: C_17  and  N_21
REMARK                            x       y       z     vdW  Elec       q    Type
REMARK                         _______ _______ _______ _____ _____    ______ ____
ROOT
ATOM      1  C   UNL     1      35.719 -19.906 -20.791  0.00  0.00    -0.021 C 
ENDROOT
BRANCH   1   2
ATOM      2  C   UNL     1      35.066 -21.261 -20.519  0.00  0.00    -0.077 C 
BRANCH   2   3
ATOM      3  N   UNL     1      35.066 -21.544 -19.086  0.00  0.00    +0.390 N 
ATOM      4  C   UNL     1      34.282 -22.745 -18.783  0.00  0.00    -0.072 C 
ATOM      5  C   UNL     1      36.442 -21.681 -18.581  0.00  0.00    -0.051 C 
ATOM      6  C   UNL     1      34.161 -22.922 -17.262  0.00  0.00    +0.005 C 
ATOM      7  C   UNL     1      35.486 -22.783 -16.546  0.00  0.00    -0.013 C 
ATOM      8  C   UNL     1      36.529 -22.209 -17.174  0.00  0.00    -0.052 C 
ATOM      9  H   UNL     1      34.627 -20.756 -18.610  0.00  0.00    -0.079 HD
BRANCH   7  11
ATOM     10  N   UNL     1      36.790 -23.130 -14.552  0.00  0.00    -0.244 NA
ATOM     11  C   UNL     1      35.589 -23.286 -15.154  0.00  0.00    +0.077 C 
ATOM     12  C   UNL     1      34.491 -23.877 -14.546  0.00  0.00    +0.019 C 
ATOM     13  C   UNL     1      34.635 -24.334 -13.241  0.00  0.00    +0.003 C 
ATOM     14  C   UNL     1      36.893 -23.587 -13.283  0.00  0.00    +0.099 C 
ATOM     15  C   UNL     1      35.856 -24.191 -12.591  0.00  0.00    +0.021 C 
ENDBRANCH   7  11
ENDBRANCH   2   3
ENDBRANCH   1   2
BRANCH   1  16
ATOM     16  C   UNL     1      34.687 -18.885 -21.280  0.00  0.00    +0.020 C 
BRANCH  16  17
ATOM     17  C   UNL     1      35.305 -17.523 -21.579  0.00  0.00    +0.099 C 
BRANCH  17  21
ATOM     18 CL   UNL     1      36.396 -18.951 -23.902  0.00  0.00    -0.062 Cl
ATOM     19  O   UNL     1      33.483 -16.816 -25.521  0.00  0.00    -0.448 OA
ATOM     20  O   UNL     1      33.783 -15.226 -21.813  0.00  0.00    -0.269 OA
ATOM     21  N   UNL     1      34.880 -16.988 -22.881  0.00  0.00    -0.244 N 
ATOM     22  C   UNL     1      34.198 -15.751 -22.849  0.00  0.00    +0.256 C 
ATOM     23  C   UNL     1      35.167 -17.724 -24.029  0.00  0.00    +0.151 C 
ATOM     24  C   UNL     1      34.036 -14.946 -24.082  0.00  0.00    +0.088 C 
ATOM     25  C   UNL     1      33.685 -15.481 -25.318  0.00  0.00    +0.150 C 
ATOM     26  C   UNL     1      34.540 -17.624 -25.208  0.00  0.00    +0.206 C 
ATOM     27  C   UNL     1      34.189 -13.554 -23.967  0.00  0.00    +0.008 C 
ATOM     28  C   UNL     1      33.464 -14.646 -26.419  0.00  0.00    +0.038 C 
ATOM     29  C   UNL     1      33.990 -12.721 -25.070  0.00  0.00    +0.000 C 
ATOM     30  C   UNL     1      33.623 -13.268 -26.296  0.00  0.00    +0.003 C 
ENDBRANCH  17  21
ENDBRANCH  16  17
ENDBRANCH   1  16
TORSDOF 6
ENDMDL
MODEL 8
REMARK VINA RESULT:     -11.6      1.898      2.716
REMARK  Name = 9801640
REMARK  6 active torsions:
REMARK  status: ('A' for Active; 'I' for Inactive)
REMARK    1  A    between atoms: C_1  and  C_2
REMARK    2  A    between atoms: C_1  and  C_16
REMARK    3  A    between atoms: C_2  and  N_3
REMARK    4  A    between atoms: C_7  and  C_11
REMARK    5  A    between atoms: C_16  and  C_17
REMARK    6  A    between atoms: C_17  and  N_21
REMARK                            x       y       z     vdW  Elec       q    Type
REMARK                         _______ _______ _______ _____ _____    ______ ____
ROOT
ATOM      1  C   UNL     1      33.489 -15.188 -25.136  0.00  0.00    -0.021 C 
ENDROOT
BRANCH   1   2
ATOM      2  C   UNL     1      34.799 -15.647 -24.496  0.00  0.00    -0.077 C 
BRANCH   2   3
ATOM      3  N   UNL     1      34.555 -16.767 -23.590  0.00  0.00    +0.390 N 
ATOM      4  C   UNL     1      35.133 -18.008 -24.115  0.00  0.00    -0.072 C 
ATOM      5  C   UNL     1      35.083 -16.476 -22.248  0.00  0.00    -0.051 C 
ATOM      6  C   UNL     1      34.719 -19.193 -23.229  0.00  0.00    +0.005 C 
ATOM      7  C   UNL     1      34.922 -18.925 -21.755  0.00  0.00    -0.013 C 
ATOM      8  C   UNL     1      35.090 -17.662 -21.321  0.00  0.00    -0.052 C 
ATOM      9  H   UNL     1      33.547 -16.898 -23.517  0.00  0.00    -0.079 HD
BRANCH   7  11
ATOM     10  N   UNL     1      33.707 -20.569 -20.482  0.00  0.00    -0.244 NA
ATOM     11  C   UNL     1      34.921 -20.080 -20.824  0.00  0.00    +0.077 C 
ATOM     12  C   UNL     1      36.121 -20.595 -20.356  0.00  0.00    +0.019 C 
ATOM     13  C   UNL     1      36.070 -21.678 -19.484  0.00  0.00    +0.003 C 
ATOM     14  C   UNL     1      33.697 -21.621 -19.633  0.00  0.00    +0.099 C 
ATOM     15  C   UNL     1      34.839 -22.206 -19.111  0.00  0.00    +0.021 C 
ENDBRANCH   7  11
ENDBRANCH   2   3
ENDBRANCH   1   2
BRANCH   1  16
ATOM     16  C   UNL     1      33.104 -13.784 -24.658  0.00  0.00    +0.020 C 
BRANCH  16  17
ATOM     17  C   UNL     1      33.925 -13.327 -23.457  0.00  0.00    +0.099 C 
BRANCH  17  21
ATOM     18 CL   UNL     1      32.059 -14.093 -21.322  0.00  0.00    -0.062 Cl
ATOM     19  O   UNL     1      32.687 -10.263 -20.553  0.00  0.00    -0.448 OA
ATOM     20  O   UNL     1      34.321 -10.701 -24.228  0.00  0.00    -0.269 OA
ATOM     21  N   UNL     1      33.305 -12.197 -22.751  0.00  0.00    -0.244 N 
ATOM     22  C   UNL     1      33.512 -10.921 -23.323  0.00  0.00    +0.256 C 
ATOM     23  C   UNL     1      32.579 -12.454 -21.590  0.00  0.00    +0.151 C 
ATOM     24  C   UNL     1      32.668  -9.769 -22.926  0.00  0.00    +0.088 C 
ATOM     25  C   UNL     1      32.313  -9.484 -21.611  0.00  0.00    +0.150 C 
ATOM     26  C   UNL     1      32.300 -11.572 -20.622  0.00  0.00    +0.206 C 
ATOM     27  C   UNL     1      32.263  -8.889 -23.943  0.00  0.00    +0.008 C 
ATOM     28  C   UNL     1      31.586  -8.328 -21.304  0.00  0.00    +0.038 C 
ATOM     29  C   UNL     1      31.519  -7.746 -23.641  0.00  0.00    +0.000 C 
ATOM     30  C   UNL     1      31.185  -7.464 -22.320  0.00  0.00    +0.003 C 
ENDBRANCH  17  21
ENDBRANCH  16  17
ENDBRANCH   1  16
TORSDOF 6
ENDMDL
MODEL 9
REMARK VINA RESULT:     -11.5      8.597     14.607
REMARK  Name = 9801640
REMARK  6 active torsions:
REMARK  status: ('A' for Active; 'I' for Inactive)
REMARK    1  A    between atoms: C_1  and  C_2
REMARK    2  A    between atoms: C_1  and  C_16
REMARK    3  A    between atoms: C_2  and  N_3
REMARK    4  A    between atoms: C_7  and  C_11
REMARK    5  A    between atoms: C_16  and  C_17
REMARK    6  A    between atoms: C_17  and  N_21
REMARK                            x       y       z     vdW  Elec       q    Type
REMARK                         _______ _______ _______ _____ _____    ______ ____
ROOT
ATOM      1  C   UNL     1      34.303 -23.009 -17.003  0.00  0.00    -0.021 C 
ENDROOT
BRANCH   1   2
ATOM      2  C   UNL     1      33.761 -23.547 -18.327  0.00  0.00    -0.077 C 
BRANCH   2   3
ATOM      3  N   UNL     1      33.983 -22.577 -19.397  0.00  0.00    +0.390 N 
ATOM      4  C   UNL     1      33.006 -21.486 -19.335  0.00  0.00    -0.072 C 
ATOM      5  C   UNL     1      35.356 -22.049 -19.346  0.00  0.00    -0.051 C 
ATOM      6  C   UNL     1      33.159 -20.577 -20.564  0.00  0.00    +0.005 C 
ATOM      7  C   UNL     1      34.595 -20.183 -20.831  0.00  0.00    -0.013 C 
ATOM      8  C   UNL     1      35.596 -20.875 -20.257  0.00  0.00    -0.052 C 
ATOM      9  H   UNL     1      33.859 -23.059 -20.288  0.00  0.00    -0.079 HD
BRANCH   7  11
ATOM     10  N   UNL     1      35.056 -17.840 -21.136  0.00  0.00    -0.244 NA
ATOM     11  C   UNL     1      34.852 -19.036 -21.735  0.00  0.00    +0.077 C 
ATOM     12  C   UNL     1      34.873 -19.225 -23.110  0.00  0.00    +0.019 C 
ATOM     13  C   UNL     1      35.117 -18.120 -23.917  0.00  0.00    +0.003 C 
ATOM     14  C   UNL     1      35.290 -16.788 -21.954  0.00  0.00    +0.099 C 
ATOM     15  C   UNL     1      35.331 -16.875 -23.335  0.00  0.00    +0.021 C 
ENDBRANCH   7  11
ENDBRANCH   2   3
ENDBRANCH   1   2
BRANCH   1  16
ATOM     16  C   UNL     1      33.311 -23.251 -15.862  0.00  0.00    +0.020 C 
BRANCH  16  17
ATOM     17  C   UNL     1      33.427 -24.653 -15.271  0.00  0.00    +0.099 C 
BRANCH  17  21
ATOM     18 CL   UNL     1      33.378 -23.125 -12.763  0.00  0.00    -0.062 Cl
ATOM     19  O   UNL     1      36.352 -25.660 -12.143  0.00  0.00    -0.448 OA
ATOM     20  O   UNL     1      35.634 -26.098 -16.100  0.00  0.00    -0.269 OA
ATOM     21  N   UNL     1      34.625 -24.811 -14.434  0.00  0.00    -0.244 N 
ATOM     22  C   UNL     1      35.712 -25.486 -15.032  0.00  0.00    +0.256 C 
ATOM     23  C   UNL     1      34.603 -24.304 -13.137  0.00  0.00    +0.151 C 
ATOM     24  C   UNL     1      37.070 -25.401 -14.443  0.00  0.00    +0.088 C 
ATOM     25  C   UNL     1      37.332 -25.503 -13.081  0.00  0.00    +0.150 C 
ATOM     26  C   UNL     1      35.393 -24.686 -12.126  0.00  0.00    +0.206 C 
ATOM     27  C   UNL     1      38.150 -25.274 -15.333  0.00  0.00    +0.008 C 
ATOM     28  C   UNL     1      38.650 -25.502 -12.606  0.00  0.00    +0.038 C 
ATOM     29  C   UNL     1      39.464 -25.251 -14.860  0.00  0.00    +0.000 C 
ATOM     30  C   UNL     1      39.713 -25.369 -13.496  0.00  0.00    +0.003 C 
ENDBRANCH  17  21
ENDBRANCH  16  17
ENDBRANCH   1  16
TORSDOF 6
ENDMDL
