MODEL 1
REMARK VINA RESULT:     -14.1      0.000      0.000
REMARK  Name = 5289110
REMARK  6 active torsions:
REMARK  status: ('A' for Active; 'I' for Inactive)
REMARK    1  A    between atoms: C_3  and  C_9
REMARK    2  A    between atoms: C_4  and  C_22
REMARK    3  A    between atoms: N_8  and  C_11
REMARK    4  A    between atoms: C_11  and  C_13
REMARK    5  A    between atoms: N_21  and  C_24
REMARK    6  A    between atoms: C_24  and  C_26
REMARK                            x       y       z     vdW  Elec       q    Type
REMARK                         _______ _______ _______ _____ _____    ______ ____
ROOT
ATOM      1  N   UNL     1      32.998 -13.651 -25.371  0.00  0.00    -0.244 NA
ATOM      2  N   UNL     1      34.090 -15.662 -26.126  0.00  0.00    -0.244 NA
ATOM      3  C   UNL     1      33.204 -14.060 -24.102  0.00  0.00    +0.115 C 
ATOM      4  C   UNL     1      34.248 -15.981 -24.839  0.00  0.00    +0.115 C 
ATOM      5  C   UNL     1      33.838 -15.241 -23.770  0.00  0.00    +0.100 C 
ATOM      6  C   UNL     1      33.459 -14.489 -26.319  0.00  0.00    +0.250 C 
ENDROOT
BRANCH   3   9
ATOM      7  O   UNL     1      32.318 -13.626 -21.975  0.00  0.00    -0.269 OA
ATOM      8  N   UNL     1      32.736 -11.798 -23.338  0.00  0.00    -0.296 N 
ATOM      9  C   UNL     1      32.715 -13.171 -23.063  0.00  0.00    +0.260 C 
ATOM     10  H   UNL     1      33.063 -11.506 -24.219  0.00  0.00    +0.150 HD
BRANCH   8  11
ATOM     11  C   UNL     1      32.304 -10.787 -22.400  0.00  0.00    +0.117 C 
BRANCH  11  13
ATOM     12  F   UNL     1      32.764  -5.603 -24.528  0.00  0.00    -0.205 F 
ATOM     13  C   UNL     1      32.430  -9.403 -22.969  0.00  0.00    -0.003 C 
ATOM     14  C   UNL     1      33.691  -8.868 -23.206  0.00  0.00    -0.005 C 
ATOM     15  C   UNL     1      33.808  -7.582 -23.734  0.00  0.00    +0.005 C 
ATOM     16  C   UNL     1      31.284  -8.670 -23.253  0.00  0.00    -0.000 C 
ATOM     17  C   UNL     1      32.662  -6.840 -24.021  0.00  0.00    +0.136 C 
ATOM     18  C   UNL     1      31.401  -7.384 -23.781  0.00  0.00    +0.029 C 
ATOM     19  C   UNL     1      35.159  -7.004 -23.991  0.00  0.00    +0.033 C 
ENDBRANCH  11  13
ENDBRANCH   8  11
ENDBRANCH   3   9
BRANCH   4  22
ATOM     20  O   UNL     1      34.928 -18.130 -25.485  0.00  0.00    -0.269 OA
ATOM     21  N   UNL     1      35.585 -17.406 -23.382  0.00  0.00    -0.296 N 
ATOM     22  C   UNL     1      34.941 -17.274 -24.604  0.00  0.00    +0.260 C 
ATOM     23  H   UNL     1      35.538 -16.662 -22.740  0.00  0.00    +0.150 HD
BRANCH  21  24
ATOM     24  C   UNL     1      36.320 -18.590 -23.017  0.00  0.00    +0.117 C 
BRANCH  24  26
ATOM     25  F   UNL     1      33.665 -21.618 -19.094  0.00  0.00    -0.205 F 
ATOM     26  C   UNL     1      35.618 -19.395 -21.975  0.00  0.00    -0.003 C 
ATOM     27  C   UNL     1      36.355 -20.095 -21.020  0.00  0.00    -0.005 C 
ATOM     28  C   UNL     1      35.698 -20.847 -20.046  0.00  0.00    +0.005 C 
ATOM     29  C   UNL     1      34.225 -19.445 -21.955  0.00  0.00    -0.000 C 
ATOM     30  C   UNL     1      34.305 -20.898 -20.027  0.00  0.00    +0.136 C 
ATOM     31  C   UNL     1      33.568 -20.197 -20.982  0.00  0.00    +0.029 C 
ATOM     32  C   UNL     1      36.490 -21.594 -19.026  0.00  0.00    +0.033 C 
ENDBRANCH  24  26
ENDBRANCH  21  24
ENDBRANCH   4  22
TORSDOF 6
ENDMDL
MODEL 2
REMARK VINA RESULT:     -14.1      0.030     10.578
REMARK  Name = 5289110
REMARK  6 active torsions:
REMARK  status: ('A' for Active; 'I' for Inactive)
REMARK    1  A    between atoms: C_3  and  C_9
REMARK    2  A    between atoms: C_4  and  C_22
REMARK    3  A    between atoms: N_8  and  C_11
REMARK    4  A    between atoms: C_11  and  C_13
REMARK    5  A    between atoms: N_21  and  C_24
REMARK    6  A    between atoms: C_24  and  C_26
REMARK                            x       y       z     vdW  Elec       q    Type
REMARK                         _______ _______ _______ _____ _____    ______ ____
ROOT
ATOM      1  N   UNL     1      34.111 -15.648 -26.114  0.00  0.00    -0.244 NA
ATOM      2  N   UNL     1      33.010 -13.641 -25.360  0.00  0.00    -0.244 NA
ATOM      3  C   UNL     1      34.282 -15.995 -24.822  0.00  0.00    +0.115 C 
ATOM      4  C   UNL     1      33.226 -14.071 -24.114  0.00  0.00    +0.115 C 
ATOM      5  C   UNL     1      33.850 -15.229 -23.758  0.00  0.00    +0.100 C 
ATOM      6  C   UNL     1      33.477 -14.476 -26.308  0.00  0.00    +0.250 C 
ENDROOT
BRANCH   3   9
ATOM      7  O   UNL     1      34.962 -18.147 -25.459  0.00  0.00    -0.269 OA
ATOM      8  N   UNL     1      35.627 -17.406 -23.366  0.00  0.00    -0.296 N 
ATOM      9  C   UNL     1      34.963 -17.257 -24.590  0.00  0.00    +0.260 C 
ATOM     10  H   UNL     1      35.588 -16.662 -22.723  0.00  0.00    +0.150 HD
BRANCH   8  11
ATOM     11  C   UNL     1      36.368 -18.590 -22.996  0.00  0.00    +0.117 C 
BRANCH  11  13
ATOM     12  F   UNL     1      33.669 -21.617 -19.101  0.00  0.00    -0.205 F 
ATOM     13  C   UNL     1      35.650 -19.399 -21.954  0.00  0.00    -0.003 C 
ATOM     14  C   UNL     1      36.380 -20.091 -20.995  0.00  0.00    -0.005 C 
ATOM     15  C   UNL     1      35.713 -20.842 -20.027  0.00  0.00    +0.005 C 
ATOM     16  C   UNL     1      34.260 -19.449 -21.960  0.00  0.00    -0.000 C 
ATOM     17  C   UNL     1      34.319 -20.897 -20.026  0.00  0.00    +0.136 C 
ATOM     18  C   UNL     1      33.593 -20.200 -20.992  0.00  0.00    +0.029 C 
ATOM     19  C   UNL     1      36.493 -21.584 -18.995  0.00  0.00    +0.033 C 
ENDBRANCH  11  13
ENDBRANCH   8  11
ENDBRANCH   3   9
BRANCH   4  22
ATOM     20  O   UNL     1      32.335 -13.640 -21.988  0.00  0.00    -0.269 OA
ATOM     21  N   UNL     1      32.745 -11.807 -23.348  0.00  0.00    -0.296 N 
ATOM     22  C   UNL     1      32.720 -13.163 -23.053  0.00  0.00    +0.260 C 
ATOM     23  H   UNL     1      33.073 -11.521 -24.231  0.00  0.00    +0.150 HD
BRANCH  21  24
ATOM     24  C   UNL     1      32.310 -10.801 -22.413  0.00  0.00    +0.117 C 
BRANCH  24  26
ATOM     25  F   UNL     1      32.782  -5.599 -24.490  0.00  0.00    -0.205 F 
ATOM     26  C   UNL     1      32.439  -9.421 -22.964  0.00  0.00    -0.003 C 
ATOM     27  C   UNL     1      33.702  -8.875 -23.192  0.00  0.00    -0.005 C 
ATOM     28  C   UNL     1      33.821  -7.584 -23.708  0.00  0.00    +0.005 C 
ATOM     29  C   UNL     1      31.295  -8.676 -23.252  0.00  0.00    -0.000 C 
ATOM     30  C   UNL     1      32.677  -6.840 -23.995  0.00  0.00    +0.136 C 
ATOM     31  C   UNL     1      31.414  -7.385 -23.766  0.00  0.00    +0.029 C 
ATOM     32  C   UNL     1      35.174  -7.004 -23.951  0.00  0.00    +0.033 C 
ENDBRANCH  24  26
ENDBRANCH  21  24
ENDBRANCH   4  22
TORSDOF 6
ENDMDL
MODEL 3
REMARK VINA RESULT:     -13.6      1.219      1.583
REMARK  Name = 5289110
REMARK  6 active torsions:
REMARK  status: ('A' for Active; 'I' for Inactive)
REMARK    1  A    between atoms: C_3  and  C_9
REMARK    2  A    between atoms: C_4  and  C_22
REMARK    3  A    between atoms: N_8  and  C_11
REMARK    4  A    between atoms: C_11  and  C_13
REMARK    5  A    between atoms: N_21  and  C_24
REMARK    6  A    between atoms: C_24  and  C_26
REMARK                            x       y       z     vdW  Elec       q    Type
REMARK                         _______ _______ _______ _____ _____    ______ ____
ROOT
ATOM      1  N   UNL     1      32.942 -13.404 -24.492  0.00  0.00    -0.244 NA
ATOM      2  N   UNL     1      34.013 -15.314 -25.497  0.00  0.00    -0.244 NA
ATOM      3  C   UNL     1      33.164 -13.961 -23.284  0.00  0.00    +0.115 C 
ATOM      4  C   UNL     1      34.187 -15.784 -24.259  0.00  0.00    +0.115 C 
ATOM      5  C   UNL     1      33.797 -15.175 -23.104  0.00  0.00    +0.100 C 
ATOM      6  C   UNL     1      33.385 -14.124 -25.540  0.00  0.00    +0.250 C 
ENDROOT
BRANCH   3   9
ATOM      7  O   UNL     1      33.196 -13.373 -21.014  0.00  0.00    -0.269 OA
ATOM      8  N   UNL     1      31.680 -12.263 -22.371  0.00  0.00    -0.296 N 
ATOM      9  C   UNL     1      32.694 -13.201 -22.139  0.00  0.00    +0.260 C 
ATOM     10  H   UNL     1      31.327 -12.177 -23.286  0.00  0.00    +0.150 HD
BRANCH   8  11
ATOM     11  C   UNL     1      31.123 -11.415 -21.342  0.00  0.00    +0.117 C 
BRANCH  11  13
ATOM     12  F   UNL     1      32.906  -6.103 -21.798  0.00  0.00    -0.205 F 
ATOM     13  C   UNL     1      31.597  -9.996 -21.466  0.00  0.00    -0.003 C 
ATOM     14  C   UNL     1      31.416  -9.312 -22.662  0.00  0.00    -0.005 C 
ATOM     15  C   UNL     1      31.857  -7.994 -22.778  0.00  0.00    +0.005 C 
ATOM     16  C   UNL     1      32.215  -9.381 -20.383  0.00  0.00    -0.000 C 
ATOM     17  C   UNL     1      32.478  -7.369 -21.696  0.00  0.00    +0.136 C 
ATOM     18  C   UNL     1      32.656  -8.062 -20.499  0.00  0.00    +0.029 C 
ATOM     19  C   UNL     1      31.664  -7.255 -24.059  0.00  0.00    +0.033 C 
ENDBRANCH  11  13
ENDBRANCH   8  11
ENDBRANCH   3   9
BRANCH   4  22
ATOM     20  O   UNL     1      34.974 -17.779 -25.208  0.00  0.00    -0.269 OA
ATOM     21  N   UNL     1      35.392 -17.450 -22.951  0.00  0.00    -0.296 N 
ATOM     22  C   UNL     1      34.877 -17.098 -24.190  0.00  0.00    +0.260 C 
ATOM     23  H   UNL     1      35.264 -16.836 -22.192  0.00  0.00    +0.150 HD
BRANCH  21  24
ATOM     24  C   UNL     1      36.108 -18.681 -22.730  0.00  0.00    +0.117 C 
BRANCH  24  26
ATOM     25  F   UNL     1      33.648 -21.905 -18.837  0.00  0.00    -0.205 F 
ATOM     26  C   UNL     1      35.458 -19.538 -21.695  0.00  0.00    -0.003 C 
ATOM     27  C   UNL     1      36.240 -20.233 -20.774  0.00  0.00    -0.005 C 
ATOM     28  C   UNL     1      35.632 -21.034 -19.807  0.00  0.00    +0.005 C 
ATOM     29  C   UNL     1      34.068 -19.642 -21.650  0.00  0.00    -0.000 C 
ATOM     30  C   UNL     1      34.242 -21.138 -19.762  0.00  0.00    +0.136 C 
ATOM     31  C   UNL     1      33.460 -20.442 -20.684  0.00  0.00    +0.029 C 
ATOM     32  C   UNL     1      36.471 -21.776 -18.822  0.00  0.00    +0.033 C 
ENDBRANCH  24  26
ENDBRANCH  21  24
ENDBRANCH   4  22
TORSDOF 6
ENDMDL
MODEL 4
REMARK VINA RESULT:     -13.5      2.470      4.121
REMARK  Name = 5289110
REMARK  6 active torsions:
REMARK  status: ('A' for Active; 'I' for Inactive)
REMARK    1  A    between atoms: C_3  and  C_9
REMARK    2  A    between atoms: C_4  and  C_22
REMARK    3  A    between atoms: N_8  and  C_11
REMARK    4  A    between atoms: C_11  and  C_13
REMARK    5  A    between atoms: N_21  and  C_24
REMARK    6  A    between atoms: C_24  and  C_26
REMARK                            x       y       z     vdW  Elec       q    Type
REMARK                         _______ _______ _______ _____ _____    ______ ____
ROOT
ATOM      1  N   UNL     1      34.332 -18.125 -25.274  0.00  0.00    -0.244 NA
ATOM      2  N   UNL     1      35.086 -19.664 -23.581  0.00  0.00    -0.244 NA
ATOM      3  C   UNL     1      34.632 -17.112 -24.435  0.00  0.00    +0.115 C 
ATOM      4  C   UNL     1      35.352 -18.597 -22.823  0.00  0.00    +0.115 C 
ATOM      5  C   UNL     1      35.157 -17.293 -23.171  0.00  0.00    +0.100 C 
ATOM      6  C   UNL     1      34.579 -19.356 -24.790  0.00  0.00    +0.250 C 
ENDROOT
BRANCH   3   9
ATOM      7  O   UNL     1      34.282 -15.563 -26.161  0.00  0.00    -0.269 OA
ATOM      8  N   UNL     1      34.212 -14.758 -23.988  0.00  0.00    -0.296 N 
ATOM      9  C   UNL     1      34.373 -15.775 -24.938  0.00  0.00    +0.260 C 
ATOM     10  H   UNL     1      34.297 -14.994 -23.036  0.00  0.00    +0.150 HD
BRANCH   8  11
ATOM     11  C   UNL     1      33.928 -13.382 -24.328  0.00  0.00    +0.117 C 
BRANCH  11  13
ATOM     12  F   UNL     1      30.980 -10.800 -20.297  0.00  0.00    -0.205 F 
ATOM     13  C   UNL     1      33.140 -12.690 -23.253  0.00  0.00    -0.003 C 
ATOM     14  C   UNL     1      32.893 -11.326 -23.351  0.00  0.00    -0.005 C 
ATOM     15  C   UNL     1      32.161 -10.683 -22.352  0.00  0.00    +0.005 C 
ATOM     16  C   UNL     1      32.667 -13.421 -22.169  0.00  0.00    -0.000 C 
ATOM     17  C   UNL     1      31.682 -11.409 -21.261  0.00  0.00    +0.136 C 
ATOM     18  C   UNL     1      31.935 -12.778 -21.170  0.00  0.00    +0.029 C 
ATOM     19  C   UNL     1      31.892  -9.219 -22.454  0.00  0.00    +0.033 C 
ENDBRANCH  11  13
ENDBRANCH   8  11
ENDBRANCH   3   9
BRANCH   4  22
ATOM     20  O   UNL     1      36.130 -18.001 -20.693  0.00  0.00    -0.269 OA
ATOM     21  N   UNL     1      36.124 -20.260 -21.217  0.00  0.00    -0.296 N 
ATOM     22  C   UNL     1      35.910 -18.916 -21.484  0.00  0.00    +0.260 C 
ATOM     23  H   UNL     1      35.916 -20.921 -21.917  0.00  0.00    +0.150 HD
BRANCH  21  24
ATOM     24  C   UNL     1      36.637 -20.729 -19.955  0.00  0.00    +0.117 C 
BRANCH  24  26
ATOM     25  F   UNL     1      32.799 -23.624 -17.041  0.00  0.00    -0.205 F 
ATOM     26  C   UNL     1      35.621 -21.498 -19.179  0.00  0.00    -0.003 C 
ATOM     27  C   UNL     1      35.961 -22.060 -17.949  0.00  0.00    -0.005 C 
ATOM     28  C   UNL     1      35.010 -22.779 -17.225  0.00  0.00    +0.005 C 
ATOM     29  C   UNL     1      34.330 -21.653 -19.684  0.00  0.00    -0.000 C 
ATOM     30  C   UNL     1      33.720 -22.935 -17.730  0.00  0.00    +0.136 C 
ATOM     31  C   UNL     1      33.380 -22.372 -18.960  0.00  0.00    +0.029 C 
ATOM     32  C   UNL     1      35.377 -23.379 -15.909  0.00  0.00    +0.033 C 
ENDBRANCH  24  26
ENDBRANCH  21  24
ENDBRANCH   4  22
TORSDOF 6
ENDMDL
MODEL 5
REMARK VINA RESULT:     -12.9      3.669     11.506
REMARK  Name = 5289110
REMARK  6 active torsions:
REMARK  status: ('A' for Active; 'I' for Inactive)
REMARK    1  A    between atoms: C_3  and  C_9
REMARK    2  A    between atoms: C_4  and  C_22
REMARK    3  A    between atoms: N_8  and  C_11
REMARK    4  A    between atoms: C_11  and  C_13
REMARK    5  A    between atoms: N_21  and  C_24
REMARK    6  A    between atoms: C_24  and  C_26
REMARK                            x       y       z     vdW  Elec       q    Type
REMARK                         _______ _______ _______ _____ _____    ______ ____
ROOT
ATOM      1  N   UNL     1      36.045 -20.576 -20.000  0.00  0.00    -0.244 NA
ATOM      2  N   UNL     1      36.614 -18.916 -21.651  0.00  0.00    -0.244 NA
ATOM      3  C   UNL     1      34.786 -20.573 -20.484  0.00  0.00    +0.115 C 
ATOM      4  C   UNL     1      35.344 -18.984 -22.060  0.00  0.00    +0.115 C 
ATOM      5  C   UNL     1      34.370 -19.781 -21.536  0.00  0.00    +0.100 C 
ATOM      6  C   UNL     1      36.894 -19.735 -20.621  0.00  0.00    +0.250 C 
ENDROOT
BRANCH   3   9
ATOM      7  O   UNL     1      32.693 -21.605 -20.257  0.00  0.00    -0.269 OA
ATOM      8  N   UNL     1      34.330 -22.189 -18.723  0.00  0.00    -0.296 N 
ATOM      9  C   UNL     1      33.854 -21.473 -19.829  0.00  0.00    +0.260 C 
ATOM     10  H   UNL     1      35.259 -22.037 -18.437  0.00  0.00    +0.150 HD
BRANCH   8  11
ATOM     11  C   UNL     1      33.533 -23.138 -17.980  0.00  0.00    +0.117 C 
BRANCH  11  13
ATOM     12  F   UNL     1      35.518 -23.952 -12.783  0.00  0.00    -0.205 F 
ATOM     13  C   UNL     1      34.066 -23.354 -16.593  0.00  0.00    -0.003 C 
ATOM     14  C   UNL     1      35.421 -23.179 -16.341  0.00  0.00    -0.005 C 
ATOM     15  C   UNL     1      35.916 -23.379 -15.052  0.00  0.00    +0.005 C 
ATOM     16  C   UNL     1      33.197 -23.729 -15.574  0.00  0.00    -0.000 C 
ATOM     17  C   UNL     1      35.051 -23.755 -14.024  0.00  0.00    +0.136 C 
ATOM     18  C   UNL     1      33.692 -23.929 -14.285  0.00  0.00    +0.029 C 
ATOM     19  C   UNL     1      37.370 -23.191 -14.776  0.00  0.00    +0.033 C 
ENDBRANCH  11  13
ENDBRANCH   8  11
ENDBRANCH   3   9
BRANCH   4  22
ATOM     20  O   UNL     1      34.281 -18.497 -24.093  0.00  0.00    -0.269 OA
ATOM     21  N   UNL     1      35.553 -16.808 -23.140  0.00  0.00    -0.296 N 
ATOM     22  C   UNL     1      35.013 -18.085 -23.196  0.00  0.00    +0.260 C 
ATOM     23  H   UNL     1      36.129 -16.571 -22.377  0.00  0.00    +0.150 HD
BRANCH  21  24
ATOM     24  C   UNL     1      35.303 -15.815 -24.153  0.00  0.00    +0.117 C 
BRANCH  24  26
ATOM     25  F   UNL     1      31.955 -11.682 -22.333  0.00  0.00    -0.205 F 
ATOM     26  C   UNL     1      34.414 -14.720 -23.667  0.00  0.00    -0.003 C 
ATOM     27  C   UNL     1      33.803 -14.819 -22.417  0.00  0.00    -0.005 C 
ATOM     28  C   UNL     1      32.972 -13.795 -21.964  0.00  0.00    +0.005 C 
ATOM     29  C   UNL     1      34.194 -13.596 -24.463  0.00  0.00    -0.000 C 
ATOM     30  C   UNL     1      32.752 -12.672 -22.760  0.00  0.00    +0.136 C 
ATOM     31  C   UNL     1      33.363 -12.572 -24.010  0.00  0.00    +0.029 C 
ATOM     32  C   UNL     1      32.320 -13.905 -20.626  0.00  0.00    +0.033 C 
ENDBRANCH  24  26
ENDBRANCH  21  24
ENDBRANCH   4  22
TORSDOF 6
ENDMDL
MODEL 6
REMARK VINA RESULT:     -12.8      3.679      6.535
REMARK  Name = 5289110
REMARK  6 active torsions:
REMARK  status: ('A' for Active; 'I' for Inactive)
REMARK    1  A    between atoms: C_3  and  C_9
REMARK    2  A    between atoms: C_4  and  C_22
REMARK    3  A    between atoms: N_8  and  C_11
REMARK    4  A    between atoms: C_11  and  C_13
REMARK    5  A    between atoms: N_21  and  C_24
REMARK    6  A    between atoms: C_24  and  C_26
REMARK                            x       y       z     vdW  Elec       q    Type
REMARK                         _______ _______ _______ _____ _____    ______ ____
ROOT
ATOM      1  N   UNL     1      36.652 -18.985 -21.637  0.00  0.00    -0.244 NA
ATOM      2  N   UNL     1      36.038 -20.616 -19.973  0.00  0.00    -0.244 NA
ATOM      3  C   UNL     1      35.378 -19.012 -22.080  0.00  0.00    +0.115 C 
ATOM      4  C   UNL     1      34.804 -20.573 -20.482  0.00  0.00    +0.115 C 
ATOM      5  C   UNL     1      34.390 -19.803 -21.528  0.00  0.00    +0.100 C 
ATOM      6  C   UNL     1      36.909 -19.800 -20.597  0.00  0.00    +0.250 C 
ENDROOT
BRANCH   3   9
ATOM      7  O   UNL     1      34.443 -18.563 -24.183  0.00  0.00    -0.269 OA
ATOM      8  N   UNL     1      35.517 -16.812 -23.109  0.00  0.00    -0.296 N 
ATOM      9  C   UNL     1      35.079 -18.139 -23.201  0.00  0.00    +0.260 C 
ATOM     10  H   UNL     1      36.015 -16.541 -22.305  0.00  0.00    +0.150 HD
BRANCH   8  11
ATOM     11  C   UNL     1      35.278 -15.817 -24.130  0.00  0.00    +0.117 C 
BRANCH  11  13
ATOM     12  F   UNL     1      31.956 -11.666 -22.300  0.00  0.00    -0.205 F 
ATOM     13  C   UNL     1      34.391 -14.709 -23.638  0.00  0.00    -0.003 C 
ATOM     14  C   UNL     1      33.795 -14.809 -22.387  0.00  0.00    -0.005 C 
ATOM     15  C   UNL     1      32.972 -13.780 -21.930  0.00  0.00    +0.005 C 
ATOM     16  C   UNL     1      34.173 -13.596 -24.442  0.00  0.00    -0.000 C 
ATOM     17  C   UNL     1      32.748 -12.659 -22.730  0.00  0.00    +0.136 C 
ATOM     18  C   UNL     1      33.349 -12.567 -23.985  0.00  0.00    +0.029 C 
ATOM     19  C   UNL     1      32.331 -13.881 -20.586  0.00  0.00    +0.033 C 
ENDBRANCH  11  13
ENDBRANCH   8  11
ENDBRANCH   3   9
BRANCH   4  22
ATOM     20  O   UNL     1      32.697 -21.581 -20.275  0.00  0.00    -0.269 OA
ATOM     21  N   UNL     1      34.292 -22.142 -18.688  0.00  0.00    -0.296 N 
ATOM     22  C   UNL     1      33.828 -21.468 -19.809  0.00  0.00    +0.260 C 
ATOM     23  H   UNL     1      35.217 -21.985 -18.391  0.00  0.00    +0.150 HD
BRANCH  21  24
ATOM     24  C   UNL     1      33.472 -23.063 -17.942  0.00  0.00    +0.117 C 
BRANCH  24  26
ATOM     25  F   UNL     1      35.479 -24.027 -12.780  0.00  0.00    -0.205 F 
ATOM     26  C   UNL     1      34.008 -23.318 -16.573  0.00  0.00    -0.003 C 
ATOM     27  C   UNL     1      35.360 -23.108 -16.302  0.00  0.00    -0.005 C 
ATOM     28  C   UNL     1      35.860 -23.347 -15.022  0.00  0.00    +0.005 C 
ATOM     29  C   UNL     1      33.156 -23.766 -15.564  0.00  0.00    -0.000 C 
ATOM     30  C   UNL     1      35.008 -23.795 -14.013  0.00  0.00    +0.136 C 
ATOM     31  C   UNL     1      33.656 -24.005 -14.284  0.00  0.00    +0.029 C 
ATOM     32  C   UNL     1      37.306 -23.121 -14.736  0.00  0.00    +0.033 C 
ENDBRANCH  24  26
ENDBRANCH  21  24
ENDBRANCH   4  22
TORSDOF 6
ENDMDL
MODEL 7
REMARK VINA RESULT:     -12.8      3.844      6.420
REMARK  Name = 5289110
REMARK  6 active torsions:
REMARK  status: ('A' for Active; 'I' for Inactive)
REMARK    1  A    between atoms: C_3  and  C_9
REMARK    2  A    between atoms: C_4  and  C_22
REMARK    3  A    between atoms: N_8  and  C_11
REMARK    4  A    between atoms: C_11  and  C_13
REMARK    5  A    between atoms: N_21  and  C_24
REMARK    6  A    between atoms: C_24  and  C_26
REMARK                            x       y       z     vdW  Elec       q    Type
REMARK                         _______ _______ _______ _____ _____    ______ ____
ROOT
ATOM      1  N   UNL     1      36.825 -18.802 -21.179  0.00  0.00    -0.244 NA
ATOM      2  N   UNL     1      36.088 -20.620 -19.778  0.00  0.00    -0.244 NA
ATOM      3  C   UNL     1      35.586 -18.760 -21.711  0.00  0.00    +0.115 C 
ATOM      4  C   UNL     1      34.894 -20.500 -20.365  0.00  0.00    +0.115 C 
ATOM      5  C   UNL     1      34.559 -19.602 -21.334  0.00  0.00    +0.100 C 
ATOM      6  C   UNL     1      37.004 -19.743 -20.232  0.00  0.00    +0.250 C 
ENDROOT
BRANCH   3   9
ATOM      7  O   UNL     1      35.363 -18.062 -23.939  0.00  0.00    -0.269 OA
ATOM      8  N   UNL     1      35.155 -16.438 -22.298  0.00  0.00    -0.296 N 
ATOM      9  C   UNL     1      35.371 -17.752 -22.735  0.00  0.00    +0.260 C 
ATOM     10  H   UNL     1      35.174 -16.261 -21.330  0.00  0.00    +0.150 HD
BRANCH   8  11
ATOM     11  C   UNL     1      34.904 -15.329 -23.190  0.00  0.00    +0.117 C 
BRANCH  11  13
ATOM     12  F   UNL     1      31.256 -11.660 -20.991  0.00  0.00    -0.205 F 
ATOM     13  C   UNL     1      33.929 -14.348 -22.606  0.00  0.00    -0.003 C 
ATOM     14  C   UNL     1      33.751 -13.111 -23.213  0.00  0.00    -0.005 C 
ATOM     15  C   UNL     1      32.846 -12.199 -22.670  0.00  0.00    +0.005 C 
ATOM     16  C   UNL     1      33.216 -14.686 -21.461  0.00  0.00    -0.000 C 
ATOM     17  C   UNL     1      32.126 -12.530 -21.521  0.00  0.00    +0.136 C 
ATOM     18  C   UNL     1      32.311 -13.774 -20.918  0.00  0.00    +0.029 C 
ATOM     19  C   UNL     1      32.649 -10.870 -23.319  0.00  0.00    +0.033 C 
ENDBRANCH  11  13
ENDBRANCH   8  11
ENDBRANCH   3   9
BRANCH   4  22
ATOM     20  O   UNL     1      32.681 -21.223 -20.083  0.00  0.00    -0.269 OA
ATOM     21  N   UNL     1      34.351 -22.592 -19.237  0.00  0.00    -0.296 N 
ATOM     22  C   UNL     1      33.869 -21.460 -19.879  0.00  0.00    +0.260 C 
ATOM     23  H   UNL     1      35.324 -22.693 -19.122  0.00  0.00    +0.150 HD
BRANCH  21  24
ATOM     24  C   UNL     1      33.484 -23.626 -18.732  0.00  0.00    +0.117 C 
BRANCH  24  26
ATOM     25  F   UNL     1      32.191 -22.865 -13.314  0.00  0.00    -0.205 F 
ATOM     26  C   UNL     1      33.138 -23.423 -17.295  0.00  0.00    -0.003 C 
ATOM     27  C   UNL     1      31.811 -23.211 -16.920  0.00  0.00    -0.005 C 
ATOM     28  C   UNL     1      31.489 -23.022 -15.576  0.00  0.00    +0.005 C 
ATOM     29  C   UNL     1      34.141 -23.448 -16.326  0.00  0.00    -0.000 C 
ATOM     30  C   UNL     1      32.492 -23.046 -14.608  0.00  0.00    +0.136 C 
ATOM     31  C   UNL     1      33.818 -23.259 -14.983  0.00  0.00    +0.029 C 
ATOM     32  C   UNL     1      30.069 -22.795 -15.178  0.00  0.00    +0.033 C 
ENDBRANCH  24  26
ENDBRANCH  21  24
ENDBRANCH   4  22
TORSDOF 6
ENDMDL
MODEL 8
REMARK VINA RESULT:     -12.7      2.507      4.392
REMARK  Name = 5289110
REMARK  6 active torsions:
REMARK  status: ('A' for Active; 'I' for Inactive)
REMARK    1  A    between atoms: C_3  and  C_9
REMARK    2  A    between atoms: C_4  and  C_22
REMARK    3  A    between atoms: N_8  and  C_11
REMARK    4  A    between atoms: C_11  and  C_13
REMARK    5  A    between atoms: N_21  and  C_24
REMARK    6  A    between atoms: C_24  and  C_26
REMARK                            x       y       z     vdW  Elec       q    Type
REMARK                         _______ _______ _______ _____ _____    ______ ____
ROOT
ATOM      1  N   UNL     1      31.713 -10.952 -21.042  0.00  0.00    -0.244 NA
ATOM      2  N   UNL     1      32.423 -13.010 -22.074  0.00  0.00    -0.244 NA
ATOM      3  C   UNL     1      32.227 -10.288 -22.098  0.00  0.00    +0.115 C 
ATOM      4  C   UNL     1      32.902 -12.266 -23.074  0.00  0.00    +0.115 C 
ATOM      5  C   UNL     1      32.846 -10.907 -23.166  0.00  0.00    +0.100 C 
ATOM      6  C   UNL     1      31.844 -12.291 -21.094  0.00  0.00    +0.250 C 
ENDROOT
BRANCH   3   9
ATOM      7  O   UNL     1      32.065  -8.235 -20.977  0.00  0.00    -0.269 OA
ATOM      8  N   UNL     1      32.031  -8.179 -23.294  0.00  0.00    -0.296 N 
ATOM      9  C   UNL     1      32.096  -8.842 -22.062  0.00  0.00    +0.260 C 
ATOM     10  H   UNL     1      32.060  -8.720 -24.115  0.00  0.00    +0.150 HD
BRANCH   8  11
ATOM     11  C   UNL     1      31.922  -6.744 -23.426  0.00  0.00    +0.117 C 
BRANCH  11  13
ATOM     12  F   UNL     1      35.723  -4.680 -27.018  0.00  0.00    -0.205 F 
ATOM     13  C   UNL     1      32.936  -6.190 -24.386  0.00  0.00    -0.003 C 
ATOM     14  C   UNL     1      32.560  -5.205 -25.291  0.00  0.00    -0.005 C 
ATOM     15  C   UNL     1      33.501  -4.690 -26.183  0.00  0.00    +0.005 C 
ATOM     16  C   UNL     1      34.240  -6.670 -24.361  0.00  0.00    -0.000 C 
ATOM     17  C   UNL     1      34.813  -5.167 -26.164  0.00  0.00    +0.136 C 
ATOM     18  C   UNL     1      35.181  -6.156 -25.253  0.00  0.00    +0.029 C 
ATOM     19  C   UNL     1      33.103  -3.631 -27.155  0.00  0.00    +0.033 C 
ENDBRANCH  11  13
ENDBRANCH   8  11
ENDBRANCH   3   9
BRANCH   4  22
ATOM     20  O   UNL     1      34.176 -12.443 -25.035  0.00  0.00    -0.269 OA
ATOM     21  N   UNL     1      33.404 -14.420 -24.099  0.00  0.00    -0.296 N 
ATOM     22  C   UNL     1      33.547 -13.041 -24.165  0.00  0.00    +0.260 C 
ATOM     23  H   UNL     1      32.880 -14.807 -23.361  0.00  0.00    +0.150 HD
BRANCH  21  24
ATOM     24  C   UNL     1      33.992 -15.308 -25.070  0.00  0.00    +0.117 C 
BRANCH  24  26
ATOM     25  F   UNL     1      35.427 -20.268 -22.848  0.00  0.00    -0.205 F 
ATOM     26  C   UNL     1      34.374 -16.623 -24.477  0.00  0.00    -0.003 C 
ATOM     27  C   UNL     1      34.881 -16.683 -23.179  0.00  0.00    -0.005 C 
ATOM     28  C   UNL     1      35.237 -17.913 -22.626  0.00  0.00    +0.005 C 
ATOM     29  C   UNL     1      34.223 -17.793 -25.221  0.00  0.00    -0.000 C 
ATOM     30  C   UNL     1      35.087 -19.082 -23.371  0.00  0.00    +0.136 C 
ATOM     31  C   UNL     1      34.580 -19.022 -24.669  0.00  0.00    +0.029 C 
ATOM     32  C   UNL     1      35.779 -17.973 -21.237  0.00  0.00    +0.033 C 
ENDBRANCH  24  26
ENDBRANCH  21  24
ENDBRANCH   4  22
TORSDOF 6
ENDMDL
MODEL 9
REMARK VINA RESULT:     -12.7      2.490     11.336
REMARK  Name = 5289110
REMARK  6 active torsions:
REMARK  status: ('A' for Active; 'I' for Inactive)
REMARK    1  A    between atoms: C_3  and  C_9
REMARK    2  A    between atoms: C_4  and  C_22
REMARK    3  A    between atoms: N_8  and  C_11
REMARK    4  A    between atoms: C_11  and  C_13
REMARK    5  A    between atoms: N_21  and  C_24
REMARK    6  A    between atoms: C_24  and  C_26
REMARK                            x       y       z     vdW  Elec       q    Type
REMARK                         _______ _______ _______ _____ _____    ______ ____
ROOT
ATOM      1  N   UNL     1      32.334 -12.972 -22.239  0.00  0.00    -0.244 NA
ATOM      2  N   UNL     1      31.712 -10.892 -21.192  0.00  0.00    -0.244 NA
ATOM      3  C   UNL     1      32.935 -12.259 -23.213  0.00  0.00    +0.115 C 
ATOM      4  C   UNL     1      32.334 -10.276 -22.201  0.00  0.00    +0.115 C 
ATOM      5  C   UNL     1      32.968 -10.879 -23.246  0.00  0.00    +0.100 C 
ATOM      6  C   UNL     1      31.750 -12.236 -21.274  0.00  0.00    +0.250 C 
ENDROOT
BRANCH   3   9
ATOM      7  O   UNL     1      34.163 -12.467 -25.200  0.00  0.00    -0.269 OA
ATOM      8  N   UNL     1      33.503 -14.429 -24.156  0.00  0.00    -0.296 N 
ATOM      9  C   UNL     1      33.572 -13.034 -24.264  0.00  0.00    +0.260 C 
ATOM     10  H   UNL     1      33.019 -14.813 -23.390  0.00  0.00    +0.150 HD
BRANCH   8  11
ATOM     11  C   UNL     1      34.105 -15.336 -25.107  0.00  0.00    +0.117 C 
BRANCH  11  13
ATOM     12  F   UNL     1      35.338 -20.309 -22.794  0.00  0.00    -0.205 F 
ATOM     13  C   UNL     1      34.434 -16.663 -24.486  0.00  0.00    -0.003 C 
ATOM     14  C   UNL     1      34.944 -16.711 -23.194  0.00  0.00    -0.005 C 
ATOM     15  C   UNL     1      35.250 -17.944 -22.618  0.00  0.00    +0.005 C 
ATOM     16  C   UNL     1      34.228 -17.831 -25.212  0.00  0.00    -0.000 C 
ATOM     17  C   UNL     1      35.046 -19.121 -23.339  0.00  0.00    +0.136 C 
ATOM     18  C   UNL     1      34.534 -19.064 -24.635  0.00  0.00    +0.029 C 
ATOM     19  C   UNL     1      35.796 -18.001 -21.231  0.00  0.00    +0.033 C 
ENDBRANCH  11  13
ENDBRANCH   8  11
ENDBRANCH   3   9
BRANCH   4  22
ATOM     20  O   UNL     1      32.539  -8.237 -21.060  0.00  0.00    -0.269 OA
ATOM     21  N   UNL     1      32.021  -8.132 -23.318  0.00  0.00    -0.296 N 
ATOM     22  C   UNL     1      32.302  -8.792 -22.130  0.00  0.00    +0.260 C 
ATOM     23  H   UNL     1      31.844  -8.666 -24.126  0.00  0.00    +0.150 HD
BRANCH  21  24
ATOM     24  C   UNL     1      31.979  -6.695 -23.416  0.00  0.00    +0.117 C 
BRANCH  24  26
ATOM     25  F   UNL     1      35.664  -4.706 -27.166  0.00  0.00    -0.205 F 
ATOM     26  C   UNL     1      32.955  -6.165 -24.412  0.00  0.00    -0.003 C 
ATOM     27  C   UNL     1      32.547  -5.221 -25.355  0.00  0.00    -0.005 C 
ATOM     28  C   UNL     1      33.460  -4.727 -26.286  0.00  0.00    +0.005 C 
ATOM     29  C   UNL     1      34.275  -6.613 -24.401  0.00  0.00    -0.000 C 
ATOM     30  C   UNL     1      34.780  -5.176 -26.275  0.00  0.00    +0.136 C 
ATOM     31  C   UNL     1      35.188  -6.120 -25.333  0.00  0.00    +0.029 C 
ATOM     32  C   UNL     1      33.020  -3.717 -27.293  0.00  0.00    +0.033 C 
ENDBRANCH  24  26
ENDBRANCH  21  24
ENDBRANCH   4  22
TORSDOF 6
ENDMDL
