MODEL 1
REMARK VINA RESULT:     -13.1      0.000      0.000
REMARK  Name = 52920501
REMARK  9 active torsions:
REMARK  status: ('A' for Active; 'I' for Inactive)
REMARK    1  A    between atoms: N_1  and  C_12
REMARK    2  A    between atoms: C_5  and  O_27
REMARK    3  A    between atoms: C_9  and  C_15
REMARK    4  A    between atoms: C_15  and  S_16
REMARK    5  A    between atoms: S_16  and  N_19
REMARK    6  A    between atoms: N_19  and  C_21
REMARK    7  A    between atoms: C_21  and  C_22
REMARK    8  A    between atoms: C_22  and  N_23
REMARK    9  A    between atoms: O_27  and  C_35
REMARK                            x       y       z     vdW  Elec       q    Type
REMARK                         _______ _______ _______ _____ _____    ______ ____
ROOT
ATOM      1  N   UNL     1      32.814 -22.482 -18.694  0.00  0.00    -0.247 N 
ATOM      2  N   UNL     1      33.379 -22.893 -16.453  0.00  0.00    -0.300 NA
ATOM      3  N   UNL     1      31.190 -23.444 -17.299  0.00  0.00    -0.170 NA
ATOM      4  C   UNL     1      32.443 -22.964 -17.419  0.00  0.00    +0.152 C 
ATOM      5  C   UNL     1      32.990 -23.361 -15.249  0.00  0.00    +0.295 C 
ATOM      6  C   UNL     1      31.736 -23.878 -14.995  0.00  0.00    +0.094 C 
ATOM      7  C   UNL     1      30.869 -23.895 -16.069  0.00  0.00    +0.118 C 
ATOM      8  H   UNL     1      32.100 -22.554 -19.368  0.00  0.00    +0.165 HD
ENDROOT
BRANCH   1  12
ATOM      9  C   UNL     1      35.157 -20.541 -20.804  0.00  0.00    +0.004 C 
ATOM     10  C   UNL     1      33.975 -21.097 -20.313  0.00  0.00    +0.013 C 
ATOM     11  C   UNL     1      36.370 -20.811 -20.169  0.00  0.00    -0.002 C 
ATOM     12  C   UNL     1      34.006 -21.921 -19.189  0.00  0.00    +0.057 C 
ATOM     13  C   UNL     1      36.401 -21.636 -19.045  0.00  0.00    +0.001 C 
ATOM     14  C   UNL     1      35.219 -22.191 -18.555  0.00  0.00    +0.015 C 
BRANCH   9  15
ATOM     15  C   UNL     1      35.123 -19.659 -22.005  0.00  0.00    +0.195 C 
BRANCH  15  16
ATOM     16  S   UNL     1      36.215 -18.304 -21.714  0.00  0.00    +0.045 S 
ATOM     17  O   UNL     1      35.647 -17.472 -20.666  0.00  0.00    -0.157 OA
ATOM     18  O   UNL     1      37.562 -18.836 -21.576  0.00  0.00    -0.157 OA
BRANCH  16  19
ATOM     19  N   UNL     1      36.120 -17.480 -23.209  0.00  0.00    -0.185 NA
ATOM     20  H   UNL     1      36.937 -17.755 -23.755  0.00  0.00    +0.148 HD
BRANCH  19  21
ATOM     21  C   UNL     1      34.939 -17.688 -24.066  0.00  0.00    +0.068 C 
BRANCH  21  22
ATOM     22  C   UNL     1      34.912 -16.623 -25.153  0.00  0.00    -0.058 C 
BRANCH  22  23
ATOM     23  N   UNL     1      33.729 -15.784 -25.009  0.00  0.00    +0.385 N 
ATOM     24  C   UNL     1      33.915 -14.810 -23.932  0.00  0.00    -0.101 C 
ATOM     25  C   UNL     1      33.427 -15.098 -26.267  0.00  0.00    -0.101 C 
ATOM     26  H   UNL     1      32.940 -16.386 -24.770  0.00  0.00    -0.080 HD
ENDBRANCH  22  23
ENDBRANCH  21  22
ENDBRANCH  19  21
ENDBRANCH  16  19
ENDBRANCH  15  16
ENDBRANCH   9  15
ENDBRANCH   1  12
BRANCH   5  27
ATOM     27  O   UNL     1      33.918 -23.310 -14.223  0.00  0.00    -0.427 OA
BRANCH  27  35
ATOM     28  N   UNL     1      39.143 -24.532 -15.350  0.00  0.00    -0.316 N 
ATOM     29  C   UNL     1      37.188 -24.964 -14.366  0.00  0.00    +0.017 C 
ATOM     30  C   UNL     1      37.862 -24.056 -15.185  0.00  0.00    +0.048 C 
ATOM     31  C   UNL     1      39.303 -25.706 -14.665  0.00  0.00    +0.026 C 
ATOM     32  C   UNL     1      38.109 -26.000 -14.045  0.00  0.00    +0.012 C 
ATOM     33  C   UNL     1      35.842 -24.712 -14.036  0.00  0.00    +0.039 C 
ATOM     34  C   UNL     1      37.254 -22.903 -15.693  0.00  0.00    +0.018 C 
ATOM     35  C   UNL     1      35.221 -23.562 -14.538  0.00  0.00    +0.148 C 
ATOM     36  C   UNL     1      35.918 -22.673 -15.353  0.00  0.00    +0.039 C 
ATOM     37  C   UNL     1      40.587 -26.430 -14.673  0.00  0.00    +0.047 C 
ATOM     38  H   UNL     1      39.844 -24.091 -15.883  0.00  0.00    +0.152 HD
ENDBRANCH  27  35
ENDBRANCH   5  27
TORSDOF 9
ENDMDL
MODEL 2
REMARK VINA RESULT:     -12.9      3.492     11.924
REMARK  Name = 52920501
REMARK  9 active torsions:
REMARK  status: ('A' for Active; 'I' for Inactive)
REMARK    1  A    between atoms: N_1  and  C_12
REMARK    2  A    between atoms: C_5  and  O_27
REMARK    3  A    between atoms: C_9  and  C_15
REMARK    4  A    between atoms: C_15  and  S_16
REMARK    5  A    between atoms: S_16  and  N_19
REMARK    6  A    between atoms: N_19  and  C_21
REMARK    7  A    between atoms: C_21  and  C_22
REMARK    8  A    between atoms: C_22  and  N_23
REMARK    9  A    between atoms: O_27  and  C_35
REMARK                            x       y       z     vdW  Elec       q    Type
REMARK                         _______ _______ _______ _____ _____    ______ ____
ROOT
ATOM      1  N   UNL     1      34.497 -18.920 -23.731  0.00  0.00    -0.247 N 
ATOM      2  N   UNL     1      34.715 -16.618 -23.333  0.00  0.00    -0.300 NA
ATOM      3  N   UNL     1      33.940 -17.438 -25.463  0.00  0.00    -0.170 NA
ATOM      4  C   UNL     1      34.378 -17.593 -24.199  0.00  0.00    +0.152 C 
ATOM      5  C   UNL     1      34.590 -15.363 -23.813  0.00  0.00    +0.295 C 
ATOM      6  C   UNL     1      34.153 -15.069 -25.089  0.00  0.00    +0.094 C 
ATOM      7  C   UNL     1      33.840 -16.157 -25.877  0.00  0.00    +0.118 C 
ATOM      8  H   UNL     1      34.240 -19.599 -24.397  0.00  0.00    +0.165 HD
ENDROOT
BRANCH   1  12
ATOM      9  C   UNL     1      34.386 -20.588 -20.428  0.00  0.00    +0.004 C 
ATOM     10  C   UNL     1      33.976 -20.052 -21.648  0.00  0.00    +0.013 C 
ATOM     11  C   UNL     1      35.730 -20.534 -20.059  0.00  0.00    -0.002 C 
ATOM     12  C   UNL     1      34.910 -19.462 -22.500  0.00  0.00    +0.057 C 
ATOM     13  C   UNL     1      36.665 -19.944 -20.910  0.00  0.00    +0.001 C 
ATOM     14  C   UNL     1      36.254 -19.408 -22.131  0.00  0.00    +0.015 C 
BRANCH   9  15
ATOM     15  C   UNL     1      33.387 -21.220 -19.518  0.00  0.00    +0.195 C 
BRANCH  15  16
ATOM     16  S   UNL     1      34.072 -22.735 -18.930  0.00  0.00    +0.045 S 
ATOM     17  O   UNL     1      34.149 -23.668 -20.041  0.00  0.00    -0.157 OA
ATOM     18  O   UNL     1      35.262 -22.418 -18.157  0.00  0.00    -0.157 OA
BRANCH  16  19
ATOM     19  N   UNL     1      32.853 -23.245 -17.843  0.00  0.00    -0.185 NA
ATOM     20  H   UNL     1      32.428 -24.082 -18.241  0.00  0.00    +0.148 HD
BRANCH  19  21
ATOM     21  C   UNL     1      33.225 -23.569 -16.454  0.00  0.00    +0.068 C 
BRANCH  21  22
ATOM     22  C   UNL     1      32.064 -23.226 -15.530  0.00  0.00    -0.058 C 
BRANCH  22  23
ATOM     23  N   UNL     1      31.001 -24.214 -15.667  0.00  0.00    +0.385 N 
ATOM     24  C   UNL     1      30.864 -24.997 -14.437  0.00  0.00    -0.101 C 
ATOM     25  C   UNL     1      29.732 -23.565 -15.999  0.00  0.00    -0.101 C 
ATOM     26  H   UNL     1      31.251 -24.847 -16.427  0.00  0.00    -0.080 HD
ENDBRANCH  22  23
ENDBRANCH  21  22
ENDBRANCH  19  21
ENDBRANCH  16  19
ENDBRANCH  15  16
ENDBRANCH   9  15
ENDBRANCH   1  12
BRANCH   5  27
ATOM     27  O   UNL     1      34.924 -14.325 -22.960  0.00  0.00    -0.427 OA
BRANCH  27  35
ATOM     28  N   UNL     1      31.232 -10.351 -22.166  0.00  0.00    -0.316 N 
ATOM     29  C   UNL     1      33.060 -11.173 -23.145  0.00  0.00    +0.017 C 
ATOM     30  C   UNL     1      32.048 -11.457 -22.226  0.00  0.00    +0.048 C 
ATOM     31  C   UNL     1      31.690  -9.379 -23.014  0.00  0.00    +0.026 C 
ATOM     32  C   UNL     1      32.822  -9.858 -23.634  0.00  0.00    +0.012 C 
ATOM     33  C   UNL     1      34.043 -12.150 -23.397  0.00  0.00    +0.039 C 
ATOM     34  C   UNL     1      31.970 -12.676 -21.543  0.00  0.00    +0.018 C 
ATOM     35  C   UNL     1      33.977 -13.374 -22.721  0.00  0.00    +0.148 C 
ATOM     36  C   UNL     1      32.956 -13.631 -21.809  0.00  0.00    +0.039 C 
ATOM     37  C   UNL     1      30.996  -8.085 -23.143  0.00  0.00    +0.047 C 
ATOM     38  H   UNL     1      30.432 -10.270 -21.597  0.00  0.00    +0.152 HD
ENDBRANCH  27  35
ENDBRANCH   5  27
TORSDOF 9
ENDMDL
MODEL 3
REMARK VINA RESULT:     -12.8      2.767     10.082
REMARK  Name = 52920501
REMARK  9 active torsions:
REMARK  status: ('A' for Active; 'I' for Inactive)
REMARK    1  A    between atoms: N_1  and  C_12
REMARK    2  A    between atoms: C_5  and  O_27
REMARK    3  A    between atoms: C_9  and  C_15
REMARK    4  A    between atoms: C_15  and  S_16
REMARK    5  A    between atoms: S_16  and  N_19
REMARK    6  A    between atoms: N_19  and  C_21
REMARK    7  A    between atoms: C_21  and  C_22
REMARK    8  A    between atoms: C_22  and  N_23
REMARK    9  A    between atoms: O_27  and  C_35
REMARK                            x       y       z     vdW  Elec       q    Type
REMARK                         _______ _______ _______ _____ _____    ______ ____
ROOT
ATOM      1  N   UNL     1      34.356 -22.724 -17.687  0.00  0.00    -0.247 N 
ATOM      2  N   UNL     1      35.170 -21.212 -19.287  0.00  0.00    -0.300 NA
ATOM      3  N   UNL     1      32.859 -21.895 -19.293  0.00  0.00    -0.170 NA
ATOM      4  C   UNL     1      34.117 -21.903 -18.811  0.00  0.00    +0.152 C 
ATOM      5  C   UNL     1      34.906 -20.439 -20.361  0.00  0.00    +0.295 C 
ATOM      6  C   UNL     1      33.662 -20.343 -20.949  0.00  0.00    +0.094 C 
ATOM      7  C   UNL     1      32.666 -21.102 -20.367  0.00  0.00    +0.118 C 
ATOM      8  H   UNL     1      33.559 -23.209 -17.374  0.00  0.00    +0.165 HD
ENDROOT
BRANCH   1  12
ATOM      9  C   UNL     1      36.648 -24.247 -15.210  0.00  0.00    +0.004 C 
ATOM     10  C   UNL     1      35.503 -23.991 -15.964  0.00  0.00    +0.013 C 
ATOM     11  C   UNL     1      37.803 -23.492 -15.419  0.00  0.00    -0.002 C 
ATOM     12  C   UNL     1      35.512 -22.982 -16.927  0.00  0.00    +0.057 C 
ATOM     13  C   UNL     1      37.813 -22.483 -16.383  0.00  0.00    +0.001 C 
ATOM     14  C   UNL     1      36.666 -22.228 -17.136  0.00  0.00    +0.015 C 
BRANCH   9  15
ATOM     15  C   UNL     1      36.638 -25.326 -14.181  0.00  0.00    +0.195 C 
BRANCH  15  16
ATOM     16  S   UNL     1      36.140 -24.609 -12.648  0.00  0.00    +0.045 S 
ATOM     17  O   UNL     1      36.832 -25.298 -11.571  0.00  0.00    -0.157 OA
ATOM     18  O   UNL     1      36.243 -23.164 -12.776  0.00  0.00    -0.157 OA
BRANCH  16  19
ATOM     19  N   UNL     1      34.481 -25.023 -12.617  0.00  0.00    -0.185 NA
ATOM     20  H   UNL     1      34.215 -25.116 -11.637  0.00  0.00    +0.148 HD
BRANCH  19  21
ATOM     21  C   UNL     1      33.506 -24.113 -13.244  0.00  0.00    +0.068 C 
BRANCH  21  22
ATOM     22  C   UNL     1      32.441 -24.933 -13.958  0.00  0.00    -0.058 C 
BRANCH  22  23
ATOM     23  N   UNL     1      31.197 -24.179 -14.046  0.00  0.00    +0.385 N 
ATOM     24  C   UNL     1      31.391 -22.953 -14.824  0.00  0.00    -0.101 C 
ATOM     25  C   UNL     1      30.139 -24.996 -14.643  0.00  0.00    -0.101 C 
ATOM     26  H   UNL     1      30.914 -23.922 -13.101  0.00  0.00    -0.080 HD
ENDBRANCH  22  23
ENDBRANCH  21  22
ENDBRANCH  19  21
ENDBRANCH  16  19
ENDBRANCH  15  16
ENDBRANCH   9  15
ENDBRANCH   1  12
BRANCH   5  27
ATOM     27  O   UNL     1      35.958 -19.708 -20.886  0.00  0.00    -0.427 OA
BRANCH  27  35
ATOM     28  N   UNL     1      34.706 -15.493 -24.161  0.00  0.00    -0.316 N 
ATOM     29  C   UNL     1      35.006 -16.398 -22.144  0.00  0.00    +0.017 C 
ATOM     30  C   UNL     1      35.046 -16.660 -23.515  0.00  0.00    +0.048 C 
ATOM     31  C   UNL     1      34.452 -14.505 -23.249  0.00  0.00    +0.026 C 
ATOM     32  C   UNL     1      34.630 -15.034 -21.991  0.00  0.00    +0.012 C 
ATOM     33  C   UNL     1      35.316 -17.437 -21.245  0.00  0.00    +0.039 C 
ATOM     34  C   UNL     1      35.383 -17.915 -24.034  0.00  0.00    +0.018 C 
ATOM     35  C   UNL     1      35.656 -18.698 -21.749  0.00  0.00    +0.148 C 
ATOM     36  C   UNL     1      35.687 -18.931 -23.123  0.00  0.00    +0.039 C 
ATOM     37  C   UNL     1      34.063 -13.148 -23.676  0.00  0.00    +0.047 C 
ATOM     38  H   UNL     1      34.652 -15.385 -25.138  0.00  0.00    +0.152 HD
ENDBRANCH  27  35
ENDBRANCH   5  27
TORSDOF 9
ENDMDL
MODEL 4
REMARK VINA RESULT:     -12.4      4.890      9.188
REMARK  Name = 52920501
REMARK  9 active torsions:
REMARK  status: ('A' for Active; 'I' for Inactive)
REMARK    1  A    between atoms: N_1  and  C_12
REMARK    2  A    between atoms: C_5  and  O_27
REMARK    3  A    between atoms: C_9  and  C_15
REMARK    4  A    between atoms: C_15  and  S_16
REMARK    5  A    between atoms: S_16  and  N_19
REMARK    6  A    between atoms: N_19  and  C_21
REMARK    7  A    between atoms: C_21  and  C_22
REMARK    8  A    between atoms: C_22  and  N_23
REMARK    9  A    between atoms: O_27  and  C_35
REMARK                            x       y       z     vdW  Elec       q    Type
REMARK                         _______ _______ _______ _____ _____    ______ ____
ROOT
ATOM      1  N   UNL     1      33.317 -14.850 -24.002  0.00  0.00    -0.247 N 
ATOM      2  N   UNL     1      34.564 -16.562 -22.993  0.00  0.00    -0.300 NA
ATOM      3  N   UNL     1      34.220 -16.523 -25.378  0.00  0.00    -0.170 NA
ATOM      4  C   UNL     1      34.071 -16.036 -24.130  0.00  0.00    +0.152 C 
ATOM      5  C   UNL     1      35.278 -17.696 -23.152  0.00  0.00    +0.295 C 
ATOM      6  C   UNL     1      35.503 -18.295 -24.374  0.00  0.00    +0.094 C 
ATOM      7  C   UNL     1      34.944 -17.658 -25.464  0.00  0.00    +0.118 C 
ATOM      8  H   UNL     1      32.977 -14.501 -24.858  0.00  0.00    +0.165 HD
ENDROOT
BRANCH   1  12
ATOM      9  C   UNL     1      31.900 -12.099 -21.969  0.00  0.00    +0.004 C 
ATOM     10  C   UNL     1      32.256 -12.875 -23.072  0.00  0.00    +0.013 C 
ATOM     11  C   UNL     1      32.247 -12.514 -20.684  0.00  0.00    -0.002 C 
ATOM     12  C   UNL     1      32.957 -14.066 -22.890  0.00  0.00    +0.057 C 
ATOM     13  C   UNL     1      32.949 -13.706 -20.501  0.00  0.00    +0.001 C 
ATOM     14  C   UNL     1      33.304 -14.481 -21.604  0.00  0.00    +0.015 C 
BRANCH   9  15
ATOM     15  C   UNL     1      31.149 -10.825 -22.165  0.00  0.00    +0.195 C 
BRANCH  15  16
ATOM     16  S   UNL     1      32.322  -9.510 -22.241  0.00  0.00    +0.045 S 
ATOM     17  O   UNL     1      32.633  -9.091 -20.884  0.00  0.00    -0.157 OA
ATOM     18  O   UNL     1      33.388  -9.913 -23.144  0.00  0.00    -0.157 OA
BRANCH  16  19
ATOM     19  N   UNL     1      31.400  -8.294 -23.014  0.00  0.00    -0.185 NA
ATOM     20  H   UNL     1      30.426  -8.594 -22.986  0.00  0.00    +0.148 HD
BRANCH  19  21
ATOM     21  C   UNL     1      31.444  -6.919 -22.484  0.00  0.00    +0.068 C 
BRANCH  21  22
ATOM     22  C   UNL     1      32.815  -6.318 -22.760  0.00  0.00    -0.058 C 
BRANCH  22  23
ATOM     23  N   UNL     1      33.160  -6.472 -24.168  0.00  0.00    +0.385 N 
ATOM     24  C   UNL     1      32.760  -5.287 -24.930  0.00  0.00    -0.101 C 
ATOM     25  C   UNL     1      34.596  -6.713 -24.324  0.00  0.00    -0.101 C 
ATOM     26  H   UNL     1      32.654  -7.279 -24.533  0.00  0.00    -0.080 HD
ENDBRANCH  22  23
ENDBRANCH  21  22
ENDBRANCH  19  21
ENDBRANCH  16  19
ENDBRANCH  15  16
ENDBRANCH   9  15
ENDBRANCH   1  12
BRANCH   5  27
ATOM     27  O   UNL     1      35.806 -18.274 -22.011  0.00  0.00    -0.427 OA
BRANCH  27  35
ATOM     28  N   UNL     1      32.937 -22.058 -19.271  0.00  0.00    -0.316 N 
ATOM     29  C   UNL     1      34.856 -21.072 -19.840  0.00  0.00    +0.017 C 
ATOM     30  C   UNL     1      33.473 -21.045 -20.033  0.00  0.00    +0.048 C 
ATOM     31  C   UNL     1      33.929 -22.723 -18.604  0.00  0.00    +0.026 C 
ATOM     32  C   UNL     1      35.129 -22.136 -18.936  0.00  0.00    +0.012 C 
ATOM     33  C   UNL     1      35.654 -20.127 -20.514  0.00  0.00    +0.039 C 
ATOM     34  C   UNL     1      32.846 -20.116 -20.871  0.00  0.00    +0.018 C 
ATOM     35  C   UNL     1      35.041 -19.191 -21.355  0.00  0.00    +0.148 C 
ATOM     36  C   UNL     1      33.658 -19.188 -21.530  0.00  0.00    +0.039 C 
ATOM     37  C   UNL     1      33.627 -23.859 -17.714  0.00  0.00    +0.047 C 
ATOM     38  H   UNL     1      31.977 -22.273 -19.214  0.00  0.00    +0.152 HD
ENDBRANCH  27  35
ENDBRANCH   5  27
TORSDOF 9
ENDMDL
MODEL 5
REMARK VINA RESULT:     -12.4      1.531      4.913
REMARK  Name = 52920501
REMARK  9 active torsions:
REMARK  status: ('A' for Active; 'I' for Inactive)
REMARK    1  A    between atoms: N_1  and  C_12
REMARK    2  A    between atoms: C_5  and  O_27
REMARK    3  A    between atoms: C_9  and  C_15
REMARK    4  A    between atoms: C_15  and  S_16
REMARK    5  A    between atoms: S_16  and  N_19
REMARK    6  A    between atoms: N_19  and  C_21
REMARK    7  A    between atoms: C_21  and  C_22
REMARK    8  A    between atoms: C_22  and  N_23
REMARK    9  A    between atoms: O_27  and  C_35
REMARK                            x       y       z     vdW  Elec       q    Type
REMARK                         _______ _______ _______ _____ _____    ______ ____
ROOT
ATOM      1  N   UNL     1      36.759 -21.933 -17.739  0.00  0.00    -0.247 N 
ATOM      2  N   UNL     1      35.642 -23.510 -16.408  0.00  0.00    -0.300 NA
ATOM      3  N   UNL     1      37.904 -22.847 -15.906  0.00  0.00    -0.170 NA
ATOM      4  C   UNL     1      36.768 -22.806 -16.630  0.00  0.00    +0.152 C 
ATOM      5  C   UNL     1      35.687 -24.334 -15.340  0.00  0.00    +0.295 C 
ATOM      6  C   UNL     1      36.788 -24.467 -14.520  0.00  0.00    +0.094 C 
ATOM      7  C   UNL     1      37.879 -23.692 -14.854  0.00  0.00    +0.118 C 
ATOM      8  H   UNL     1      37.602 -21.440 -17.863  0.00  0.00    +0.165 HD
ENDROOT
BRANCH   1  12
ATOM      9  C   UNL     1      35.170 -20.697 -20.846  0.00  0.00    +0.004 C 
ATOM     10  C   UNL     1      36.141 -20.998 -19.892  0.00  0.00    +0.013 C 
ATOM     11  C   UNL     1      33.835 -21.027 -20.610  0.00  0.00    -0.002 C 
ATOM     12  C   UNL     1      35.779 -21.629 -18.703  0.00  0.00    +0.057 C 
ATOM     13  C   UNL     1      33.472 -21.659 -19.421  0.00  0.00    +0.001 C 
ATOM     14  C   UNL     1      34.445 -21.960 -18.467  0.00  0.00    +0.015 C 
BRANCH   9  15
ATOM     15  C   UNL     1      35.558 -20.022 -22.119  0.00  0.00    +0.195 C 
BRANCH  15  16
ATOM     16  S   UNL     1      36.337 -18.495 -21.706  0.00  0.00    +0.045 S 
ATOM     17  O   UNL     1      35.524 -17.816 -20.711  0.00  0.00    -0.157 OA
ATOM     18  O   UNL     1      37.741 -18.766 -21.441  0.00  0.00    -0.157 OA
BRANCH  16  19
ATOM     19  N   UNL     1      36.230 -17.660 -23.195  0.00  0.00    -0.185 NA
ATOM     20  H   UNL     1      36.968 -18.026 -23.797  0.00  0.00    +0.148 HD
BRANCH  19  21
ATOM     21  C   UNL     1      34.974 -17.728 -23.963  0.00  0.00    +0.068 C 
BRANCH  21  22
ATOM     22  C   UNL     1      34.975 -16.640 -25.026  0.00  0.00    -0.058 C 
BRANCH  22  23
ATOM     23  N   UNL     1      33.857 -15.728 -24.818  0.00  0.00    +0.385 N 
ATOM     24  C   UNL     1      34.259 -14.602 -23.974  0.00  0.00    -0.101 C 
ATOM     25  C   UNL     1      33.341 -15.243 -26.099  0.00  0.00    -0.101 C 
ATOM     26  H   UNL     1      33.114 -16.241 -24.343  0.00  0.00    -0.080 HD
ENDBRANCH  22  23
ENDBRANCH  21  22
ENDBRANCH  19  21
ENDBRANCH  16  19
ENDBRANCH  15  16
ENDBRANCH   9  15
ENDBRANCH   1  12
BRANCH   5  27
ATOM     27  O   UNL     1      34.551 -25.078 -15.071  0.00  0.00    -0.427 OA
BRANCH  27  35
ATOM     28  N   UNL     1      29.746 -22.453 -14.780  0.00  0.00    -0.316 N 
ATOM     29  C   UNL     1      31.233 -23.725 -15.852  0.00  0.00    +0.017 C 
ATOM     30  C   UNL     1      30.986 -23.039 -14.661  0.00  0.00    +0.048 C 
ATOM     31  C   UNL     1      29.202 -22.743 -16.002  0.00  0.00    +0.026 C 
ATOM     32  C   UNL     1      30.099 -23.529 -16.689  0.00  0.00    +0.012 C 
ATOM     33  C   UNL     1      32.449 -24.421 -15.994  0.00  0.00    +0.039 C 
ATOM     34  C   UNL     1      31.898 -23.015 -13.600  0.00  0.00    +0.018 C 
ATOM     35  C   UNL     1      33.372 -24.406 -14.941  0.00  0.00    +0.148 C 
ATOM     36  C   UNL     1      33.098 -23.713 -13.764  0.00  0.00    +0.039 C 
ATOM     37  C   UNL     1      27.874 -22.235 -16.390  0.00  0.00    +0.047 C 
ATOM     38  H   UNL     1      29.313 -21.904 -14.087  0.00  0.00    +0.152 HD
ENDBRANCH  27  35
ENDBRANCH   5  27
TORSDOF 9
ENDMDL
MODEL 6
REMARK VINA RESULT:     -12.4      5.533      9.962
REMARK  Name = 52920501
REMARK  9 active torsions:
REMARK  status: ('A' for Active; 'I' for Inactive)
REMARK    1  A    between atoms: N_1  and  C_12
REMARK    2  A    between atoms: C_5  and  O_27
REMARK    3  A    between atoms: C_9  and  C_15
REMARK    4  A    between atoms: C_15  and  S_16
REMARK    5  A    between atoms: S_16  and  N_19
REMARK    6  A    between atoms: N_19  and  C_21
REMARK    7  A    between atoms: C_21  and  C_22
REMARK    8  A    between atoms: C_22  and  N_23
REMARK    9  A    between atoms: O_27  and  C_35
REMARK                            x       y       z     vdW  Elec       q    Type
REMARK                         _______ _______ _______ _____ _____    ______ ____
ROOT
ATOM      1  N   UNL     1      32.704 -14.180 -24.047  0.00  0.00    -0.247 N 
ATOM      2  N   UNL     1      34.405 -15.488 -23.099  0.00  0.00    -0.300 NA
ATOM      3  N   UNL     1      33.582 -15.947 -25.317  0.00  0.00    -0.170 NA
ATOM      4  C   UNL     1      33.609 -15.258 -24.159  0.00  0.00    +0.152 C 
ATOM      5  C   UNL     1      35.256 -16.526 -23.241  0.00  0.00    +0.295 C 
ATOM      6  C   UNL     1      35.328 -17.309 -24.374  0.00  0.00    +0.094 C 
ATOM      7  C   UNL     1      34.459 -16.970 -25.390  0.00  0.00    +0.118 C 
ATOM      8  H   UNL     1      32.142 -14.049 -24.845  0.00  0.00    +0.165 HD
ENDROOT
BRANCH   1  12
ATOM      9  C   UNL     1      31.907 -11.012 -22.305  0.00  0.00    +0.004 C 
ATOM     10  C   UNL     1      32.160 -11.927 -23.326  0.00  0.00    +0.013 C 
ATOM     11  C   UNL     1      31.943 -11.426 -20.973  0.00  0.00    -0.002 C 
ATOM     12  C   UNL     1      32.448 -13.256 -23.017  0.00  0.00    +0.057 C 
ATOM     13  C   UNL     1      32.232 -12.755 -20.663  0.00  0.00    +0.001 C 
ATOM     14  C   UNL     1      32.485 -13.670 -21.685  0.00  0.00    +0.015 C 
BRANCH   9  15
ATOM     15  C   UNL     1      31.597  -9.591 -22.636  0.00  0.00    +0.195 C 
BRANCH  15  16
ATOM     16  S   UNL     1      33.124  -8.713 -22.735  0.00  0.00    +0.045 S 
ATOM     17  O   UNL     1      33.417  -8.149 -21.427  0.00  0.00    -0.157 OA
ATOM     18  O   UNL     1      34.094  -9.573 -23.394  0.00  0.00    -0.157 OA
BRANCH  16  19
ATOM     19  N   UNL     1      32.709  -7.454 -23.817  0.00  0.00    -0.185 NA
ATOM     20  H   UNL     1      32.903  -7.794 -24.759  0.00  0.00    +0.148 HD
BRANCH  19  21
ATOM     21  C   UNL     1      31.327  -6.942 -23.819  0.00  0.00    +0.068 C 
BRANCH  21  22
ATOM     22  C   UNL     1      31.322  -5.511 -24.336  0.00  0.00    -0.058 C 
BRANCH  22  23
ATOM     23  N   UNL     1      30.845  -4.601 -23.303  0.00  0.00    +0.385 N 
ATOM     24  C   UNL     1      30.908  -5.238 -21.986  0.00  0.00    -0.101 C 
ATOM     25  C   UNL     1      31.625  -3.362 -23.304  0.00  0.00    -0.101 C 
ATOM     26  H   UNL     1      29.872  -4.372 -23.506  0.00  0.00    -0.080 HD
ENDBRANCH  22  23
ENDBRANCH  21  22
ENDBRANCH  19  21
ENDBRANCH  16  19
ENDBRANCH  15  16
ENDBRANCH   9  15
ENDBRANCH   1  12
BRANCH   5  27
ATOM     27  O   UNL     1      36.097 -16.802 -22.176  0.00  0.00    -0.427 OA
BRANCH  27  35
ATOM     28  N   UNL     1      35.440 -21.717 -19.837  0.00  0.00    -0.316 N 
ATOM     29  C   UNL     1      34.635 -19.830 -20.714  0.00  0.00    +0.017 C 
ATOM     30  C   UNL     1      35.810 -20.521 -20.410  0.00  0.00    +0.048 C 
ATOM     31  C   UNL     1      34.076 -21.806 -19.767  0.00  0.00    +0.026 C 
ATOM     32  C   UNL     1      33.549 -20.652 -20.302  0.00  0.00    +0.012 C 
ATOM     33  C   UNL     1      34.730 -18.560 -21.316  0.00  0.00    +0.039 C 
ATOM     34  C   UNL     1      37.081 -20.004 -20.681  0.00  0.00    +0.018 C 
ATOM     35  C   UNL     1      35.996 -18.030 -21.593  0.00  0.00    +0.148 C 
ATOM     36  C   UNL     1      37.152 -18.742 -21.279  0.00  0.00    +0.039 C 
ATOM     37  C   UNL     1      33.414 -22.990 -19.192  0.00  0.00    +0.047 C 
ATOM     38  H   UNL     1      36.067 -22.409 -19.523  0.00  0.00    +0.152 HD
ENDBRANCH  27  35
ENDBRANCH   5  27
TORSDOF 9
ENDMDL
MODEL 7
REMARK VINA RESULT:     -12.4      2.951     11.224
REMARK  Name = 52920501
REMARK  9 active torsions:
REMARK  status: ('A' for Active; 'I' for Inactive)
REMARK    1  A    between atoms: N_1  and  C_12
REMARK    2  A    between atoms: C_5  and  O_27
REMARK    3  A    between atoms: C_9  and  C_15
REMARK    4  A    between atoms: C_15  and  S_16
REMARK    5  A    between atoms: S_16  and  N_19
REMARK    6  A    between atoms: N_19  and  C_21
REMARK    7  A    between atoms: C_21  and  C_22
REMARK    8  A    between atoms: C_22  and  N_23
REMARK    9  A    between atoms: O_27  and  C_35
REMARK                            x       y       z     vdW  Elec       q    Type
REMARK                         _______ _______ _______ _____ _____    ______ ____
ROOT
ATOM      1  N   UNL     1      35.304 -21.212 -21.225  0.00  0.00    -0.247 N 
ATOM      2  N   UNL     1      35.100 -18.887 -20.986  0.00  0.00    -0.300 NA
ATOM      3  N   UNL     1      35.406 -19.886 -23.158  0.00  0.00    -0.170 NA
ATOM      4  C   UNL     1      35.268 -19.932 -21.819  0.00  0.00    +0.152 C 
ATOM      5  C   UNL     1      35.071 -17.679 -21.587  0.00  0.00    +0.295 C 
ATOM      6  C   UNL     1      35.201 -17.497 -22.948  0.00  0.00    +0.094 C 
ATOM      7  C   UNL     1      35.368 -18.647 -23.692  0.00  0.00    +0.118 C 
ATOM      8  H   UNL     1      35.428 -21.945 -21.870  0.00  0.00    +0.165 HD
ENDROOT
BRANCH   1  12
ATOM      9  C   UNL     1      36.206 -22.054 -17.734  0.00  0.00    +0.004 C 
ATOM     10  C   UNL     1      36.314 -21.625 -19.056  0.00  0.00    +0.013 C 
ATOM     11  C   UNL     1      34.980 -22.506 -17.246  0.00  0.00    -0.002 C 
ATOM     12  C   UNL     1      35.196 -21.646 -19.890  0.00  0.00    +0.057 C 
ATOM     13  C   UNL     1      33.861 -22.527 -18.079  0.00  0.00    +0.001 C 
ATOM     14  C   UNL     1      33.970 -22.097 -19.402  0.00  0.00    +0.015 C 
BRANCH   9  15
ATOM     15  C   UNL     1      37.401 -22.031 -16.843  0.00  0.00    +0.195 C 
BRANCH  15  16
ATOM     16  S   UNL     1      37.174 -23.262 -15.600  0.00  0.00    +0.045 S 
ATOM     17  O   UNL     1      36.818 -22.600 -14.355  0.00  0.00    -0.157 OA
ATOM     18  O   UNL     1      36.315 -24.299 -16.148  0.00  0.00    -0.157 OA
BRANCH  16  19
ATOM     19  N   UNL     1      38.758 -23.896 -15.474  0.00  0.00    -0.185 NA
ATOM     20  H   UNL     1      39.276 -23.285 -14.842  0.00  0.00    +0.148 HD
BRANCH  19  21
ATOM     21  C   UNL     1      38.939 -25.275 -14.986  0.00  0.00    +0.068 C 
BRANCH  21  22
ATOM     22  C   UNL     1      39.239 -25.244 -13.495  0.00  0.00    -0.058 C 
BRANCH  22  23
ATOM     23  N   UNL     1      38.171 -25.900 -12.750  0.00  0.00    +0.385 N 
ATOM     24  C   UNL     1      37.415 -24.923 -11.964  0.00  0.00    -0.101 C 
ATOM     25  C   UNL     1      37.277 -26.622 -13.657  0.00  0.00    -0.101 C 
ATOM     26  H   UNL     1      38.595 -26.572 -12.111  0.00  0.00    -0.080 HD
ENDBRANCH  22  23
ENDBRANCH  21  22
ENDBRANCH  19  21
ENDBRANCH  16  19
ENDBRANCH  15  16
ENDBRANCH   9  15
ENDBRANCH   1  12
BRANCH   5  27
ATOM     27  O   UNL     1      34.900 -16.573 -20.772  0.00  0.00    -0.427 OA
BRANCH  27  35
ATOM     28  N   UNL     1      32.690 -12.008 -22.855  0.00  0.00    -0.316 N 
ATOM     29  C   UNL     1      32.854 -13.571 -21.272  0.00  0.00    +0.017 C 
ATOM     30  C   UNL     1      33.363 -13.156 -22.504  0.00  0.00    +0.048 C 
ATOM     31  C   UNL     1      31.775 -11.683 -21.891  0.00  0.00    +0.026 C 
ATOM     32  C   UNL     1      31.852 -12.632 -20.897  0.00  0.00    +0.012 C 
ATOM     33  C   UNL     1      33.377 -14.737 -20.679  0.00  0.00    +0.039 C 
ATOM     34  C   UNL     1      34.374 -13.853 -23.176  0.00  0.00    +0.018 C 
ATOM     35  C   UNL     1      34.388 -15.444 -21.339  0.00  0.00    +0.148 C 
ATOM     36  C   UNL     1      34.878 -15.007 -22.568  0.00  0.00    +0.039 C 
ATOM     37  C   UNL     1      30.916 -10.493 -22.020  0.00  0.00    +0.047 C 
ATOM     38  H   UNL     1      32.845 -11.494 -23.681  0.00  0.00    +0.152 HD
ENDBRANCH  27  35
ENDBRANCH   5  27
TORSDOF 9
ENDMDL
MODEL 8
REMARK VINA RESULT:     -12.3      4.728      9.364
REMARK  Name = 52920501
REMARK  9 active torsions:
REMARK  status: ('A' for Active; 'I' for Inactive)
REMARK    1  A    between atoms: N_1  and  C_12
REMARK    2  A    between atoms: C_5  and  O_27
REMARK    3  A    between atoms: C_9  and  C_15
REMARK    4  A    between atoms: C_15  and  S_16
REMARK    5  A    between atoms: S_16  and  N_19
REMARK    6  A    between atoms: N_19  and  C_21
REMARK    7  A    between atoms: C_21  and  C_22
REMARK    8  A    between atoms: C_22  and  N_23
REMARK    9  A    between atoms: O_27  and  C_35
REMARK                            x       y       z     vdW  Elec       q    Type
REMARK                         _______ _______ _______ _____ _____    ______ ____
ROOT
ATOM      1  N   UNL     1      33.305 -14.924 -25.041  0.00  0.00    -0.247 N 
ATOM      2  N   UNL     1      34.683 -16.189 -23.624  0.00  0.00    -0.300 NA
ATOM      3  N   UNL     1      33.707 -17.168 -25.599  0.00  0.00    -0.170 NA
ATOM      4  C   UNL     1      33.929 -16.154 -24.740  0.00  0.00    +0.152 C 
ATOM      5  C   UNL     1      35.263 -17.379 -23.366  0.00  0.00    +0.295 C 
ATOM      6  C   UNL     1      35.115 -18.494 -24.166  0.00  0.00    +0.094 C 
ATOM      7  C   UNL     1      34.317 -18.328 -25.280  0.00  0.00    +0.118 C 
ATOM      8  H   UNL     1      32.765 -14.944 -25.865  0.00  0.00    +0.165 HD
ENDROOT
BRANCH   1  12
ATOM      9  C   UNL     1      32.670 -12.284 -22.524  0.00  0.00    +0.004 C 
ATOM     10  C   UNL     1      32.670 -13.523 -23.163  0.00  0.00    +0.013 C 
ATOM     11  C   UNL     1      33.305 -11.193 -23.119  0.00  0.00    -0.002 C 
ATOM     12  C   UNL     1      33.305 -13.673 -24.396  0.00  0.00    +0.057 C 
ATOM     13  C   UNL     1      33.941 -11.342 -24.352  0.00  0.00    +0.001 C 
ATOM     14  C   UNL     1      33.940 -12.583 -24.990  0.00  0.00    +0.015 C 
BRANCH   9  15
ATOM     15  C   UNL     1      31.992 -12.124 -21.206  0.00  0.00    +0.195 C 
BRANCH  15  16
ATOM     16  S   UNL     1      31.290 -10.507 -21.150  0.00  0.00    +0.045 S 
ATOM     17  O   UNL     1      30.795 -10.173 -22.475  0.00  0.00    -0.157 OA
ATOM     18  O   UNL     1      30.400 -10.445 -20.000  0.00  0.00    -0.157 OA
BRANCH  16  19
ATOM     19  N   UNL     1      32.673  -9.562 -20.803  0.00  0.00    -0.185 NA
ATOM     20  H   UNL     1      33.327  -9.695 -21.574  0.00  0.00    +0.148 HD
BRANCH  19  21
ATOM     21  C   UNL     1      32.516  -8.108 -20.617  0.00  0.00    +0.068 C 
BRANCH  21  22
ATOM     22  C   UNL     1      32.842  -7.397 -21.922  0.00  0.00    -0.058 C 
BRANCH  22  23
ATOM     23  N   UNL     1      31.619  -7.118 -22.665  0.00  0.00    +0.385 N 
ATOM     24  C   UNL     1      30.906  -5.982 -22.078  0.00  0.00    -0.101 C 
ATOM     25  C   UNL     1      31.919  -6.856 -24.073  0.00  0.00    -0.101 C 
ATOM     26  H   UNL     1      31.018  -7.941 -22.609  0.00  0.00    -0.080 HD
ENDBRANCH  22  23
ENDBRANCH  21  22
ENDBRANCH  19  21
ENDBRANCH  16  19
ENDBRANCH  15  16
ENDBRANCH   9  15
ENDBRANCH   1  12
BRANCH   5  27
ATOM     27  O   UNL     1      36.049 -17.465 -22.230  0.00  0.00    -0.427 OA
BRANCH  27  35
ATOM     28  N   UNL     1      35.438 -22.027 -19.251  0.00  0.00    -0.316 N 
ATOM     29  C   UNL     1      34.616 -20.318 -20.427  0.00  0.00    +0.017 C 
ATOM     30  C   UNL     1      35.796 -20.909 -19.969  0.00  0.00    +0.048 C 
ATOM     31  C   UNL     1      34.076 -22.164 -19.238  0.00  0.00    +0.026 C 
ATOM     32  C   UNL     1      33.539 -21.121 -19.958  0.00  0.00    +0.012 C 
ATOM     33  C   UNL     1      34.700 -19.143 -21.199  0.00  0.00    +0.039 C 
ATOM     34  C   UNL     1      37.061 -20.379 -20.246  0.00  0.00    +0.018 C 
ATOM     35  C   UNL     1      35.959 -18.602 -21.484  0.00  0.00    +0.148 C 
ATOM     36  C   UNL     1      37.120 -19.212 -21.014  0.00  0.00    +0.039 C 
ATOM     37  C   UNL     1      33.426 -23.284 -18.535  0.00  0.00    +0.047 C 
ATOM     38  H   UNL     1      36.070 -22.640 -18.810  0.00  0.00    +0.152 HD
ENDBRANCH  27  35
ENDBRANCH   5  27
TORSDOF 9
ENDMDL
MODEL 9
REMARK VINA RESULT:     -12.1      3.053     11.544
REMARK  Name = 52920501
REMARK  9 active torsions:
REMARK  status: ('A' for Active; 'I' for Inactive)
REMARK    1  A    between atoms: N_1  and  C_12
REMARK    2  A    between atoms: C_5  and  O_27
REMARK    3  A    between atoms: C_9  and  C_15
REMARK    4  A    between atoms: C_15  and  S_16
REMARK    5  A    between atoms: S_16  and  N_19
REMARK    6  A    between atoms: N_19  and  C_21
REMARK    7  A    between atoms: C_21  and  C_22
REMARK    8  A    between atoms: C_22  and  N_23
REMARK    9  A    between atoms: O_27  and  C_35
REMARK                            x       y       z     vdW  Elec       q    Type
REMARK                         _______ _______ _______ _____ _____    ______ ____
ROOT
ATOM      1  N   UNL     1      34.903 -19.507 -23.092  0.00  0.00    -0.247 N 
ATOM      2  N   UNL     1      35.053 -17.176 -23.318  0.00  0.00    -0.300 NA
ATOM      3  N   UNL     1      33.850 -18.501 -24.932  0.00  0.00    -0.170 NA
ATOM      4  C   UNL     1      34.587 -18.337 -23.816  0.00  0.00    +0.152 C 
ATOM      5  C   UNL     1      34.732 -16.079 -24.035  0.00  0.00    +0.295 C 
ATOM      6  C   UNL     1      33.985 -16.112 -25.194  0.00  0.00    +0.094 C 
ATOM      7  C   UNL     1      33.566 -17.364 -25.599  0.00  0.00    +0.118 C 
ATOM      8  H   UNL     1      34.542 -20.331 -23.492  0.00  0.00    +0.165 HD
ENDROOT
BRANCH   1  12
ATOM      9  C   UNL     1      35.983 -20.960 -19.862  0.00  0.00    +0.004 C 
ATOM     10  C   UNL     1      35.259 -20.744 -21.034  0.00  0.00    +0.013 C 
ATOM     11  C   UNL     1      37.083 -20.156 -19.564  0.00  0.00    -0.002 C 
ATOM     12  C   UNL     1      35.634 -19.725 -21.909  0.00  0.00    +0.057 C 
ATOM     13  C   UNL     1      37.459 -19.136 -20.439  0.00  0.00    +0.001 C 
ATOM     14  C   UNL     1      36.734 -18.921 -21.611  0.00  0.00    +0.015 C 
BRANCH   9  15
ATOM     15  C   UNL     1      35.582 -22.051 -18.928  0.00  0.00    +0.195 C 
BRANCH  15  16
ATOM     16  S   UNL     1      33.875 -22.400 -19.203  0.00  0.00    +0.045 S 
ATOM     17  O   UNL     1      33.217 -21.177 -19.632  0.00  0.00    -0.157 OA
ATOM     18  O   UNL     1      33.790 -23.601 -20.020  0.00  0.00    -0.157 OA
BRANCH  16  19
ATOM     19  N   UNL     1      33.362 -22.797 -17.620  0.00  0.00    -0.185 NA
ATOM     20  H   UNL     1      32.435 -23.215 -17.702  0.00  0.00    +0.148 HD
BRANCH  19  21
ATOM     21  C   UNL     1      34.182 -23.721 -16.815  0.00  0.00    +0.068 C 
BRANCH  21  22
ATOM     22  C   UNL     1      34.408 -23.119 -15.436  0.00  0.00    -0.058 C 
BRANCH  22  23
ATOM     23  N   UNL     1      35.633 -23.647 -14.848  0.00  0.00    +0.385 N 
ATOM     24  C   UNL     1      35.697 -25.101 -15.009  0.00  0.00    -0.101 C 
ATOM     25  C   UNL     1      36.809 -23.018 -15.453  0.00  0.00    -0.101 C 
ATOM     26  H   UNL     1      35.627 -23.431 -13.851  0.00  0.00    -0.080 HD
ENDBRANCH  22  23
ENDBRANCH  21  22
ENDBRANCH  19  21
ENDBRANCH  16  19
ENDBRANCH  15  16
ENDBRANCH   9  15
ENDBRANCH   1  12
BRANCH   5  27
ATOM     27  O   UNL     1      35.189 -14.861 -23.562  0.00  0.00    -0.427 OA
BRANCH  27  35
ATOM     28  N   UNL     1      31.544 -11.049 -22.066  0.00  0.00    -0.316 N 
ATOM     29  C   UNL     1      33.285 -11.740 -23.277  0.00  0.00    +0.017 C 
ATOM     30  C   UNL     1      32.363 -12.129 -22.303  0.00  0.00    +0.048 C 
ATOM     31  C   UNL     1      31.915  -9.992 -22.852  0.00  0.00    +0.026 C 
ATOM     32  C   UNL     1      32.991 -10.389 -23.614  0.00  0.00    +0.012 C 
ATOM     33  C   UNL     1      34.251 -12.670 -23.708  0.00  0.00    +0.039 C 
ATOM     34  C   UNL     1      32.358 -13.408 -21.737  0.00  0.00    +0.018 C 
ATOM     35  C   UNL     1      34.258 -13.954 -23.151  0.00  0.00    +0.148 C 
ATOM     36  C   UNL     1      33.325 -14.315 -22.180  0.00  0.00    +0.039 C 
ATOM     37  C   UNL     1      31.200  -8.704 -22.794  0.00  0.00    +0.047 C 
ATOM     38  H   UNL     1      30.798 -11.037 -21.423  0.00  0.00    +0.152 HD
ENDBRANCH  27  35
ENDBRANCH   5  27
TORSDOF 9
ENDMDL
