MODEL 1
REMARK VINA RESULT:     -12.6      0.000      0.000
REMARK  Name = 44129603
REMARK  3 active torsions:
REMARK  status: ('A' for Active; 'I' for Inactive)
REMARK    1  A    between atoms: N_5  and  C_17
REMARK    2  A    between atoms: C_12  and  C_24
REMARK    3  A    between atoms: C_24  and  O_25
REMARK                            x       y       z     vdW  Elec       q    Type
REMARK                         _______ _______ _______ _____ _____    ______ ____
ROOT
ATOM      1  N   UNL     1      36.801 -22.956 -15.311  0.00  0.00    -0.246 N 
ATOM      2  N   UNL     1      37.775 -23.046 -14.382  0.00  0.00    -0.163 NA
ATOM      3  N   UNL     1      34.210 -22.853 -16.753  0.00  0.00    -0.336 NA
ATOM      4  N   UNL     1      31.898 -23.549 -16.782  0.00  0.00    -0.170 NA
ATOM      5  N   UNL     1      32.825 -22.356 -18.578  0.00  0.00    -0.247 N 
ATOM      6  C   UNL     1      34.639 -24.187 -12.689  0.00  0.00    +0.035 C 
ATOM      7  C   UNL     1      35.768 -23.725 -13.540  0.00  0.00    +0.024 A 
ATOM      8  C   UNL     1      33.484 -24.770 -13.548  0.00  0.00    +0.035 C 
ATOM      9  C   UNL     1      35.584 -23.358 -14.855  0.00  0.00    +0.106 A 
ATOM     10  C   UNL     1      33.270 -24.073 -14.874  0.00  0.00    +0.030 C 
ATOM     11  C   UNL     1      34.314 -23.427 -15.540  0.00  0.00    +0.158 C 
ATOM     12  C   UNL     1      37.136 -23.513 -13.302  0.00  0.00    +0.174 A 
ATOM     13  C   UNL     1      32.074 -24.110 -15.565  0.00  0.00    +0.110 C 
ATOM     14  C   UNL     1      37.141 -22.443 -16.618  0.00  0.00    +0.154 C 
ATOM     15  C   UNL     1      32.986 -22.950 -17.307  0.00  0.00    +0.149 C 
ATOM     16  H   UNL     1      31.916 -22.448 -18.945  0.00  0.00    +0.165 HD
ENDROOT
BRANCH   5  17
ATOM     17  C   UNL     1      33.707 -21.658 -19.423  0.00  0.00    +0.058 C 
ATOM     18  C   UNL     1      33.226 -20.640 -20.245  0.00  0.00    +0.015 C 
ATOM     19  C   UNL     1      35.063 -21.985 -19.437  0.00  0.00    +0.015 C 
ATOM     20  C   UNL     1      34.102 -19.947 -21.082  0.00  0.00    +0.001 C 
ATOM     21  C   UNL     1      35.938 -21.292 -20.274  0.00  0.00    +0.001 C 
ATOM     22  C   UNL     1      35.458 -20.274 -21.096  0.00  0.00    +0.000 C 
ENDBRANCH   5  17
BRANCH  12  24
ATOM     23  O   UNL     1      37.782 -24.753 -11.361  0.00  0.00    -0.243 OA
ATOM     24  C   UNL     1      37.866 -23.744 -12.088  0.00  0.00    +0.357 C 
BRANCH  24  25
ATOM     25  O   UNL     1      38.713 -22.719 -11.764  0.00  0.00    -0.476 OA
ATOM     26  H   UNL     1      38.592 -21.872 -12.146  0.00  0.00    +0.295 HD
ENDBRANCH  24  25
ENDBRANCH  12  24
TORSDOF 3
ENDMDL
MODEL 2
REMARK VINA RESULT:     -12.5      8.331     11.739
REMARK  Name = 44129603
REMARK  3 active torsions:
REMARK  status: ('A' for Active; 'I' for Inactive)
REMARK    1  A    between atoms: N_5  and  C_17
REMARK    2  A    between atoms: C_12  and  C_24
REMARK    3  A    between atoms: C_24  and  O_25
REMARK                            x       y       z     vdW  Elec       q    Type
REMARK                         _______ _______ _______ _____ _____    ______ ____
ROOT
ATOM      1  N   UNL     1      33.060 -14.563 -21.307  0.00  0.00    -0.246 N 
ATOM      2  N   UNL     1      32.459 -13.558 -20.638  0.00  0.00    -0.163 NA
ATOM      3  N   UNL     1      34.468 -16.242 -23.309  0.00  0.00    -0.336 NA
ATOM      4  N   UNL     1      34.943 -16.605 -25.649  0.00  0.00    -0.170 NA
ATOM      5  N   UNL     1      35.683 -18.119 -24.014  0.00  0.00    -0.247 N 
ATOM      6  C   UNL     1      32.810 -12.370 -24.169  0.00  0.00    +0.035 C 
ATOM      7  C   UNL     1      32.745 -13.029 -22.837  0.00  0.00    +0.024 A 
ATOM      8  C   UNL     1      32.899 -13.415 -25.315  0.00  0.00    +0.035 C 
ATOM      9  C   UNL     1      33.246 -14.295 -22.628  0.00  0.00    +0.106 A 
ATOM     10  C   UNL     1      33.705 -14.651 -24.979  0.00  0.00    +0.030 C 
ATOM     11  C   UNL     1      33.830 -15.112 -23.666  0.00  0.00    +0.158 C 
ATOM     12  C   UNL     1      32.273 -12.623 -21.578  0.00  0.00    +0.174 A 
ATOM     13  C   UNL     1      34.282 -15.461 -25.938  0.00  0.00    +0.110 C 
ATOM     14  C   UNL     1      33.443 -15.748 -20.574  0.00  0.00    +0.154 C 
ATOM     15  C   UNL     1      34.996 -16.929 -24.340  0.00  0.00    +0.149 C 
ATOM     16  H   UNL     1      36.054 -18.588 -24.797  0.00  0.00    +0.165 HD
ENDROOT
BRANCH   5  17
ATOM     17  C   UNL     1      35.942 -18.766 -22.792  0.00  0.00    +0.058 C 
ATOM     18  C   UNL     1      34.990 -19.623 -22.242  0.00  0.00    +0.015 C 
ATOM     19  C   UNL     1      37.151 -18.550 -22.132  0.00  0.00    +0.015 C 
ATOM     20  C   UNL     1      35.247 -20.266 -21.030  0.00  0.00    +0.001 C 
ATOM     21  C   UNL     1      37.409 -19.192 -20.920  0.00  0.00    +0.001 C 
ATOM     22  C   UNL     1      36.457 -20.050 -20.370  0.00  0.00    +0.000 C 
ENDBRANCH   5  17
BRANCH  12  24
ATOM     23  O   UNL     1      32.146 -10.466 -20.552  0.00  0.00    -0.243 OA
ATOM     24  C   UNL     1      31.642 -11.381 -21.232  0.00  0.00    +0.357 C 
BRANCH  24  25
ATOM     25  O   UNL     1      30.372 -11.264 -21.728  0.00  0.00    -0.476 OA
ATOM     26  H   UNL     1      29.634 -11.384 -21.162  0.00  0.00    +0.295 HD
ENDBRANCH  24  25
ENDBRANCH  12  24
TORSDOF 3
ENDMDL
MODEL 3
REMARK VINA RESULT:     -12.0      7.644     11.155
REMARK  Name = 44129603
REMARK  3 active torsions:
REMARK  status: ('A' for Active; 'I' for Inactive)
REMARK    1  A    between atoms: N_5  and  C_17
REMARK    2  A    between atoms: C_12  and  C_24
REMARK    3  A    between atoms: C_24  and  O_25
REMARK                            x       y       z     vdW  Elec       q    Type
REMARK                         _______ _______ _______ _____ _____    ______ ____
ROOT
ATOM      1  N   UNL     1      34.840 -16.102 -21.340  0.00  0.00    -0.246 N 
ATOM      2  N   UNL     1      35.333 -17.153 -20.654  0.00  0.00    -0.163 NA
ATOM      3  N   UNL     1      33.628 -14.316 -23.376  0.00  0.00    -0.336 NA
ATOM      4  N   UNL     1      33.221 -13.933 -25.726  0.00  0.00    -0.170 NA
ATOM      5  N   UNL     1      32.610 -12.337 -24.116  0.00  0.00    -0.247 N 
ATOM      6  C   UNL     1      34.914 -18.338 -24.178  0.00  0.00    +0.035 C 
ATOM      7  C   UNL     1      35.025 -17.675 -22.851  0.00  0.00    +0.024 A 
ATOM      8  C   UNL     1      34.941 -17.302 -25.334  0.00  0.00    +0.035 C 
ATOM      9  C   UNL     1      34.646 -16.365 -22.660  0.00  0.00    +0.106 A 
ATOM     10  C   UNL     1      34.254 -15.990 -25.021  0.00  0.00    +0.030 C 
ATOM     11  C   UNL     1      34.159 -15.505 -23.714  0.00  0.00    +0.158 C 
ATOM     12  C   UNL     1      35.439 -18.112 -21.582  0.00  0.00    +0.174 A 
ATOM     13  C   UNL     1      33.771 -15.137 -25.995  0.00  0.00    +0.110 C 
ATOM     14  C   UNL     1      34.565 -14.878 -20.623  0.00  0.00    +0.154 C 
ATOM     15  C   UNL     1      33.182 -13.592 -24.420  0.00  0.00    +0.149 C 
ATOM     16  H   UNL     1      32.296 -11.843 -24.907  0.00  0.00    +0.165 HD
ENDROOT
BRANCH   5  17
ATOM     17  C   UNL     1      32.399 -11.656 -22.903  0.00  0.00    +0.058 C 
ATOM     18  C   UNL     1      32.490 -10.265 -22.860  0.00  0.00    +0.015 C 
ATOM     19  C   UNL     1      32.099 -12.372 -21.744  0.00  0.00    +0.015 C 
ATOM     20  C   UNL     1      32.280  -9.589 -21.658  0.00  0.00    +0.001 C 
ATOM     21  C   UNL     1      31.889 -11.695 -20.542  0.00  0.00    +0.001 C 
ATOM     22  C   UNL     1      31.980 -10.305 -20.499  0.00  0.00    +0.000 C 
ENDBRANCH   5  17
BRANCH  12  24
ATOM     23  O   UNL     1      35.357 -20.493 -21.375  0.00  0.00    -0.243 OA
ATOM     24  C   UNL     1      35.942 -19.405 -21.216  0.00  0.00    +0.357 C 
BRANCH  24  25
ATOM     25  O   UNL     1      37.185 -19.358 -20.643  0.00  0.00    -0.476 OA
ATOM     26  H   UNL     1      37.473 -18.577 -20.212  0.00  0.00    +0.295 HD
ENDBRANCH  24  25
ENDBRANCH  12  24
TORSDOF 3
ENDMDL
MODEL 4
REMARK VINA RESULT:     -10.7      3.499      6.964
REMARK  Name = 44129603
REMARK  3 active torsions:
REMARK  status: ('A' for Active; 'I' for Inactive)
REMARK    1  A    between atoms: N_5  and  C_17
REMARK    2  A    between atoms: C_12  and  C_24
REMARK    3  A    between atoms: C_24  and  O_25
REMARK                            x       y       z     vdW  Elec       q    Type
REMARK                         _______ _______ _______ _____ _____    ______ ____
ROOT
ATOM      1  N   UNL     1      32.699 -23.977 -15.448  0.00  0.00    -0.246 N 
ATOM      2  N   UNL     1      31.356 -24.053 -15.358  0.00  0.00    -0.163 NA
ATOM      3  N   UNL     1      35.494 -23.257 -16.139  0.00  0.00    -0.336 NA
ATOM      4  N   UNL     1      36.979 -22.340 -17.808  0.00  0.00    -0.170 NA
ATOM      5  N   UNL     1      37.814 -23.229 -15.802  0.00  0.00    -0.247 N 
ATOM      6  C   UNL     1      32.059 -21.920 -18.350  0.00  0.00    +0.035 C 
ATOM      7  C   UNL     1      31.991 -22.798 -17.152  0.00  0.00    +0.024 A 
ATOM      8  C   UNL     1      33.410 -22.085 -19.098  0.00  0.00    +0.035 C 
ATOM      9  C   UNL     1      33.126 -23.242 -16.511  0.00  0.00    +0.106 A 
ATOM     10  C   UNL     1      34.604 -22.329 -18.199  0.00  0.00    +0.030 C 
ATOM     11  C   UNL     1      34.469 -22.946 -16.953  0.00  0.00    +0.158 C 
ATOM     12  C   UNL     1      30.929 -23.327 -16.400  0.00  0.00    +0.174 A 
ATOM     13  C   UNL     1      35.904 -22.060 -18.578  0.00  0.00    +0.110 C 
ATOM     14  C   UNL     1      33.497 -24.635 -14.439  0.00  0.00    +0.154 C 
ATOM     15  C   UNL     1      36.706 -22.928 -16.624  0.00  0.00    +0.149 C 
ATOM     16  H   UNL     1      38.679 -22.970 -16.194  0.00  0.00    +0.165 HD
ENDROOT
BRANCH   5  17
ATOM     17  C   UNL     1      37.925 -23.825 -14.533  0.00  0.00    +0.058 C 
ATOM     18  C   UNL     1      37.377 -23.196 -13.416  0.00  0.00    +0.015 C 
ATOM     19  C   UNL     1      38.582 -25.048 -14.393  0.00  0.00    +0.015 C 
ATOM     20  C   UNL     1      37.486 -23.788 -12.157  0.00  0.00    +0.001 C 
ATOM     21  C   UNL     1      38.691 -25.640 -13.134  0.00  0.00    +0.001 C 
ATOM     22  C   UNL     1      38.144 -25.011 -12.017  0.00  0.00    +0.000 C 
ENDBRANCH   5  17
BRANCH  12  24
ATOM     23  O   UNL     1      28.960 -22.181 -17.126  0.00  0.00    -0.243 OA
ATOM     24  C   UNL     1      29.522 -23.179 -16.635  0.00  0.00    +0.357 C 
BRANCH  24  25
ATOM     25  O   UNL     1      28.793 -24.276 -16.260  0.00  0.00    -0.476 OA
ATOM     26  H   UNL     1      27.930 -24.168 -15.910  0.00  0.00    +0.295 HD
ENDBRANCH  24  25
ENDBRANCH  12  24
TORSDOF 3
ENDMDL
MODEL 5
REMARK VINA RESULT:     -10.6      3.593      6.687
REMARK  Name = 44129603
REMARK  3 active torsions:
REMARK  status: ('A' for Active; 'I' for Inactive)
REMARK    1  A    between atoms: N_5  and  C_17
REMARK    2  A    between atoms: C_12  and  C_24
REMARK    3  A    between atoms: C_24  and  O_25
REMARK                            x       y       z     vdW  Elec       q    Type
REMARK                         _______ _______ _______ _____ _____    ______ ____
ROOT
ATOM      1  N   UNL     1      36.594 -21.805 -18.056  0.00  0.00    -0.246 N 
ATOM      2  N   UNL     1      36.892 -21.012 -19.105  0.00  0.00    -0.163 NA
ATOM      3  N   UNL     1      35.309 -23.677 -16.145  0.00  0.00    -0.336 NA
ATOM      4  N   UNL     1      33.232 -24.575 -15.302  0.00  0.00    -0.170 NA
ATOM      5  N   UNL     1      35.286 -25.156 -14.327  0.00  0.00    -0.247 N 
ATOM      6  C   UNL     1      33.262 -21.853 -19.456  0.00  0.00    +0.035 C 
ATOM      7  C   UNL     1      34.695 -21.621 -19.129  0.00  0.00    +0.024 A 
ATOM      8  C   UNL     1      32.446 -22.229 -18.190  0.00  0.00    +0.035 C 
ATOM      9  C   UNL     1      35.289 -22.189 -18.025  0.00  0.00    +0.106 A 
ATOM     10  C   UNL     1      33.197 -23.072 -17.182  0.00  0.00    +0.030 C 
ATOM     11  C   UNL     1      34.588 -23.011 -17.066  0.00  0.00    +0.158 C 
ATOM     12  C   UNL     1      35.727 -20.907 -19.759  0.00  0.00    +0.174 A 
ATOM     13  C   UNL     1      32.569 -23.874 -16.249  0.00  0.00    +0.110 C 
ATOM     14  C   UNL     1      37.652 -22.161 -17.138  0.00  0.00    +0.154 C 
ATOM     15  C   UNL     1      34.574 -24.432 -15.307  0.00  0.00    +0.149 C 
ATOM     16  H   UNL     1      34.711 -25.696 -13.737  0.00  0.00    +0.165 HD
ENDROOT
BRANCH   5  17
ATOM     17  C   UNL     1      36.657 -25.259 -14.027  0.00  0.00    +0.058 C 
ATOM     18  C   UNL     1      37.182 -24.588 -12.923  0.00  0.00    +0.015 C 
ATOM     19  C   UNL     1      37.490 -26.034 -14.834  0.00  0.00    +0.015 C 
ATOM     20  C   UNL     1      38.541 -24.691 -12.625  0.00  0.00    +0.001 C 
ATOM     21  C   UNL     1      38.850 -26.137 -14.536  0.00  0.00    +0.001 C 
ATOM     22  C   UNL     1      39.374 -25.465 -13.432  0.00  0.00    +0.000 C 
ENDBRANCH   5  17
BRANCH  12  24
ATOM     23  O   UNL     1      34.909 -20.334 -21.932  0.00  0.00    -0.243 OA
ATOM     24  C   UNL     1      35.652 -20.118 -20.956  0.00  0.00    +0.357 C 
BRANCH  24  25
ATOM     25  O   UNL     1      36.506 -19.047 -20.951  0.00  0.00    -0.476 OA
ATOM     26  H   UNL     1      36.317 -18.301 -20.416  0.00  0.00    +0.295 HD
ENDBRANCH  24  25
ENDBRANCH  12  24
TORSDOF 3
ENDMDL
MODEL 6
REMARK VINA RESULT:     -10.3     11.127     14.047
REMARK  Name = 44129603
REMARK  3 active torsions:
REMARK  status: ('A' for Active; 'I' for Inactive)
REMARK    1  A    between atoms: N_5  and  C_17
REMARK    2  A    between atoms: C_12  and  C_24
REMARK    3  A    between atoms: C_24  and  O_25
REMARK                            x       y       z     vdW  Elec       q    Type
REMARK                         _______ _______ _______ _____ _____    ______ ____
ROOT
ATOM      1  N   UNL     1      33.886 -12.770 -24.477  0.00  0.00    -0.246 N 
ATOM      2  N   UNL     1      34.318 -13.889 -25.094  0.00  0.00    -0.163 NA
ATOM      3  N   UNL     1      32.970 -10.749 -22.507  0.00  0.00    -0.336 NA
ATOM      4  N   UNL     1      31.874 -10.359 -20.390  0.00  0.00    -0.170 NA
ATOM      5  N   UNL     1      32.514  -8.570 -21.769  0.00  0.00    -0.247 N 
ATOM      6  C   UNL     1      33.261 -14.954 -21.666  0.00  0.00    +0.035 C 
ATOM      7  C   UNL     1      33.604 -14.339 -22.976  0.00  0.00    +0.024 A 
ATOM      8  C   UNL     1      32.202 -14.113 -20.904  0.00  0.00    +0.035 C 
ATOM      9  C   UNL     1      33.442 -12.992 -23.210  0.00  0.00    +0.106 A 
ATOM     10  C   UNL     1      32.332 -12.616 -21.090  0.00  0.00    +0.030 C 
ATOM     11  C   UNL     1      32.891 -12.067 -22.246  0.00  0.00    +0.158 C 
ATOM     12  C   UNL     1      34.147 -14.843 -24.169  0.00  0.00    +0.174 A 
ATOM     13  C   UNL     1      31.823 -11.695 -20.195  0.00  0.00    +0.110 C 
ATOM     14  C   UNL     1      33.961 -11.516 -25.191  0.00  0.00    +0.154 C 
ATOM     15  C   UNL     1      32.449  -9.963 -21.545  0.00  0.00    +0.149 C 
ATOM     16  H   UNL     1      32.125  -8.034 -21.042  0.00  0.00    +0.165 HD
ENDROOT
BRANCH   5  17
ATOM     17  C   UNL     1      33.027  -7.799 -22.828  0.00  0.00    +0.058 C 
ATOM     18  C   UNL     1      32.164  -7.052 -23.629  0.00  0.00    +0.015 C 
ATOM     19  C   UNL     1      34.400  -7.781 -23.076  0.00  0.00    +0.015 C 
ATOM     20  C   UNL     1      32.673  -6.286 -24.678  0.00  0.00    +0.001 C 
ATOM     21  C   UNL     1      34.909  -7.015 -24.125  0.00  0.00    +0.001 C 
ATOM     22  C   UNL     1      34.046  -6.268 -24.926  0.00  0.00    +0.000 C 
ENDBRANCH   5  17
BRANCH  12  24
ATOM     23  O   UNL     1      34.669 -17.118 -23.647  0.00  0.00    -0.243 OA
ATOM     24  C   UNL     1      34.504 -16.199 -24.473  0.00  0.00    +0.357 C 
BRANCH  24  25
ATOM     25  O   UNL     1      34.660 -16.429 -25.813  0.00  0.00    -0.476 OA
ATOM     26  H   UNL     1      34.882 -15.723 -26.387  0.00  0.00    +0.295 HD
ENDBRANCH  24  25
ENDBRANCH  12  24
TORSDOF 3
ENDMDL
MODEL 7
REMARK VINA RESULT:     -10.0      2.578      4.418
REMARK  Name = 44129603
REMARK  3 active torsions:
REMARK  status: ('A' for Active; 'I' for Inactive)
REMARK    1  A    between atoms: N_5  and  C_17
REMARK    2  A    between atoms: C_12  and  C_24
REMARK    3  A    between atoms: C_24  and  O_25
REMARK                            x       y       z     vdW  Elec       q    Type
REMARK                         _______ _______ _______ _____ _____    ______ ____
ROOT
ATOM      1  N   UNL     1      32.414 -23.107 -16.654  0.00  0.00    -0.246 N 
ATOM      2  N   UNL     1      31.307 -23.679 -16.137  0.00  0.00    -0.163 NA
ATOM      3  N   UNL     1      35.197 -22.384 -17.384  0.00  0.00    -0.336 NA
ATOM      4  N   UNL     1      37.519 -22.401 -16.716  0.00  0.00    -0.170 NA
ATOM      5  N   UNL     1      36.835 -21.333 -18.692  0.00  0.00    -0.247 N 
ATOM      6  C   UNL     1      34.179 -25.063 -14.180  0.00  0.00    +0.035 C 
ATOM      7  C   UNL     1      33.182 -24.386 -15.052  0.00  0.00    +0.024 A 
ATOM      8  C   UNL     1      35.492 -24.240 -14.075  0.00  0.00    +0.035 C 
ATOM      9  C   UNL     1      33.559 -23.495 -16.031  0.00  0.00    +0.106 A 
ATOM     10  C   UNL     1      35.882 -23.510 -15.343  0.00  0.00    +0.030 C 
ATOM     11  C   UNL     1      34.927 -23.098 -16.276  0.00  0.00    +0.158 C 
ATOM     12  C   UNL     1      31.784 -24.463 -15.162  0.00  0.00    +0.174 A 
ATOM     13  C   UNL     1      37.176 -23.113 -15.620  0.00  0.00    +0.110 C 
ATOM     14  C   UNL     1      32.266 -22.206 -17.773  0.00  0.00    +0.154 C 
ATOM     15  C   UNL     1      36.499 -22.076 -17.539  0.00  0.00    +0.149 C 
ATOM     16  H   UNL     1      37.796 -21.131 -18.767  0.00  0.00    +0.165 HD
ENDROOT
BRANCH   5  17
ATOM     17  C   UNL     1      36.066 -20.824 -19.754  0.00  0.00    +0.058 C 
ATOM     18  C   UNL     1      34.722 -21.174 -19.873  0.00  0.00    +0.015 C 
ATOM     19  C   UNL     1      36.650 -19.968 -20.689  0.00  0.00    +0.015 C 
ATOM     20  C   UNL     1      33.959 -20.668 -20.927  0.00  0.00    +0.001 C 
ATOM     21  C   UNL     1      35.887 -19.462 -21.742  0.00  0.00    +0.001 C 
ATOM     22  C   UNL     1      34.543 -19.812 -21.861  0.00  0.00    +0.000 C 
ENDBRANCH   5  17
BRANCH  12  24
ATOM     23  O   UNL     1      30.079 -26.100 -14.798  0.00  0.00    -0.243 OA
ATOM     24  C   UNL     1      30.878 -25.245 -14.371  0.00  0.00    +0.357 C 
BRANCH  24  25
ATOM     25  O   UNL     1      30.956 -24.970 -13.032  0.00  0.00    -0.476 OA
ATOM     26  H   UNL     1      31.606 -24.375 -12.712  0.00  0.00    +0.295 HD
ENDBRANCH  24  25
ENDBRANCH  12  24
TORSDOF 3
ENDMDL
MODEL 8
REMARK VINA RESULT:     -10.0      3.534      6.676
REMARK  Name = 44129603
REMARK  3 active torsions:
REMARK  status: ('A' for Active; 'I' for Inactive)
REMARK    1  A    between atoms: N_5  and  C_17
REMARK    2  A    between atoms: C_12  and  C_24
REMARK    3  A    between atoms: C_24  and  O_25
REMARK                            x       y       z     vdW  Elec       q    Type
REMARK                         _______ _______ _______ _____ _____    ______ ____
ROOT
ATOM      1  N   UNL     1      35.362 -22.496 -17.341  0.00  0.00    -0.246 N 
ATOM      2  N   UNL     1      35.311 -21.915 -18.557  0.00  0.00    -0.163 NA
ATOM      3  N   UNL     1      34.760 -23.967 -14.835  0.00  0.00    -0.336 NA
ATOM      4  N   UNL     1      33.052 -24.673 -13.280  0.00  0.00    -0.170 NA
ATOM      5  N   UNL     1      35.324 -25.081 -12.851  0.00  0.00    -0.247 N 
ATOM      6  C   UNL     1      31.775 -22.773 -17.688  0.00  0.00    +0.035 C 
ATOM      7  C   UNL     1      33.229 -22.498 -17.836  0.00  0.00    +0.024 A 
ATOM      8  C   UNL     1      31.370 -22.899 -16.194  0.00  0.00    +0.035 C 
ATOM      9  C   UNL     1      34.138 -22.855 -16.866  0.00  0.00    +0.106 A 
ATOM     10  C   UNL     1      32.415 -23.547 -15.310  0.00  0.00    +0.030 C 
ATOM     11  C   UNL     1      33.777 -23.478 -15.613  0.00  0.00    +0.158 C 
ATOM     12  C   UNL     1      34.006 -21.923 -18.855  0.00  0.00    +0.174 A 
ATOM     13  C   UNL     1      32.117 -24.155 -14.106  0.00  0.00    +0.110 C 
ATOM     14  C   UNL     1      36.652 -22.684 -16.719  0.00  0.00    +0.154 C 
ATOM     15  C   UNL     1      34.329 -24.546 -13.698  0.00  0.00    +0.149 C 
ATOM     16  H   UNL     1      34.966 -25.496 -12.033  0.00  0.00    +0.165 HD
ENDROOT
BRANCH   5  17
ATOM     17  C   UNL     1      36.726 -25.139 -12.945  0.00  0.00    +0.058 C 
ATOM     18  C   UNL     1      37.511 -24.230 -12.237  0.00  0.00    +0.015 C 
ATOM     19  C   UNL     1      37.331 -26.107 -13.748  0.00  0.00    +0.015 C 
ATOM     20  C   UNL     1      38.902 -24.288 -12.330  0.00  0.00    +0.001 C 
ATOM     21  C   UNL     1      38.722 -26.165 -13.841  0.00  0.00    +0.001 C 
ATOM     22  C   UNL     1      39.507 -25.256 -13.133  0.00  0.00    +0.000 C 
ENDBRANCH   5  17
BRANCH  12  24
ATOM     23  O   UNL     1      32.458 -21.586 -20.647  0.00  0.00    -0.243 OA
ATOM     24  C   UNL     1      33.557 -21.370 -20.101  0.00  0.00    +0.357 C 
BRANCH  24  25
ATOM     25  O   UNL     1      34.475 -20.539 -20.684  0.00  0.00    -0.476 OA
ATOM     26  H   UNL     1      35.285 -20.886 -21.004  0.00  0.00    +0.295 HD
ENDBRANCH  24  25
ENDBRANCH  12  24
TORSDOF 3
ENDMDL
