MODEL 1
REMARK VINA RESULT:     -13.3      0.000      0.000
REMARK  Name = 24996872
REMARK  6 active torsions:
REMARK  status: ('A' for Active; 'I' for Inactive)
REMARK    1  A    between atoms: O_1  and  C_3
REMARK    2  A    between atoms: O_1  and  C_18
REMARK    3  A    between atoms: C_7  and  C_8
REMARK    4  A    between atoms: C_11  and  S_14
REMARK    5  A    between atoms: C_18  and  C_23
REMARK    6  A    between atoms: C_29  and  C_30
REMARK                            x       y       z     vdW  Elec       q    Type
REMARK                         _______ _______ _______ _____ _____    ______ ____
ROOT
ATOM      1  O   UNL     1      35.466 -18.569 -23.144  0.00  0.00    -0.474 OA
ENDROOT
BRANCH   1   3
ATOM      2  N   UNL     1      34.463 -15.250 -21.970  0.00  0.00    -0.241 NA
ATOM      3  C   UNL     1      34.991 -17.281 -23.171  0.00  0.00    +0.158 C 
ATOM      4  C   UNL     1      34.568 -16.698 -24.359  0.00  0.00    +0.040 C 
ATOM      5  C   UNL     1      34.919 -16.522 -22.013  0.00  0.00    +0.136 C 
ATOM      6  C   UNL     1      34.092 -15.391 -24.356  0.00  0.00    +0.022 C 
ATOM      7  C   UNL     1      34.060 -14.716 -23.146  0.00  0.00    +0.082 C 
BRANCH   7   8
ATOM      8  C   UNL     1      33.579 -13.358 -23.066  0.00  0.00    +0.018 C 
ATOM      9  C   UNL     1      32.621 -13.012 -22.112  0.00  0.00    +0.003 C 
ATOM     10  C   UNL     1      34.072 -12.390 -23.941  0.00  0.00    +0.003 C 
ATOM     11  C   UNL     1      32.650 -10.731 -22.911  0.00  0.00    +0.106 C 
ATOM     12  C   UNL     1      32.156 -11.699 -22.036  0.00  0.00    +0.018 C 
ATOM     13  C   UNL     1      33.608 -11.077 -23.865  0.00  0.00    +0.018 C 
BRANCH  11  14
ATOM     14  S   UNL     1      32.068  -9.089 -22.815  0.00  0.00    +0.010 S 
ATOM     15  O   UNL     1      33.007  -8.237 -23.534  0.00  0.00    -0.169 OA
ATOM     16  O   UNL     1      30.656  -9.065 -23.169  0.00  0.00    -0.169 OA
ATOM     17  C   UNL     1      32.176  -8.682 -21.087  0.00  0.00    +0.182 C 
ENDBRANCH  11  14
ENDBRANCH   7   8
ENDBRANCH   1   3
BRANCH   1  18
ATOM     18  C   UNL     1      36.147 -18.980 -21.972  0.00  0.00    +0.205 C 
BRANCH  18  23
ATOM     19  O   UNL     1      34.411 -23.011 -17.308  0.00  0.00    -0.296 OA
ATOM     20  N   UNL     1      34.211 -21.659 -19.210  0.00  0.00    -0.251 N 
ATOM     21  N   UNL     1      32.313 -22.613 -17.984  0.00  0.00    -0.300 NA
ATOM     22  N   UNL     1      33.575 -23.686 -16.408  0.00  0.00    -0.010 NA
ATOM     23  C   UNL     1      35.424 -20.193 -21.392  0.00  0.00    +0.047 C 
ATOM     24  C   UNL     1      34.065 -19.791 -20.809  0.00  0.00    +0.025 C 
ATOM     25  C   UNL     1      36.269 -20.863 -20.303  0.00  0.00    +0.025 C 
ATOM     26  C   UNL     1      33.346 -20.989 -20.190  0.00  0.00    +0.096 C 
ATOM     27  C   UNL     1      35.543 -22.055 -19.680  0.00  0.00    +0.096 C 
ATOM     28  C   UNL     1      33.587 -22.405 -18.202  0.00  0.00    +0.379 C 
ATOM     29  C   UNL     1      32.355 -23.403 -16.873  0.00  0.00    +0.104 C 
BRANCH  29  30
ATOM     30  C   UNL     1      31.141 -23.911 -16.228  0.00  0.00    +0.101 C 
ATOM     31  C   UNL     1      31.295 -24.106 -14.697  0.00  0.00    +0.017 C 
ATOM     32  C   UNL     1      29.890 -23.036 -16.497  0.00  0.00    +0.017 C 
ENDBRANCH  29  30
ENDBRANCH  18  23
ENDBRANCH   1  18
TORSDOF 6
ENDMDL
MODEL 2
REMARK VINA RESULT:     -13.1      3.660     11.773
REMARK  Name = 24996872
REMARK  6 active torsions:
REMARK  status: ('A' for Active; 'I' for Inactive)
REMARK    1  A    between atoms: O_1  and  C_3
REMARK    2  A    between atoms: O_1  and  C_18
REMARK    3  A    between atoms: C_7  and  C_8
REMARK    4  A    between atoms: C_11  and  S_14
REMARK    5  A    between atoms: C_18  and  C_23
REMARK    6  A    between atoms: C_29  and  C_30
REMARK                            x       y       z     vdW  Elec       q    Type
REMARK                         _______ _______ _______ _____ _____    ______ ____
ROOT
ATOM      1  O   UNL     1      34.990 -15.563 -24.448  0.00  0.00    -0.474 OA
ENDROOT
BRANCH   1   3
ATOM      2  N   UNL     1      34.730 -17.580 -21.404  0.00  0.00    -0.241 NA
ATOM      3  C   UNL     1      34.850 -16.662 -23.638  0.00  0.00    +0.158 C 
ATOM      4  C   UNL     1      34.690 -17.934 -24.176  0.00  0.00    +0.040 C 
ATOM      5  C   UNL     1      34.863 -16.540 -22.258  0.00  0.00    +0.136 C 
ATOM      6  C   UNL     1      34.550 -19.029 -23.331  0.00  0.00    +0.022 C 
ATOM      7  C   UNL     1      34.576 -18.800 -21.965  0.00  0.00    +0.082 C 
BRANCH   7   8
ATOM      8  C   UNL     1      34.437 -19.889 -21.027  0.00  0.00    +0.018 C 
ATOM      9  C   UNL     1      35.568 -20.568 -20.573  0.00  0.00    +0.003 C 
ATOM     10  C   UNL     1      33.172 -20.261 -20.573  0.00  0.00    +0.003 C 
ATOM     11  C   UNL     1      34.167 -21.992 -19.213  0.00  0.00    +0.106 C 
ATOM     12  C   UNL     1      35.432 -21.619 -19.667  0.00  0.00    +0.018 C 
ATOM     13  C   UNL     1      33.036 -21.313 -19.667  0.00  0.00    +0.018 C 
BRANCH  11  14
ATOM     14  S   UNL     1      33.998 -23.308 -18.079  0.00  0.00    +0.010 S 
ATOM     15  O   UNL     1      33.736 -24.523 -18.838  0.00  0.00    -0.169 OA
ATOM     16  O   UNL     1      35.111 -23.269 -17.140  0.00  0.00    -0.169 OA
ATOM     17  C   UNL     1      32.528 -22.912 -17.158  0.00  0.00    +0.182 C 
ENDBRANCH  11  14
ENDBRANCH   7   8
ENDBRANCH   1   3
BRANCH   1  18
ATOM     18  C   UNL     1      33.829 -14.791 -24.693  0.00  0.00    +0.205 C 
BRANCH  18  23
ATOM     19  O   UNL     1      33.113  -8.498 -23.739  0.00  0.00    -0.296 OA
ATOM     20  N   UNL     1      33.103 -10.792 -23.266  0.00  0.00    -0.251 N 
ATOM     21  N   UNL     1      32.060  -9.082 -21.851  0.00  0.00    -0.300 NA
ATOM     22  N   UNL     1      32.635  -7.308 -23.175  0.00  0.00    -0.010 NA
ATOM     23  C   UNL     1      33.932 -13.493 -23.895  0.00  0.00    +0.047 C 
ATOM     24  C   UNL     1      32.624 -13.206 -23.151  0.00  0.00    +0.025 C 
ATOM     25  C   UNL     1      34.268 -12.313 -24.813  0.00  0.00    +0.025 C 
ATOM     26  C   UNL     1      32.699 -11.890 -22.377  0.00  0.00    +0.096 C 
ATOM     27  C   UNL     1      34.333 -10.997 -24.038  0.00  0.00    +0.096 C 
ATOM     28  C   UNL     1      32.730  -9.493 -22.897  0.00  0.00    +0.379 C 
ATOM     29  C   UNL     1      32.026  -7.736 -22.065  0.00  0.00    +0.104 C 
BRANCH  29  30
ATOM     30  C   UNL     1      31.363  -6.812 -21.139  0.00  0.00    +0.101 C 
ATOM     31  C   UNL     1      32.250  -6.414 -19.930  0.00  0.00    +0.017 C 
ATOM     32  C   UNL     1      30.843  -5.523 -21.823  0.00  0.00    +0.017 C 
ENDBRANCH  29  30
ENDBRANCH  18  23
ENDBRANCH   1  18
TORSDOF 6
ENDMDL
MODEL 3
REMARK VINA RESULT:     -13.1      3.801     11.187
REMARK  Name = 24996872
REMARK  6 active torsions:
REMARK  status: ('A' for Active; 'I' for Inactive)
REMARK    1  A    between atoms: O_1  and  C_3
REMARK    2  A    between atoms: O_1  and  C_18
REMARK    3  A    between atoms: C_7  and  C_8
REMARK    4  A    between atoms: C_11  and  S_14
REMARK    5  A    between atoms: C_18  and  C_23
REMARK    6  A    between atoms: C_29  and  C_30
REMARK                            x       y       z     vdW  Elec       q    Type
REMARK                         _______ _______ _______ _____ _____    ______ ____
ROOT
ATOM      1  O   UNL     1      34.950 -19.688 -22.297  0.00  0.00    -0.474 OA
ENDROOT
BRANCH   1   3
ATOM      2  N   UNL     1      32.758 -21.075 -19.713  0.00  0.00    -0.241 NA
ATOM      3  C   UNL     1      34.548 -20.388 -21.186  0.00  0.00    +0.158 C 
ATOM      4  C   UNL     1      35.463 -21.100 -20.419  0.00  0.00    +0.040 C 
ATOM      5  C   UNL     1      33.219 -20.407 -20.795  0.00  0.00    +0.136 C 
ATOM      6  C   UNL     1      35.027 -21.799 -19.298  0.00  0.00    +0.022 C 
ATOM      7  C   UNL     1      33.677 -21.755 -18.992  0.00  0.00    +0.082 C 
BRANCH   7   8
ATOM      8  C   UNL     1      33.153 -22.457 -17.844  0.00  0.00    +0.018 C 
ATOM      9  C   UNL     1      34.021 -23.120 -16.976  0.00  0.00    +0.003 C 
ATOM     10  C   UNL     1      31.779 -22.472 -17.603  0.00  0.00    +0.003 C 
ATOM     11  C   UNL     1      32.140 -23.813 -15.626  0.00  0.00    +0.106 C 
ATOM     12  C   UNL     1      33.513 -23.798 -15.867  0.00  0.00    +0.018 C 
ATOM     13  C   UNL     1      31.272 -23.150 -16.495  0.00  0.00    +0.018 C 
BRANCH  11  14
ATOM     14  S   UNL     1      31.505 -24.661 -14.239  0.00  0.00    +0.010 S 
ATOM     15  O   UNL     1      32.473 -25.681 -13.855  0.00  0.00    -0.169 OA
ATOM     16  O   UNL     1      31.055 -23.687 -13.254  0.00  0.00    -0.169 OA
ATOM     17  C   UNL     1      30.054 -25.487 -14.851  0.00  0.00    +0.182 C 
ENDBRANCH  11  14
ENDBRANCH   7   8
ENDBRANCH   1   3
BRANCH   1  18
ATOM     18  C   UNL     1      36.180 -18.992 -22.210  0.00  0.00    +0.205 C 
BRANCH  18  23
ATOM     19  O   UNL     1      32.796 -13.713 -23.516  0.00  0.00    -0.296 OA
ATOM     20  N   UNL     1      34.095 -15.223 -22.284  0.00  0.00    -0.251 N 
ATOM     21  N   UNL     1      32.897 -13.316 -21.314  0.00  0.00    -0.300 NA
ATOM     22  N   UNL     1      32.015 -12.572 -23.289  0.00  0.00    -0.010 NA
ATOM     23  C   UNL     1      35.888 -17.494 -22.176  0.00  0.00    +0.047 C 
ATOM     24  C   UNL     1      34.959 -17.146 -21.009  0.00  0.00    +0.025 C 
ATOM     25  C   UNL     1      35.251 -17.032 -23.491  0.00  0.00    +0.025 C 
ATOM     26  C   UNL     1      34.627 -15.654 -20.984  0.00  0.00    +0.096 C 
ATOM     27  C   UNL     1      34.912 -15.541 -23.460  0.00  0.00    +0.096 C 
ATOM     28  C   UNL     1      33.277 -14.087 -22.302  0.00  0.00    +0.379 C 
ATOM     29  C   UNL     1      32.124 -12.402 -21.969  0.00  0.00    +0.104 C 
BRANCH  29  30
ATOM     30  C   UNL     1      31.454 -11.301 -21.270  0.00  0.00    +0.101 C 
ATOM     31  C   UNL     1      32.072 -10.988 -19.882  0.00  0.00    +0.017 C 
ATOM     32  C   UNL     1      31.397  -9.992 -22.097  0.00  0.00    +0.017 C 
ENDBRANCH  29  30
ENDBRANCH  18  23
ENDBRANCH   1  18
TORSDOF 6
ENDMDL
MODEL 4
REMARK VINA RESULT:     -13.0      3.667     11.358
REMARK  Name = 24996872
REMARK  6 active torsions:
REMARK  status: ('A' for Active; 'I' for Inactive)
REMARK    1  A    between atoms: O_1  and  C_3
REMARK    2  A    between atoms: O_1  and  C_18
REMARK    3  A    between atoms: C_7  and  C_8
REMARK    4  A    between atoms: C_11  and  S_14
REMARK    5  A    between atoms: C_18  and  C_23
REMARK    6  A    between atoms: C_29  and  C_30
REMARK                            x       y       z     vdW  Elec       q    Type
REMARK                         _______ _______ _______ _____ _____    ______ ____
ROOT
ATOM      1  O   UNL     1      35.257 -15.432 -24.006  0.00  0.00    -0.474 OA
ENDROOT
BRANCH   1   3
ATOM      2  N   UNL     1      34.884 -17.599 -21.078  0.00  0.00    -0.241 NA
ATOM      3  C   UNL     1      35.071 -16.568 -23.258  0.00  0.00    +0.158 C 
ATOM      4  C   UNL     1      34.886 -17.804 -23.866  0.00  0.00    +0.040 C 
ATOM      5  C   UNL     1      35.062 -16.519 -21.873  0.00  0.00    +0.136 C 
ATOM      6  C   UNL     1      34.700 -18.938 -23.083  0.00  0.00    +0.022 C 
ATOM      7  C   UNL     1      34.707 -18.783 -21.706  0.00  0.00    +0.082 C 
BRANCH   7   8
ATOM      8  C   UNL     1      34.520 -19.915 -20.830  0.00  0.00    +0.018 C 
ATOM      9  C   UNL     1      35.627 -20.614 -20.348  0.00  0.00    +0.003 C 
ATOM     10  C   UNL     1      33.233 -20.309 -20.465  0.00  0.00    +0.003 C 
ATOM     11  C   UNL     1      34.158 -22.102 -19.136  0.00  0.00    +0.106 C 
ATOM     12  C   UNL     1      35.445 -21.708 -19.502  0.00  0.00    +0.018 C 
ATOM     13  C   UNL     1      33.052 -21.403 -19.618  0.00  0.00    +0.018 C 
BRANCH  11  14
ATOM     14  S   UNL     1      33.931 -23.471 -18.077  0.00  0.00    +0.010 S 
ATOM     15  O   UNL     1      33.653 -24.637 -18.904  0.00  0.00    -0.169 OA
ATOM     16  O   UNL     1      35.025 -23.512 -17.116  0.00  0.00    -0.169 OA
ATOM     17  C   UNL     1      32.454 -23.084 -17.164  0.00  0.00    +0.182 C 
ENDBRANCH  11  14
ENDBRANCH   7   8
ENDBRANCH   1   3
BRANCH   1  18
ATOM     18  C   UNL     1      34.321 -15.180 -25.038  0.00  0.00    +0.205 C 
BRANCH  18  23
ATOM     19  O   UNL     1      32.054 -10.740 -21.017  0.00  0.00    -0.296 OA
ATOM     20  N   UNL     1      32.933 -11.657 -22.985  0.00  0.00    -0.251 N 
ATOM     21  N   UNL     1      32.800  -9.253 -22.517  0.00  0.00    -0.300 NA
ATOM     22  N   UNL     1      31.839  -9.476 -20.453  0.00  0.00    -0.010 NA
ATOM     23  C   UNL     1      33.498 -13.952 -24.656  0.00  0.00    +0.047 C 
ATOM     24  C   UNL     1      34.354 -12.682 -24.716  0.00  0.00    +0.025 C 
ATOM     25  C   UNL     1      32.909 -14.105 -23.251  0.00  0.00    +0.025 C 
ATOM     26  C   UNL     1      33.554 -11.449 -24.300  0.00  0.00    +0.096 C 
ATOM     27  C   UNL     1      32.116 -12.866 -22.834  0.00  0.00    +0.096 C 
ATOM     28  C   UNL     1      32.623 -10.518 -22.231  0.00  0.00    +0.379 C 
ATOM     29  C   UNL     1      32.304  -8.652 -21.397  0.00  0.00    +0.104 C 
BRANCH  29  30
ATOM     30  C   UNL     1      32.283  -7.195 -21.236  0.00  0.00    +0.101 C 
ATOM     31  C   UNL     1      31.280  -6.487 -22.184  0.00  0.00    +0.017 C 
ATOM     32  C   UNL     1      32.001  -6.742 -19.781  0.00  0.00    +0.017 C 
ENDBRANCH  29  30
ENDBRANCH  18  23
ENDBRANCH   1  18
TORSDOF 6
ENDMDL
MODEL 5
REMARK VINA RESULT:     -12.9      4.350     11.580
REMARK  Name = 24996872
REMARK  6 active torsions:
REMARK  status: ('A' for Active; 'I' for Inactive)
REMARK    1  A    between atoms: O_1  and  C_3
REMARK    2  A    between atoms: O_1  and  C_18
REMARK    3  A    between atoms: C_7  and  C_8
REMARK    4  A    between atoms: C_11  and  S_14
REMARK    5  A    between atoms: C_18  and  C_23
REMARK    6  A    between atoms: C_29  and  C_30
REMARK                            x       y       z     vdW  Elec       q    Type
REMARK                         _______ _______ _______ _____ _____    ______ ____
ROOT
ATOM      1  O   UNL     1      34.897 -19.548 -22.041  0.00  0.00    -0.474 OA
ENDROOT
BRANCH   1   3
ATOM      2  N   UNL     1      36.689 -20.995 -19.195  0.00  0.00    -0.241 NA
ATOM      3  C   UNL     1      35.130 -20.266 -20.894  0.00  0.00    +0.158 C 
ATOM      4  C   UNL     1      34.108 -20.971 -20.270  0.00  0.00    +0.040 C 
ATOM      5  C   UNL     1      36.392 -20.309 -20.322  0.00  0.00    +0.136 C 
ATOM      6  C   UNL     1      34.374 -21.690 -19.109  0.00  0.00    +0.022 C 
ATOM      7  C   UNL     1      35.669 -21.669 -18.616  0.00  0.00    +0.082 C 
BRANCH   7   8
ATOM      8  C   UNL     1      36.019 -22.390 -17.416  0.00  0.00    +0.018 C 
ATOM      9  C   UNL     1      35.050 -23.134 -16.742  0.00  0.00    +0.003 C 
ATOM     10  C   UNL     1      37.325 -22.345 -16.930  0.00  0.00    +0.003 C 
ATOM     11  C   UNL     1      36.695 -23.786 -15.096  0.00  0.00    +0.106 C 
ATOM     12  C   UNL     1      35.389 -23.831 -15.582  0.00  0.00    +0.018 C 
ATOM     13  C   UNL     1      37.664 -23.041 -15.770  0.00  0.00    +0.018 C 
BRANCH  11  14
ATOM     14  S   UNL     1      37.119 -24.658 -13.645  0.00  0.00    +0.010 S 
ATOM     15  O   UNL     1      38.345 -24.078 -13.115  0.00  0.00    -0.169 OA
ATOM     16  O   UNL     1      35.941 -24.760 -12.794  0.00  0.00    -0.169 OA
ATOM     17  C   UNL     1      37.493 -26.302 -14.211  0.00  0.00    +0.182 C 
ENDBRANCH  11  14
ENDBRANCH   7   8
ENDBRANCH   1   3
BRANCH   1  18
ATOM     18  C   UNL     1      36.000 -18.864 -22.608  0.00  0.00    +0.205 C 
BRANCH  18  23
ATOM     19  O   UNL     1      32.653 -13.483 -23.533  0.00  0.00    -0.296 OA
ATOM     20  N   UNL     1      33.994 -15.057 -22.432  0.00  0.00    -0.251 N 
ATOM     21  N   UNL     1      32.897 -13.160 -21.330  0.00  0.00    -0.300 NA
ATOM     22  N   UNL     1      31.912 -12.335 -23.222  0.00  0.00    -0.010 NA
ATOM     23  C   UNL     1      35.742 -17.363 -22.508  0.00  0.00    +0.047 C 
ATOM     24  C   UNL     1      34.893 -17.036 -21.275  0.00  0.00    +0.025 C 
ATOM     25  C   UNL     1      35.036 -16.846 -23.765  0.00  0.00    +0.025 C 
ATOM     26  C   UNL     1      34.595 -15.540 -21.182  0.00  0.00    +0.096 C 
ATOM     27  C   UNL     1      34.731 -15.351 -23.666  0.00  0.00    +0.096 C 
ATOM     28  C   UNL     1      33.200 -13.905 -22.363  0.00  0.00    +0.379 C 
ATOM     29  C   UNL     1      32.105 -12.211 -21.906  0.00  0.00    +0.104 C 
BRANCH  29  30
ATOM     30  C   UNL     1      31.502 -11.121 -21.132  0.00  0.00    +0.101 C 
ATOM     31  C   UNL     1      32.038 -11.030 -19.679  0.00  0.00    +0.017 C 
ATOM     32  C   UNL     1      31.649  -9.734 -21.806  0.00  0.00    +0.017 C 
ENDBRANCH  29  30
ENDBRANCH  18  23
ENDBRANCH   1  18
TORSDOF 6
ENDMDL
MODEL 6
REMARK VINA RESULT:     -12.7      4.596     11.921
REMARK  Name = 24996872
REMARK  6 active torsions:
REMARK  status: ('A' for Active; 'I' for Inactive)
REMARK    1  A    between atoms: O_1  and  C_3
REMARK    2  A    between atoms: O_1  and  C_18
REMARK    3  A    between atoms: C_7  and  C_8
REMARK    4  A    between atoms: C_11  and  S_14
REMARK    5  A    between atoms: C_18  and  C_23
REMARK    6  A    between atoms: C_29  and  C_30
REMARK                            x       y       z     vdW  Elec       q    Type
REMARK                         _______ _______ _______ _____ _____    ______ ____
ROOT
ATOM      1  O   UNL     1      34.973 -20.439 -21.297  0.00  0.00    -0.474 OA
ENDROOT
BRANCH   1   3
ATOM      2  N   UNL     1      34.482 -22.436 -18.268  0.00  0.00    -0.241 NA
ATOM      3  C   UNL     1      35.247 -21.061 -20.104  0.00  0.00    +0.158 C 
ATOM      4  C   UNL     1      36.506 -20.969 -19.521  0.00  0.00    +0.040 C 
ATOM      5  C   UNL     1      34.278 -21.799 -19.443  0.00  0.00    +0.136 C 
ATOM      6  C   UNL     1      36.754 -21.609 -18.312  0.00  0.00    +0.022 C 
ATOM      7  C   UNL     1      35.719 -22.324 -17.732  0.00  0.00    +0.082 C 
BRANCH   7   8
ATOM      8  C   UNL     1      35.904 -23.014 -16.477  0.00  0.00    +0.018 C 
ATOM      9  C   UNL     1      34.848 -23.729 -15.912  0.00  0.00    +0.003 C 
ATOM     10  C   UNL     1      37.139 -22.967 -15.831  0.00  0.00    +0.003 C 
ATOM     11  C   UNL     1      36.263 -24.348 -14.053  0.00  0.00    +0.106 C 
ATOM     12  C   UNL     1      35.028 -24.395 -14.700  0.00  0.00    +0.018 C 
ATOM     13  C   UNL     1      37.319 -23.633 -14.619  0.00  0.00    +0.018 C 
BRANCH  11  14
ATOM     14  S   UNL     1      36.487 -25.183 -12.537  0.00  0.00    +0.010 S 
ATOM     15  O   UNL     1      35.290 -24.982 -11.732  0.00  0.00    -0.169 OA
ATOM     16  O   UNL     1      36.958 -26.535 -12.806  0.00  0.00    -0.169 OA
ATOM     17  C   UNL     1      37.826 -24.316 -11.749  0.00  0.00    +0.182 C 
ENDBRANCH  11  14
ENDBRANCH   7   8
ENDBRANCH   1   3
BRANCH   1  18
ATOM     18  C   UNL     1      36.078 -19.972 -22.049  0.00  0.00    +0.205 C 
BRANCH  18  23
ATOM     19  O   UNL     1      33.279 -14.661 -24.280  0.00  0.00    -0.296 OA
ATOM     20  N   UNL     1      34.370 -16.085 -22.774  0.00  0.00    -0.251 N 
ATOM     21  N   UNL     1      33.318 -13.958 -22.154  0.00  0.00    -0.300 NA
ATOM     22  N   UNL     1      32.602 -13.434 -24.262  0.00  0.00    -0.010 NA
ATOM     23  C   UNL     1      35.930 -18.465 -22.243  0.00  0.00    +0.047 C 
ATOM     24  C   UNL     1      34.986 -17.870 -21.193  0.00  0.00    +0.025 C 
ATOM     25  C   UNL     1      35.401 -18.145 -23.645  0.00  0.00    +0.025 C 
ATOM     26  C   UNL     1      34.798 -16.367 -21.398  0.00  0.00    +0.096 C 
ATOM     27  C   UNL     1      35.205 -16.641 -23.844  0.00  0.00    +0.096 C 
ATOM     28  C   UNL     1      33.666 -14.895 -22.999  0.00  0.00    +0.379 C 
ATOM     29  C   UNL     1      32.667 -13.084 -22.974  0.00  0.00    +0.104 C 
BRANCH  29  30
ATOM     30  C   UNL     1      32.074 -11.838 -22.478  0.00  0.00    +0.101 C 
ATOM     31  C   UNL     1      31.876 -11.824 -20.940  0.00  0.00    +0.017 C 
ATOM     32  C   UNL     1      32.868 -10.573 -22.891  0.00  0.00    +0.017 C 
ENDBRANCH  29  30
ENDBRANCH  18  23
ENDBRANCH   1  18
TORSDOF 6
ENDMDL
MODEL 7
REMARK VINA RESULT:     -12.6      2.210      2.706
REMARK  Name = 24996872
REMARK  6 active torsions:
REMARK  status: ('A' for Active; 'I' for Inactive)
REMARK    1  A    between atoms: O_1  and  C_3
REMARK    2  A    between atoms: O_1  and  C_18
REMARK    3  A    between atoms: C_7  and  C_8
REMARK    4  A    between atoms: C_11  and  S_14
REMARK    5  A    between atoms: C_18  and  C_23
REMARK    6  A    between atoms: C_29  and  C_30
REMARK                            x       y       z     vdW  Elec       q    Type
REMARK                         _______ _______ _______ _____ _____    ______ ____
ROOT
ATOM      1  O   UNL     1      35.428 -18.389 -22.211  0.00  0.00    -0.474 OA
ENDROOT
BRANCH   1   3
ATOM      2  N   UNL     1      34.149 -15.213 -23.509  0.00  0.00    -0.241 NA
ATOM      3  C   UNL     1      34.940 -17.105 -22.228  0.00  0.00    +0.158 C 
ATOM      4  C   UNL     1      34.740 -16.399 -21.048  0.00  0.00    +0.040 C 
ATOM      5  C   UNL     1      34.632 -16.473 -23.422  0.00  0.00    +0.136 C 
ATOM      6  C   UNL     1      34.245 -15.100 -21.096  0.00  0.00    +0.022 C 
ATOM      7  C   UNL     1      33.967 -14.558 -22.341  0.00  0.00    +0.082 C 
BRANCH   7   8
ATOM      8  C   UNL     1      33.451 -13.216 -22.468  0.00  0.00    +0.018 C 
ATOM      9  C   UNL     1      32.515 -12.739 -21.551  0.00  0.00    +0.003 C 
ATOM     10  C   UNL     1      33.890 -12.396 -23.507  0.00  0.00    +0.003 C 
ATOM     11  C   UNL     1      32.455 -10.621 -22.713  0.00  0.00    +0.106 C 
ATOM     12  C   UNL     1      32.016 -11.442 -21.674  0.00  0.00    +0.018 C 
ATOM     13  C   UNL     1      33.392 -11.099 -23.631  0.00  0.00    +0.018 C 
BRANCH  11  14
ATOM     14  S   UNL     1      31.832  -8.999 -22.868  0.00  0.00    +0.010 S 
ATOM     15  O   UNL     1      32.741  -8.248 -23.723  0.00  0.00    -0.169 OA
ATOM     16  O   UNL     1      30.416  -9.066 -23.203  0.00  0.00    -0.169 OA
ATOM     17  C   UNL     1      31.944  -8.323 -21.226  0.00  0.00    +0.182 C 
ENDBRANCH  11  14
ENDBRANCH   7   8
ENDBRANCH   1   3
BRANCH   1  18
ATOM     18  C   UNL     1      34.478 -19.438 -22.168  0.00  0.00    +0.205 C 
BRANCH  18  23
ATOM     19  O   UNL     1      37.468 -21.797 -17.019  0.00  0.00    -0.296 OA
ATOM     20  N   UNL     1      35.864 -21.609 -18.715  0.00  0.00    -0.251 N 
ATOM     21  N   UNL     1      35.635 -23.057 -16.749  0.00  0.00    -0.300 NA
ATOM     22  N   UNL     1      37.646 -22.494 -15.816  0.00  0.00    -0.010 NA
ATOM     23  C   UNL     1      35.024 -20.549 -21.275  0.00  0.00    +0.047 C 
ATOM     24  C   UNL     1      34.011 -20.921 -20.186  0.00  0.00    +0.025 C 
ATOM     25  C   UNL     1      36.344 -20.127 -20.622  0.00  0.00    +0.025 C 
ATOM     26  C   UNL     1      34.559 -22.007 -19.261  0.00  0.00    +0.096 C 
ATOM     27  C   UNL     1      36.885 -21.212 -19.691  0.00  0.00    +0.096 C 
ATOM     28  C   UNL     1      36.259 -22.186 -17.502  0.00  0.00    +0.379 C 
ATOM     29  C   UNL     1      36.524 -23.214 -15.727  0.00  0.00    +0.104 C 
BRANCH  29  30
ATOM     30  C   UNL     1      36.267 -24.115 -14.599  0.00  0.00    +0.101 C 
ATOM     31  C   UNL     1      36.470 -25.612 -14.951  0.00  0.00    +0.017 C 
ATOM     32  C   UNL     1      37.108 -23.781 -13.341  0.00  0.00    +0.017 C 
ENDBRANCH  29  30
ENDBRANCH  18  23
ENDBRANCH   1  18
TORSDOF 6
ENDMDL
MODEL 8
REMARK VINA RESULT:     -12.3      3.947     11.152
REMARK  Name = 24996872
REMARK  6 active torsions:
REMARK  status: ('A' for Active; 'I' for Inactive)
REMARK    1  A    between atoms: O_1  and  C_3
REMARK    2  A    between atoms: O_1  and  C_18
REMARK    3  A    between atoms: C_7  and  C_8
REMARK    4  A    between atoms: C_11  and  S_14
REMARK    5  A    between atoms: C_18  and  C_23
REMARK    6  A    between atoms: C_29  and  C_30
REMARK                            x       y       z     vdW  Elec       q    Type
REMARK                         _______ _______ _______ _____ _____    ______ ____
ROOT
ATOM      1  O   UNL     1      36.104 -18.077 -23.232  0.00  0.00    -0.474 OA
ENDROOT
BRANCH   1   3
ATOM      2  N   UNL     1      36.834 -19.972 -20.186  0.00  0.00    -0.241 NA
ATOM      3  C   UNL     1      35.930 -18.935 -22.175  0.00  0.00    +0.158 C 
ATOM      4  C   UNL     1      34.735 -19.624 -22.000  0.00  0.00    +0.040 C 
ATOM      5  C   UNL     1      36.940 -19.143 -21.249  0.00  0.00    +0.136 C 
ATOM      6  C   UNL     1      34.588 -20.487 -20.919  0.00  0.00    +0.022 C 
ATOM      7  C   UNL     1      35.657 -20.624 -20.049  0.00  0.00    +0.082 C 
BRANCH   7   8
ATOM      8  C   UNL     1      35.577 -21.502 -18.906  0.00  0.00    +0.018 C 
ATOM      9  C   UNL     1      34.413 -22.235 -18.669  0.00  0.00    +0.003 C 
ATOM     10  C   UNL     1      36.662 -21.620 -18.039  0.00  0.00    +0.003 C 
ATOM     11  C   UNL     1      35.422 -23.200 -16.697  0.00  0.00    +0.106 C 
ATOM     12  C   UNL     1      34.336 -23.083 -17.565  0.00  0.00    +0.018 C 
ATOM     13  C   UNL     1      36.585 -22.468 -16.934  0.00  0.00    +0.018 C 
BRANCH  11  14
ATOM     14  S   UNL     1      35.325 -24.261 -15.315  0.00  0.00    +0.010 S 
ATOM     15  O   UNL     1      33.961 -24.212 -14.806  0.00  0.00    -0.169 OA
ATOM     16  O   UNL     1      35.920 -25.545 -15.662  0.00  0.00    -0.169 OA
ATOM     17  C   UNL     1      36.387 -23.508 -14.103  0.00  0.00    +0.182 C 
ENDBRANCH  11  14
ENDBRANCH   7   8
ENDBRANCH   1   3
BRANCH   1  18
ATOM     18  C   UNL     1      34.937 -17.515 -23.804  0.00  0.00    +0.205 C 
BRANCH  18  23
ATOM     19  O   UNL     1      31.956 -11.903 -23.003  0.00  0.00    -0.296 OA
ATOM     20  N   UNL     1      33.309 -13.747 -22.498  0.00  0.00    -0.251 N 
ATOM     21  N   UNL     1      32.554 -12.092 -20.853  0.00  0.00    -0.300 NA
ATOM     22  N   UNL     1      31.369 -10.818 -22.338  0.00  0.00    -0.010 NA
ATOM     23  C   UNL     1      34.824 -16.062 -23.348  0.00  0.00    +0.047 C 
ATOM     24  C   UNL     1      34.201 -15.977 -21.950  0.00  0.00    +0.025 C 
ATOM     25  C   UNL     1      33.984 -15.244 -24.333  0.00  0.00    +0.025 C 
ATOM     26  C   UNL     1      34.047 -14.526 -21.495  0.00  0.00    +0.096 C 
ATOM     27  C   UNL     1      33.824 -13.796 -23.870  0.00  0.00    +0.096 C 
ATOM     28  C   UNL     1      32.634 -12.602 -22.056  0.00  0.00    +0.379 C 
ATOM     29  C   UNL     1      31.768 -11.000 -21.076  0.00  0.00    +0.104 C 
BRANCH  29  30
ATOM     30  C   UNL     1      31.382 -10.081 -20.000  0.00  0.00    +0.101 C 
ATOM     31  C   UNL     1      31.836 -10.556 -18.595  0.00  0.00    +0.017 C 
ATOM     32  C   UNL     1      31.880  -8.631 -20.222  0.00  0.00    +0.017 C 
ENDBRANCH  29  30
ENDBRANCH  18  23
ENDBRANCH   1  18
TORSDOF 6
ENDMDL
MODEL 9
REMARK VINA RESULT:     -12.2      4.130     11.616
REMARK  Name = 24996872
REMARK  6 active torsions:
REMARK  status: ('A' for Active; 'I' for Inactive)
REMARK    1  A    between atoms: O_1  and  C_3
REMARK    2  A    between atoms: O_1  and  C_18
REMARK    3  A    between atoms: C_7  and  C_8
REMARK    4  A    between atoms: C_11  and  S_14
REMARK    5  A    between atoms: C_18  and  C_23
REMARK    6  A    between atoms: C_29  and  C_30
REMARK                            x       y       z     vdW  Elec       q    Type
REMARK                         _______ _______ _______ _____ _____    ______ ____
ROOT
ATOM      1  O   UNL     1      35.039 -18.593 -22.879  0.00  0.00    -0.474 OA
ENDROOT
BRANCH   1   3
ATOM      2  N   UNL     1      36.621 -20.241 -20.018  0.00  0.00    -0.241 NA
ATOM      3  C   UNL     1      35.186 -19.382 -21.765  0.00  0.00    +0.158 C 
ATOM      4  C   UNL     1      34.116 -20.104 -21.251  0.00  0.00    +0.040 C 
ATOM      5  C   UNL     1      36.408 -19.484 -21.118  0.00  0.00    +0.136 C 
ATOM      6  C   UNL     1      34.295 -20.895 -20.121  0.00  0.00    +0.022 C 
ATOM      7  C   UNL     1      35.556 -20.928 -19.548  0.00  0.00    +0.082 C 
BRANCH   7   8
ATOM      8  C   UNL     1      35.816 -21.727 -18.374  0.00  0.00    +0.018 C 
ATOM      9  C   UNL     1      37.082 -21.712 -17.786  0.00  0.00    +0.003 C 
ATOM     10  C   UNL     1      34.803 -22.513 -17.826  0.00  0.00    +0.003 C 
ATOM     11  C   UNL     1      36.319 -23.270 -16.104  0.00  0.00    +0.106 C 
ATOM     12  C   UNL     1      37.332 -22.484 -16.652  0.00  0.00    +0.018 C 
ATOM     13  C   UNL     1      35.054 -23.285 -16.692  0.00  0.00    +0.018 C 
BRANCH  11  14
ATOM     14  S   UNL     1      36.633 -24.235 -14.684  0.00  0.00    +0.010 S 
ATOM     15  O   UNL     1      36.733 -25.628 -15.102  0.00  0.00    -0.169 OA
ATOM     16  O   UNL     1      37.721 -23.628 -13.930  0.00  0.00    -0.169 OA
ATOM     17  C   UNL     1      35.161 -24.065 -13.699  0.00  0.00    +0.182 C 
ENDBRANCH  11  14
ENDBRANCH   7   8
ENDBRANCH   1   3
BRANCH   1  18
ATOM     18  C   UNL     1      35.601 -17.294 -22.827  0.00  0.00    +0.205 C 
BRANCH  18  23
ATOM     19  O   UNL     1      32.425 -12.220 -20.551  0.00  0.00    -0.296 OA
ATOM     20  N   UNL     1      33.351 -13.690 -22.122  0.00  0.00    -0.251 N 
ATOM     21  N   UNL     1      32.485 -11.458 -22.657  0.00  0.00    -0.300 NA
ATOM     22  N   UNL     1      31.866 -10.935 -20.518  0.00  0.00    -0.010 NA
ATOM     23  C   UNL     1      34.464 -16.276 -22.796  0.00  0.00    +0.047 C 
ATOM     24  C   UNL     1      34.845 -15.009 -23.569  0.00  0.00    +0.025 C 
ATOM     25  C   UNL     1      34.103 -15.905 -21.354  0.00  0.00    +0.025 C 
ATOM     26  C   UNL     1      33.732 -13.964 -23.514  0.00  0.00    +0.096 C 
ATOM     27  C   UNL     1      32.995 -14.853 -21.303  0.00  0.00    +0.096 C 
ATOM     28  C   UNL     1      32.763 -12.448 -21.847  0.00  0.00    +0.379 C 
ATOM     29  C   UNL     1      31.937 -10.553 -21.796  0.00  0.00    +0.104 C 
BRANCH  29  30
ATOM     30  C   UNL     1      31.456  -9.242 -22.243  0.00  0.00    +0.101 C 
ATOM     31  C   UNL     1      31.820  -8.090 -21.269  0.00  0.00    +0.017 C 
ATOM     32  C   UNL     1      31.937  -8.862 -23.666  0.00  0.00    +0.017 C 
ENDBRANCH  29  30
ENDBRANCH  18  23
ENDBRANCH   1  18
TORSDOF 6
ENDMDL
