MODEL 1
REMARK VINA RESULT:     -13.3      0.000      0.000
REMARK  Name = 447735
REMARK  4 active torsions:
REMARK  status: ('A' for Active; 'I' for Inactive)
REMARK    1  A    between atoms: N_2  and  C_13
REMARK    2  A    between atoms: C_3  and  C_18
REMARK    3  A    between atoms: C_7  and  C_15
REMARK    4  A    between atoms: C_26  and  C_30
REMARK                            x       y       z     vdW  Elec       q    Type
REMARK                         _______ _______ _______ _____ _____    ______ ____
ROOT
ATOM      1  O   UNL     1      32.823 -21.051 -20.625  0.00  0.00    -0.270 OA
ATOM      2  N   UNL     1      34.988 -20.148 -20.780  0.00  0.00    -0.280 N 
ATOM      3  C   UNL     1      33.978 -20.948 -20.229  0.00  0.00    +0.249 C 
ATOM      4  H   UNL     1      35.863 -20.189 -20.331  0.00  0.00    +0.155 HD
ENDROOT
BRANCH   2  13
ATOM      5  N   UNL     1      34.545 -14.805 -23.663  0.00  0.00    -0.274 NA
ATOM      6  C   UNL     1      34.589 -17.101 -22.818  0.00  0.00    +0.010 C 
ATOM      7  C   UNL     1      34.316 -15.645 -22.709  0.00  0.00    +0.053 C 
ATOM      8  C   UNL     1      34.752 -17.617 -24.111  0.00  0.00    -0.019 C 
ATOM      9  C   UNL     1      34.628 -16.687 -25.279  0.00  0.00    +0.053 C 
ATOM     10  C   UNL     1      35.166 -15.316 -24.890  0.00  0.00    +0.130 C 
ATOM     11  C   UNL     1      34.670 -17.940 -21.705  0.00  0.00    +0.016 C 
ATOM     12  C   UNL     1      34.971 -18.988 -24.283  0.00  0.00    -0.003 C 
ATOM     13  C   UNL     1      34.906 -19.304 -21.887  0.00  0.00    +0.051 C 
ATOM     14  C   UNL     1      35.052 -19.826 -23.172  0.00  0.00    +0.014 C 
BRANCH   7  15
ATOM     15  C   UNL     1      33.735 -15.109 -21.423  0.00  0.00    +0.040 C 
ATOM     16  C   UNL     1      34.843 -14.439 -20.632  0.00  0.00    +0.006 C 
ATOM     17  C   UNL     1      32.606 -14.148 -21.748  0.00  0.00    +0.006 C 
ENDBRANCH   7  15
ENDBRANCH   2  13
BRANCH   3  18
ATOM     18  C   UNL     1      34.367 -21.724 -19.022  0.00  0.00    +0.054 C 
ATOM     19  C   UNL     1      36.049 -22.366 -17.427  0.00  0.00    +0.000 C 
ATOM     20  C   UNL     1      35.091 -23.171 -16.767  0.00  0.00    +0.000 C 
ATOM     21  C   UNL     1      35.666 -21.638 -18.566  0.00  0.00    +0.005 C 
ATOM     22  C   UNL     1      33.417 -22.500 -18.399  0.00  0.00    +0.005 C 
ATOM     23  C   UNL     1      33.779 -23.229 -17.265  0.00  0.00    +0.000 C 
ATOM     24  C   UNL     1      35.474 -23.899 -15.627  0.00  0.00    +0.003 C 
ATOM     25  C   UNL     1      37.360 -22.310 -16.928  0.00  0.00    +0.000 C 
ATOM     26  C   UNL     1      36.782 -23.831 -15.145  0.00  0.00    +0.031 C 
ATOM     27  C   UNL     1      37.723 -23.038 -15.795  0.00  0.00    +0.003 C 
BRANCH  26  30
ATOM     28  N   UNL     1      36.415 -25.683 -13.534  0.00  0.00    -0.343 N 
ATOM     29  N   UNL     1      38.234 -24.238 -13.275  0.00  0.00    -0.285 NA
ATOM     30  C   UNL     1      37.162 -24.589 -13.964  0.00  0.00    +0.117 C 
ATOM     31  H   UNL     1      36.692 -26.182 -12.731  0.00  0.00    +0.144 HD
ATOM     32  H   UNL     1      35.612 -25.958 -14.032  0.00  0.00    +0.144 HD
ATOM     33  H   UNL     1      38.494 -24.750 -12.474  0.00  0.00    +0.188 HD
ENDBRANCH  26  30
ENDBRANCH   3  18
TORSDOF 4
ENDMDL
MODEL 2
REMARK VINA RESULT:     -13.0      6.533     11.062
REMARK  Name = 447735
REMARK  4 active torsions:
REMARK  status: ('A' for Active; 'I' for Inactive)
REMARK    1  A    between atoms: N_2  and  C_13
REMARK    2  A    between atoms: C_3  and  C_18
REMARK    3  A    between atoms: C_7  and  C_15
REMARK    4  A    between atoms: C_26  and  C_30
REMARK                            x       y       z     vdW  Elec       q    Type
REMARK                         _______ _______ _______ _____ _____    ______ ____
ROOT
ATOM      1  O   UNL     1      30.567 -10.638 -22.478  0.00  0.00    -0.270 OA
ATOM      2  N   UNL     1      32.673  -9.602 -22.330  0.00  0.00    -0.280 N 
ATOM      3  C   UNL     1      31.784 -10.685 -22.336  0.00  0.00    +0.249 C 
ATOM      4  H   UNL     1      33.623  -9.825 -22.203  0.00  0.00    +0.155 HD
ENDROOT
BRANCH   2  13
ATOM      5  N   UNL     1      32.490  -4.257 -25.237  0.00  0.00    -0.274 NA
ATOM      6  C   UNL     1      32.531  -6.205 -23.757  0.00  0.00    +0.010 C 
ATOM      7  C   UNL     1      33.000  -5.398 -24.912  0.00  0.00    +0.053 C 
ATOM      8  C   UNL     1      31.768  -5.537 -22.789  0.00  0.00    -0.019 C 
ATOM      9  C   UNL     1      31.493  -4.075 -22.972  0.00  0.00    +0.053 C 
ATOM     10  C   UNL     1      31.345  -3.772 -24.457  0.00  0.00    +0.130 C 
ATOM     11  C   UNL     1      32.832  -7.561 -23.610  0.00  0.00    +0.016 C 
ATOM     12  C   UNL     1      31.330  -6.231 -21.657  0.00  0.00    -0.003 C 
ATOM     13  C   UNL     1      32.377  -8.248 -22.484  0.00  0.00    +0.051 C 
ATOM     14  C   UNL     1      31.631  -7.584 -21.509  0.00  0.00    +0.014 C 
BRANCH   7  15
ATOM     15  C   UNL     1      34.137  -5.926 -25.753  0.00  0.00    +0.040 C 
ATOM     16  C   UNL     1      34.529  -4.862 -26.762  0.00  0.00    +0.006 C 
ATOM     17  C   UNL     1      35.294  -6.306 -24.847  0.00  0.00    +0.006 C 
ENDBRANCH   7  15
ENDBRANCH   2  13
BRANCH   3  18
ATOM     18  C   UNL     1      32.404 -12.020 -22.119  0.00  0.00    +0.054 C 
ATOM     19  C   UNL     1      33.788 -13.814 -22.923  0.00  0.00    +0.000 C 
ATOM     20  C   UNL     1      33.561 -14.509 -21.712  0.00  0.00    +0.000 C 
ATOM     21  C   UNL     1      33.196 -12.554 -23.113  0.00  0.00    +0.005 C 
ATOM     22  C   UNL     1      32.166 -12.675 -20.933  0.00  0.00    +0.005 C 
ATOM     23  C   UNL     1      32.747 -13.927 -20.726  0.00  0.00    +0.000 C 
ATOM     24  C   UNL     1      34.153 -15.769 -21.522  0.00  0.00    +0.003 C 
ATOM     25  C   UNL     1      34.602 -14.398 -23.907  0.00  0.00    +0.000 C 
ATOM     26  C   UNL     1      34.958 -16.334 -22.511  0.00  0.00    +0.031 C 
ATOM     27  C   UNL     1      35.182 -15.649 -23.702  0.00  0.00    +0.003 C 
BRANCH  26  30
ATOM     28  N   UNL     1      35.594 -18.227 -21.036  0.00  0.00    -0.343 N 
ATOM     29  N   UNL     1      36.106 -18.286 -23.316  0.00  0.00    -0.285 NA
ATOM     30  C   UNL     1      35.565 -17.638 -22.299  0.00  0.00    +0.117 C 
ATOM     31  H   UNL     1      36.011 -19.111 -20.916  0.00  0.00    +0.144 HD
ATOM     32  H   UNL     1      35.200 -17.759 -20.265  0.00  0.00    +0.144 HD
ATOM     33  H   UNL     1      36.518 -19.169 -23.175  0.00  0.00    +0.188 HD
ENDBRANCH  26  30
ENDBRANCH   3  18
TORSDOF 4
ENDMDL
MODEL 3
REMARK VINA RESULT:     -12.8      2.239     10.261
REMARK  Name = 447735
REMARK  4 active torsions:
REMARK  status: ('A' for Active; 'I' for Inactive)
REMARK    1  A    between atoms: N_2  and  C_13
REMARK    2  A    between atoms: C_3  and  C_18
REMARK    3  A    between atoms: C_7  and  C_15
REMARK    4  A    between atoms: C_26  and  C_30
REMARK                            x       y       z     vdW  Elec       q    Type
REMARK                         _______ _______ _______ _____ _____    ______ ____
ROOT
ATOM      1  O   UNL     1      33.884 -23.906 -18.132  0.00  0.00    -0.270 OA
ATOM      2  N   UNL     1      35.291 -22.489 -16.890  0.00  0.00    -0.280 N 
ATOM      3  C   UNL     1      34.502 -22.857 -17.989  0.00  0.00    +0.249 C 
ATOM      4  H   UNL     1      35.717 -21.603 -16.943  0.00  0.00    +0.155 HD
ENDROOT
BRANCH   2  13
ATOM      5  N   UNL     1      38.711 -25.576 -12.910  0.00  0.00    -0.274 NA
ATOM      6  C   UNL     1      37.048 -24.520 -14.363  0.00  0.00    +0.010 C 
ATOM      7  C   UNL     1      38.353 -25.172 -14.085  0.00  0.00    +0.053 C 
ATOM      8  C   UNL     1      36.043 -24.682 -13.400  0.00  0.00    -0.019 C 
ATOM      9  C   UNL     1      36.340 -25.502 -12.180  0.00  0.00    +0.053 C 
ATOM     10  C   UNL     1      37.800 -25.313 -11.790  0.00  0.00    +0.130 C 
ATOM     11  C   UNL     1      36.803 -23.787 -15.526  0.00  0.00    +0.016 C 
ATOM     12  C   UNL     1      34.779 -24.127 -13.622  0.00  0.00    -0.003 C 
ATOM     13  C   UNL     1      35.543 -23.223 -15.731  0.00  0.00    +0.051 C 
ATOM     14  C   UNL     1      34.534 -23.395 -14.784  0.00  0.00    +0.014 C 
BRANCH   7  15
ATOM     15  C   UNL     1      39.317 -25.386 -15.226  0.00  0.00    +0.040 C 
ATOM     16  C   UNL     1      39.736 -24.031 -15.768  0.00  0.00    +0.006 C 
ATOM     17  C   UNL     1      40.504 -26.194 -14.733  0.00  0.00    +0.006 C 
ENDBRANCH   7  15
ENDBRANCH   2  13
BRANCH   3  18
ATOM     18  C   UNL     1      34.447 -21.865 -19.094  0.00  0.00    +0.054 C 
ATOM     19  C   UNL     1      35.588 -20.359 -20.582  0.00  0.00    +0.000 C 
ATOM     20  C   UNL     1      34.343 -20.014 -21.160  0.00  0.00    +0.000 C 
ATOM     21  C   UNL     1      35.624 -21.298 -19.538  0.00  0.00    +0.005 C 
ATOM     22  C   UNL     1      33.224 -21.547 -19.638  0.00  0.00    +0.005 C 
ATOM     23  C   UNL     1      33.170 -20.617 -20.677  0.00  0.00    +0.000 C 
ATOM     24  C   UNL     1      34.308 -19.074 -22.204  0.00  0.00    +0.003 C 
ATOM     25  C   UNL     1      36.760 -19.755 -21.066  0.00  0.00    +0.000 C 
ATOM     26  C   UNL     1      35.483 -18.485 -22.672  0.00  0.00    +0.031 C 
ATOM     27  C   UNL     1      36.707 -18.825 -22.103  0.00  0.00    +0.003 C 
BRANCH  26  30
ATOM     28  N   UNL     1      34.973 -17.868 -25.022  0.00  0.00    -0.343 N 
ATOM     29  N   UNL     1      35.822 -16.271 -23.542  0.00  0.00    -0.285 NA
ATOM     30  C   UNL     1      35.429 -17.515 -23.754  0.00  0.00    +0.117 C 
ATOM     31  H   UNL     1      34.946 -17.195 -25.740  0.00  0.00    +0.144 HD
ATOM     32  H   UNL     1      34.679 -18.791 -25.201  0.00  0.00    +0.144 HD
ATOM     33  H   UNL     1      35.788 -15.612 -24.274  0.00  0.00    +0.188 HD
ENDBRANCH  26  30
ENDBRANCH   3  18
TORSDOF 4
ENDMDL
MODEL 4
REMARK VINA RESULT:     -12.7      1.603      2.930
REMARK  Name = 447735
REMARK  4 active torsions:
REMARK  status: ('A' for Active; 'I' for Inactive)
REMARK    1  A    between atoms: N_2  and  C_13
REMARK    2  A    between atoms: C_3  and  C_18
REMARK    3  A    between atoms: C_7  and  C_15
REMARK    4  A    between atoms: C_26  and  C_30
REMARK                            x       y       z     vdW  Elec       q    Type
REMARK                         _______ _______ _______ _____ _____    ______ ____
ROOT
ATOM      1  O   UNL     1      34.950 -19.957 -23.139  0.00  0.00    -0.270 OA
ATOM      2  N   UNL     1      34.955 -17.988 -21.855  0.00  0.00    -0.280 N 
ATOM      3  C   UNL     1      35.084 -19.366 -22.074  0.00  0.00    +0.249 C 
ATOM      4  H   UNL     1      35.098 -17.683 -20.930  0.00  0.00    +0.155 HD
ENDROOT
BRANCH   2  13
ATOM      5  N   UNL     1      33.479 -12.381 -23.711  0.00  0.00    -0.274 NA
ATOM      6  C   UNL     1      33.934 -14.749 -23.291  0.00  0.00    +0.010 C 
ATOM      7  C   UNL     1      33.461 -13.394 -22.909  0.00  0.00    +0.053 C 
ATOM      8  C   UNL     1      34.058 -15.010 -24.662  0.00  0.00    -0.019 C 
ATOM      9  C   UNL     1      33.697 -13.930 -25.637  0.00  0.00    +0.053 C 
ATOM     10  C   UNL     1      34.059 -12.575 -25.044  0.00  0.00    +0.130 C 
ATOM     11  C   UNL     1      34.236 -15.737 -22.352  0.00  0.00    +0.016 C 
ATOM     12  C   UNL     1      34.461 -16.279 -25.089  0.00  0.00    -0.003 C 
ATOM     13  C   UNL     1      34.652 -16.996 -22.787  0.00  0.00    +0.051 C 
ATOM     14  C   UNL     1      34.761 -17.267 -24.151  0.00  0.00    +0.014 C 
BRANCH   7  15
ATOM     15  C   UNL     1      32.922 -13.179 -21.515  0.00  0.00    +0.040 C 
ATOM     16  C   UNL     1      31.876 -12.079 -21.564  0.00  0.00    +0.006 C 
ATOM     17  C   UNL     1      32.350 -14.485 -20.994  0.00  0.00    +0.006 C 
ENDBRANCH   7  15
ENDBRANCH   2  13
BRANCH   3  18
ATOM     18  C   UNL     1      35.389 -20.178 -20.866  0.00  0.00    +0.054 C 
ATOM     19  C   UNL     1      34.639 -21.652 -19.120  0.00  0.00    +0.000 C 
ATOM     20  C   UNL     1      35.959 -21.694 -18.612  0.00  0.00    +0.000 C 
ATOM     21  C   UNL     1      34.367 -20.881 -20.262  0.00  0.00    +0.005 C 
ATOM     22  C   UNL     1      36.680 -20.201 -20.392  0.00  0.00    +0.005 C 
ATOM     23  C   UNL     1      36.969 -20.962 -19.259  0.00  0.00    +0.000 C 
ATOM     24  C   UNL     1      36.231 -22.465 -17.469  0.00  0.00    +0.003 C 
ATOM     25  C   UNL     1      33.631 -22.383 -18.472  0.00  0.00    +0.000 C 
ATOM     26  C   UNL     1      35.217 -23.185 -16.838  0.00  0.00    +0.031 C 
ATOM     27  C   UNL     1      33.919 -23.144 -17.339  0.00  0.00    +0.003 C 
BRANCH  26  30
ATOM     28  N   UNL     1      35.168 -23.539 -14.382  0.00  0.00    -0.343 N 
ATOM     29  N   UNL     1      36.130 -25.142 -15.785  0.00  0.00    -0.285 NA
ATOM     30  C   UNL     1      35.515 -23.979 -15.658  0.00  0.00    +0.117 C 
ATOM     31  H   UNL     1      35.380 -24.094 -13.596  0.00  0.00    +0.144 HD
ATOM     32  H   UNL     1      34.712 -22.675 -14.265  0.00  0.00    +0.144 HD
ATOM     33  H   UNL     1      36.334 -25.682 -14.986  0.00  0.00    +0.188 HD
ENDBRANCH  26  30
ENDBRANCH   3  18
TORSDOF 4
ENDMDL
MODEL 5
REMARK VINA RESULT:     -12.4      6.219     10.672
REMARK  Name = 447735
REMARK  4 active torsions:
REMARK  status: ('A' for Active; 'I' for Inactive)
REMARK    1  A    between atoms: N_2  and  C_13
REMARK    2  A    between atoms: C_3  and  C_18
REMARK    3  A    between atoms: C_7  and  C_15
REMARK    4  A    between atoms: C_26  and  C_30
REMARK                            x       y       z     vdW  Elec       q    Type
REMARK                         _______ _______ _______ _____ _____    ______ ____
ROOT
ATOM      1  O   UNL     1      31.213 -11.375 -22.139  0.00  0.00    -0.270 OA
ATOM      2  N   UNL     1      33.125 -10.220 -22.874  0.00  0.00    -0.280 N 
ATOM      3  C   UNL     1      32.352 -11.354 -22.593  0.00  0.00    +0.249 C 
ATOM      4  H   UNL     1      34.023 -10.390 -23.238  0.00  0.00    +0.155 HD
ENDROOT
BRANCH   2  13
ATOM      5  N   UNL     1      32.253  -4.448 -24.604  0.00  0.00    -0.274 NA
ATOM      6  C   UNL     1      32.630  -6.631 -23.563  0.00  0.00    +0.010 C 
ATOM      7  C   UNL     1      32.842  -5.598 -24.610  0.00  0.00    +0.053 C 
ATOM      8  C   UNL     1      32.063  -6.200 -22.357  0.00  0.00    -0.019 C 
ATOM      9  C   UNL     1      31.727  -4.747 -22.197  0.00  0.00    +0.053 C 
ATOM     10  C   UNL     1      31.279  -4.184 -23.539  0.00  0.00    +0.130 C 
ATOM     11  C   UNL     1      32.982  -7.970 -23.742  0.00  0.00    +0.016 C 
ATOM     12  C   UNL     1      31.875  -7.115 -21.317  0.00  0.00    -0.003 C 
ATOM     13  C   UNL     1      32.776  -8.880 -22.703  0.00  0.00    +0.051 C 
ATOM     14  C   UNL     1      32.227  -8.453 -21.494  0.00  0.00    +0.014 C 
BRANCH   7  15
ATOM     15  C   UNL     1      33.797  -5.894 -25.740  0.00  0.00    +0.040 C 
ATOM     16  C   UNL     1      33.667  -4.800 -26.784  0.00  0.00    +0.006 C 
ATOM     17  C   UNL     1      35.209  -5.989 -25.189  0.00  0.00    +0.006 C 
ENDBRANCH   7  15
ENDBRANCH   2  13
BRANCH   3  18
ATOM     18  C   UNL     1      33.015 -12.659 -22.858  0.00  0.00    +0.054 C 
ATOM     19  C   UNL     1      33.984 -14.694 -22.023  0.00  0.00    +0.000 C 
ATOM     20  C   UNL     1      34.251 -15.094 -23.354  0.00  0.00    +0.000 C 
ATOM     21  C   UNL     1      33.357 -13.460 -21.789  0.00  0.00    +0.005 C 
ATOM     22  C   UNL     1      33.262 -13.023 -24.162  0.00  0.00    +0.005 C 
ATOM     23  C   UNL     1      33.884 -14.247 -24.413  0.00  0.00    +0.000 C 
ATOM     24  C   UNL     1      34.878 -16.329 -23.588  0.00  0.00    +0.003 C 
ATOM     25  C   UNL     1      34.352 -15.542 -20.966  0.00  0.00    +0.000 C 
ATOM     26  C   UNL     1      35.236 -17.158 -22.525  0.00  0.00    +0.031 C 
ATOM     27  C   UNL     1      34.973 -16.765 -21.216  0.00  0.00    +0.003 C 
BRANCH  26  30
ATOM     28  N   UNL     1      37.249 -18.610 -22.572  0.00  0.00    -0.343 N 
ATOM     29  N   UNL     1      35.172 -19.454 -23.234  0.00  0.00    -0.285 NA
ATOM     30  C   UNL     1      35.883 -18.434 -22.784  0.00  0.00    +0.117 C 
ATOM     31  H   UNL     1      37.666 -19.484 -22.754  0.00  0.00    +0.144 HD
ATOM     32  H   UNL     1      37.796 -17.863 -22.240  0.00  0.00    +0.144 HD
ATOM     33  H   UNL     1      35.609 -20.319 -23.410  0.00  0.00    +0.188 HD
ENDBRANCH  26  30
ENDBRANCH   3  18
TORSDOF 4
ENDMDL
MODEL 6
REMARK VINA RESULT:     -12.4      1.522      2.354
REMARK  Name = 447735
REMARK  4 active torsions:
REMARK  status: ('A' for Active; 'I' for Inactive)
REMARK    1  A    between atoms: N_2  and  C_13
REMARK    2  A    between atoms: C_3  and  C_18
REMARK    3  A    between atoms: C_7  and  C_15
REMARK    4  A    between atoms: C_26  and  C_30
REMARK                            x       y       z     vdW  Elec       q    Type
REMARK                         _______ _______ _______ _____ _____    ______ ____
ROOT
ATOM      1  O   UNL     1      36.659 -21.449 -20.963  0.00  0.00    -0.270 OA
ATOM      2  N   UNL     1      34.848 -19.991 -20.606  0.00  0.00    -0.280 N 
ATOM      3  C   UNL     1      35.729 -21.032 -20.281  0.00  0.00    +0.249 C 
ATOM      4  H   UNL     1      34.156 -19.788 -19.936  0.00  0.00    +0.155 HD
ENDROOT
BRANCH   2  13
ATOM      5  N   UNL     1      34.622 -14.808 -23.791  0.00  0.00    -0.274 NA
ATOM      6  C   UNL     1      34.594 -17.056 -22.823  0.00  0.00    +0.010 C 
ATOM      7  C   UNL     1      34.333 -15.594 -22.807  0.00  0.00    +0.053 C 
ATOM      8  C   UNL     1      34.820 -17.642 -24.075  0.00  0.00    -0.019 C 
ATOM      9  C   UNL     1      34.770 -16.775 -25.297  0.00  0.00    +0.053 C 
ATOM     10  C   UNL     1      35.302 -15.390 -24.953  0.00  0.00    +0.130 C 
ATOM     11  C   UNL     1      34.606 -17.834 -21.664  0.00  0.00    +0.016 C 
ATOM     12  C   UNL     1      35.032 -19.022 -24.162  0.00  0.00    -0.003 C 
ATOM     13  C   UNL     1      34.835 -19.207 -21.759  0.00  0.00    +0.051 C 
ATOM     14  C   UNL     1      35.044 -19.800 -23.005  0.00  0.00    +0.014 C 
BRANCH   7  15
ATOM     15  C   UNL     1      33.690 -14.984 -21.585  0.00  0.00    +0.040 C 
ATOM     16  C   UNL     1      34.769 -14.314 -20.752  0.00  0.00    +0.006 C 
ATOM     17  C   UNL     1      32.617 -14.003 -22.022  0.00  0.00    +0.006 C 
ENDBRANCH   7  15
ENDBRANCH   2  13
BRANCH   3  18
ATOM     18  C   UNL     1      35.471 -21.703 -18.980  0.00  0.00    +0.054 C 
ATOM     19  C   UNL     1      33.936 -22.784 -17.477  0.00  0.00    +0.000 C 
ATOM     20  C   UNL     1      34.990 -22.956 -16.550  0.00  0.00    +0.000 C 
ATOM     21  C   UNL     1      34.195 -22.148 -18.703  0.00  0.00    +0.005 C 
ATOM     22  C   UNL     1      36.514 -21.857 -18.096  0.00  0.00    +0.005 C 
ATOM     23  C   UNL     1      36.275 -22.487 -16.874  0.00  0.00    +0.000 C 
ATOM     24  C   UNL     1      34.731 -23.592 -15.325  0.00  0.00    +0.003 C 
ATOM     25  C   UNL     1      32.653 -23.253 -17.152  0.00  0.00    +0.000 C 
ATOM     26  C   UNL     1      33.449 -24.051 -15.018  0.00  0.00    +0.031 C 
ATOM     27  C   UNL     1      32.412 -23.882 -15.931  0.00  0.00    +0.003 C 
BRANCH  26  30
ATOM     28  N   UNL     1      32.006 -25.390 -13.506  0.00  0.00    -0.343 N 
ATOM     29  N   UNL     1      34.107 -24.660 -12.789  0.00  0.00    -0.285 NA
ATOM     30  C   UNL     1      33.197 -24.708 -13.746  0.00  0.00    +0.117 C 
ATOM     31  H   UNL     1      31.856 -25.828 -12.636  0.00  0.00    +0.144 HD
ATOM     32  H   UNL     1      31.314 -25.435 -14.205  0.00  0.00    +0.144 HD
ATOM     33  H   UNL     1      33.938 -25.103 -11.925  0.00  0.00    +0.188 HD
ENDBRANCH  26  30
ENDBRANCH   3  18
TORSDOF 4
ENDMDL
MODEL 7
REMARK VINA RESULT:     -12.0      7.668     15.318
REMARK  Name = 447735
REMARK  4 active torsions:
REMARK  status: ('A' for Active; 'I' for Inactive)
REMARK    1  A    between atoms: N_2  and  C_13
REMARK    2  A    between atoms: C_3  and  C_18
REMARK    3  A    between atoms: C_7  and  C_15
REMARK    4  A    between atoms: C_26  and  C_30
REMARK                            x       y       z     vdW  Elec       q    Type
REMARK                         _______ _______ _______ _____ _____    ______ ____
ROOT
ATOM      1  O   UNL     1      33.096  -8.213 -21.391  0.00  0.00    -0.270 OA
ATOM      2  N   UNL     1      32.664  -9.731 -23.134  0.00  0.00    -0.280 N 
ATOM      3  C   UNL     1      32.901  -8.469 -22.574  0.00  0.00    +0.249 C 
ATOM      4  H   UNL     1      32.529  -9.752 -24.109  0.00  0.00    +0.155 HD
ENDROOT
BRANCH   2  13
ATOM      5  N   UNL     1      34.081 -15.568 -22.137  0.00  0.00    -0.274 NA
ATOM      6  C   UNL     1      33.199 -13.295 -22.349  0.00  0.00    +0.010 C 
ATOM      7  C   UNL     1      33.860 -14.521 -22.862  0.00  0.00    +0.053 C 
ATOM      8  C   UNL     1      32.475 -13.420 -21.156  0.00  0.00    -0.019 C 
ATOM      9  C   UNL     1      32.403 -14.763 -20.495  0.00  0.00    +0.053 C 
ATOM     10  C   UNL     1      33.714 -15.505 -20.718  0.00  0.00    +0.130 C 
ATOM     11  C   UNL     1      33.268 -12.066 -23.010  0.00  0.00    +0.016 C 
ATOM     12  C   UNL     1      31.796 -12.311 -20.641  0.00  0.00    -0.003 C 
ATOM     13  C   UNL     1      32.600 -10.961 -22.480  0.00  0.00    +0.051 C 
ATOM     14  C   UNL     1      31.864 -11.085 -21.301  0.00  0.00    +0.014 C 
BRANCH   7  15
ATOM     15  C   UNL     1      34.294 -14.563 -24.307  0.00  0.00    +0.040 C 
ATOM     16  C   UNL     1      34.992 -15.886 -24.567  0.00  0.00    +0.006 C 
ATOM     17  C   UNL     1      33.080 -14.375 -25.199  0.00  0.00    +0.006 C 
ENDBRANCH   7  15
ENDBRANCH   2  13
BRANCH   3  18
ATOM     18  C   UNL     1      32.883  -7.333 -23.533  0.00  0.00    +0.054 C 
ATOM     19  C   UNL     1      34.017  -5.996 -25.180  0.00  0.00    +0.000 C 
ATOM     20  C   UNL     1      32.848  -5.213 -25.325  0.00  0.00    +0.000 C 
ATOM     21  C   UNL     1      34.019  -7.066 -24.270  0.00  0.00    +0.005 C 
ATOM     22  C   UNL     1      31.734  -6.587 -23.655  0.00  0.00    +0.005 C 
ATOM     23  C   UNL     1      31.713  -5.521 -24.555  0.00  0.00    +0.000 C 
ATOM     24  C   UNL     1      32.846  -4.143 -26.235  0.00  0.00    +0.003 C 
ATOM     25  C   UNL     1      35.150  -5.687 -25.950  0.00  0.00    +0.000 C 
ATOM     26  C   UNL     1      33.981  -3.851 -26.992  0.00  0.00    +0.031 C 
ATOM     27  C   UNL     1      35.131  -4.621 -26.849  0.00  0.00    +0.003 C 
BRANCH  26  30
ATOM     28  N   UNL     1      32.793  -2.032 -28.193  0.00  0.00    -0.343 N 
ATOM     29  N   UNL     1      35.074  -2.390 -28.557  0.00  0.00    -0.285 NA
ATOM     30  C   UNL     1      33.964  -2.740 -27.931  0.00  0.00    +0.117 C 
ATOM     31  H   UNL     1      32.804  -1.283 -28.833  0.00  0.00    +0.144 HD
ATOM     32  H   UNL     1      31.955  -2.279 -27.740  0.00  0.00    +0.144 HD
ATOM     33  H   UNL     1      35.064  -1.639 -29.193  0.00  0.00    +0.188 HD
ENDBRANCH  26  30
ENDBRANCH   3  18
TORSDOF 4
ENDMDL
MODEL 8
REMARK VINA RESULT:     -11.9      2.186     10.168
REMARK  Name = 447735
REMARK  4 active torsions:
REMARK  status: ('A' for Active; 'I' for Inactive)
REMARK    1  A    between atoms: N_2  and  C_13
REMARK    2  A    between atoms: C_3  and  C_18
REMARK    3  A    between atoms: C_7  and  C_15
REMARK    4  A    between atoms: C_26  and  C_30
REMARK                            x       y       z     vdW  Elec       q    Type
REMARK                         _______ _______ _______ _____ _____    ______ ____
ROOT
ATOM      1  O   UNL     1      34.645 -23.267 -17.767  0.00  0.00    -0.270 OA
ATOM      2  N   UNL     1      36.757 -22.294 -17.420  0.00  0.00    -0.280 N 
ATOM      3  C   UNL     1      35.511 -22.444 -18.043  0.00  0.00    +0.249 C 
ATOM      4  H   UNL     1      37.331 -21.576 -17.772  0.00  0.00    +0.155 HD
ENDROOT
BRANCH   2  13
ATOM      5  N   UNL     1      36.539 -25.529 -12.267  0.00  0.00    -0.274 NA
ATOM      6  C   UNL     1      36.983 -24.166 -14.251  0.00  0.00    +0.010 C 
ATOM      7  C   UNL     1      36.172 -24.597 -13.084  0.00  0.00    +0.053 C 
ATOM      8  C   UNL     1      38.337 -24.527 -14.246  0.00  0.00    -0.019 C 
ATOM      9  C   UNL     1      38.874 -25.298 -13.078  0.00  0.00    +0.053 C 
ATOM     10  C   UNL     1      37.793 -26.235 -12.554  0.00  0.00    +0.130 C 
ATOM     11  C   UNL     1      36.451 -23.425 -15.308  0.00  0.00    +0.016 C 
ATOM     12  C   UNL     1      39.164 -24.117 -15.297  0.00  0.00    -0.003 C 
ATOM     13  C   UNL     1      37.281 -23.034 -16.360  0.00  0.00    +0.051 C 
ATOM     14  C   UNL     1      38.633 -23.376 -16.353  0.00  0.00    +0.014 C 
BRANCH   7  15
ATOM     15  C   UNL     1      34.852 -23.913 -12.824  0.00  0.00    +0.040 C 
ATOM     16  C   UNL     1      33.752 -24.708 -13.505  0.00  0.00    +0.006 C 
ATOM     17  C   UNL     1      34.632 -23.805 -11.326  0.00  0.00    +0.006 C 
ENDBRANCH   7  15
ENDBRANCH   2  13
BRANCH   3  18
ATOM     18  C   UNL     1      35.247 -21.514 -19.172  0.00  0.00    +0.054 C 
ATOM     19  C   UNL     1      36.073 -19.949 -20.801  0.00  0.00    +0.000 C 
ATOM     20  C   UNL     1      34.753 -19.779 -21.281  0.00  0.00    +0.000 C 
ATOM     21  C   UNL     1      36.306 -20.832 -19.734  0.00  0.00    +0.005 C 
ATOM     22  C   UNL     1      33.954 -21.366 -19.620  0.00  0.00    +0.005 C 
ATOM     23  C   UNL     1      33.704 -20.494 -20.680  0.00  0.00    +0.000 C 
ATOM     24  C   UNL     1      34.519 -18.896 -22.349  0.00  0.00    +0.003 C 
ATOM     25  C   UNL     1      37.120 -19.233 -21.403  0.00  0.00    +0.000 C 
ATOM     26  C   UNL     1      35.573 -18.193 -22.935  0.00  0.00    +0.031 C 
ATOM     27  C   UNL     1      36.871 -18.361 -22.462  0.00  0.00    +0.003 C 
BRANCH  26  30
ATOM     28  N   UNL     1      34.669 -17.714 -25.197  0.00  0.00    -0.343 N 
ATOM     29  N   UNL     1      35.700 -16.022 -23.957  0.00  0.00    -0.285 NA
ATOM     30  C   UNL     1      35.315 -17.284 -24.040  0.00  0.00    +0.117 C 
ATOM     31  H   UNL     1      34.504 -17.080 -25.933  0.00  0.00    +0.144 HD
ATOM     32  H   UNL     1      34.377 -18.650 -25.279  0.00  0.00    +0.144 HD
ATOM     33  H   UNL     1      35.527 -15.404 -24.705  0.00  0.00    +0.188 HD
ENDBRANCH  26  30
ENDBRANCH   3  18
TORSDOF 4
ENDMDL
MODEL 9
REMARK VINA RESULT:     -11.8      1.939     10.052
REMARK  Name = 447735
REMARK  4 active torsions:
REMARK  status: ('A' for Active; 'I' for Inactive)
REMARK    1  A    between atoms: N_2  and  C_13
REMARK    2  A    between atoms: C_3  and  C_18
REMARK    3  A    between atoms: C_7  and  C_15
REMARK    4  A    between atoms: C_26  and  C_30
REMARK                            x       y       z     vdW  Elec       q    Type
REMARK                         _______ _______ _______ _____ _____    ______ ____
ROOT
ATOM      1  O   UNL     1      37.523 -19.485 -20.019  0.00  0.00    -0.270 OA
ATOM      2  N   UNL     1      35.598 -20.810 -19.754  0.00  0.00    -0.280 N 
ATOM      3  C   UNL     1      36.408 -19.850 -20.376  0.00  0.00    +0.249 C 
ATOM      4  H   UNL     1      34.728 -20.980 -20.180  0.00  0.00    +0.155 HD
ENDROOT
BRANCH   2  13
ATOM      5  N   UNL     1      34.292 -24.419 -15.029  0.00  0.00    -0.274 NA
ATOM      6  C   UNL     1      35.117 -22.868 -16.733  0.00  0.00    +0.010 C 
ATOM      7  C   UNL     1      34.061 -23.483 -15.890  0.00  0.00    +0.053 C 
ATOM      8  C   UNL     1      36.443 -23.055 -16.319  0.00  0.00    -0.019 C 
ATOM      9  C   UNL     1      36.704 -23.836 -15.066  0.00  0.00    +0.053 C 
ATOM     10  C   UNL     1      35.661 -24.938 -14.934  0.00  0.00    +0.130 C 
ATOM     11  C   UNL     1      34.831 -22.124 -17.879  0.00  0.00    +0.016 C 
ATOM     12  C   UNL     1      37.482 -22.467 -17.047  0.00  0.00    -0.003 C 
ATOM     13  C   UNL     1      35.876 -21.555 -18.608  0.00  0.00    +0.051 C 
ATOM     14  C   UNL     1      37.197 -21.723 -18.192  0.00  0.00    +0.014 C 
BRANCH   7  15
ATOM     15  C   UNL     1      32.640 -22.993 -16.032  0.00  0.00    +0.040 C 
ATOM     16  C   UNL     1      31.878 -23.964 -16.915  0.00  0.00    +0.006 C 
ATOM     17  C   UNL     1      32.015 -22.866 -14.654  0.00  0.00    +0.006 C 
ENDBRANCH   7  15
ENDBRANCH   2  13
BRANCH   3  18
ATOM     18  C   UNL     1      35.820 -19.201 -21.578  0.00  0.00    +0.054 C 
ATOM     19  C   UNL     1      35.123 -17.203 -22.719  0.00  0.00    +0.000 C 
ATOM     20  C   UNL     1      34.724 -17.992 -23.823  0.00  0.00    +0.000 C 
ATOM     21  C   UNL     1      35.678 -17.830 -21.591  0.00  0.00    +0.005 C 
ATOM     22  C   UNL     1      35.440 -19.992 -22.637  0.00  0.00    +0.005 C 
ATOM     23  C   UNL     1      34.888 -19.387 -23.767  0.00  0.00    +0.000 C 
ATOM     24  C   UNL     1      34.170 -17.365 -24.951  0.00  0.00    +0.003 C 
ATOM     25  C   UNL     1      34.958 -15.810 -22.776  0.00  0.00    +0.000 C 
ATOM     26  C   UNL     1      34.013 -15.979 -24.990  0.00  0.00    +0.031 C 
ATOM     27  C   UNL     1      34.407 -15.203 -23.904  0.00  0.00    +0.003 C 
BRANCH  26  30
ATOM     28  N   UNL     1      33.903 -14.114 -26.625  0.00  0.00    -0.343 N 
ATOM     29  N   UNL     1      32.453 -15.937 -26.818  0.00  0.00    -0.285 NA
ATOM     30  C   UNL     1      33.439 -15.345 -26.166  0.00  0.00    +0.117 C 
ATOM     31  H   UNL     1      33.499 -13.703 -27.424  0.00  0.00    +0.144 HD
ATOM     32  H   UNL     1      34.634 -13.655 -26.152  0.00  0.00    +0.144 HD
ATOM     33  H   UNL     1      32.062 -15.509 -27.614  0.00  0.00    +0.188 HD
ENDBRANCH  26  30
ENDBRANCH   3  18
TORSDOF 4
ENDMDL
