MODEL 1
REMARK VINA RESULT:     -12.7      0.000      0.000
REMARK  Name = 17754438
REMARK  6 active torsions:
REMARK  status: ('A' for Active; 'I' for Inactive)
REMARK    1  A    between atoms: N_1  and  C_19
REMARK    2  A    between atoms: C_7  and  C_12
REMARK    3  A    between atoms: N_10  and  C_15
REMARK    4  A    between atoms: C_15  and  C_16
REMARK    5  A    between atoms: C_16  and  O_17
REMARK    6  A    between atoms: C_19  and  C_21
REMARK                            x       y       z     vdW  Elec       q    Type
REMARK                         _______ _______ _______ _____ _____    ______ ____
ROOT
ATOM      1  N   UNL     1      35.574 -17.846 -23.385  0.00  0.00    -0.163 N 
ATOM      2  N   UNL     1      34.622 -15.597 -23.476  0.00  0.00    -0.378 NA
ATOM      3  N   UNL     1      35.552 -18.941 -24.171  0.00  0.00    -0.033 NA
ATOM      4  N   UNL     1      33.589 -16.664 -25.963  0.00  0.00    -0.208 NA
ATOM      5  N   UNL     1      34.811 -18.660 -25.242  0.00  0.00    -0.086 NA
ATOM      6  C   UNL     1      34.848 -16.837 -23.935  0.00  0.00    +0.267 C 
ATOM      7  C   UNL     1      33.841 -14.898 -24.331  0.00  0.00    +0.140 C 
ATOM      8  C   UNL     1      34.371 -17.375 -25.115  0.00  0.00    +0.098 C 
ATOM      9  C   UNL     1      33.346 -15.409 -25.522  0.00  0.00    +0.195 C 
ENDROOT
BRANCH   7  12
ATOM     10  N   UNL     1      32.632 -11.861 -22.892  0.00  0.00    -0.208 N 
ATOM     11  N   UNL     1      33.476 -11.276 -23.759  0.00  0.00    -0.176 NA
ATOM     12  C   UNL     1      33.534 -13.553 -23.937  0.00  0.00    +0.064 C 
ATOM     13  C   UNL     1      32.629 -13.223 -22.958  0.00  0.00    +0.088 C 
ATOM     14  C   UNL     1      34.024 -12.315 -24.395  0.00  0.00    +0.121 C 
BRANCH  10  15
ATOM     15  C   UNL     1      31.840 -11.044 -22.003  0.00  0.00    +0.148 C 
BRANCH  15  16
ATOM     16  C   UNL     1      31.653  -9.626 -22.524  0.00  0.00    +0.161 C 
BRANCH  16  17
ATOM     17  O   UNL     1      32.765  -8.825 -22.144  0.00  0.00    -0.380 OA
ATOM     18  H   UNL     1      32.706  -7.962 -22.581  0.00  0.00    +0.211 HD
ENDBRANCH  16  17
ENDBRANCH  15  16
ENDBRANCH  10  15
ENDBRANCH   7  12
BRANCH   1  19
ATOM     19  C   UNL     1      36.317 -17.847 -22.120  0.00  0.00    +0.145 C 
BRANCH  19  21
ATOM     20  N   UNL     1      35.172 -22.411 -18.977  0.00  0.00    -0.244 NA
ATOM     21  C   UNL     1      36.005 -19.049 -21.294  0.00  0.00    -0.000 C 
ATOM     22  C   UNL     1      34.682 -19.400 -21.040  0.00  0.00    -0.001 C 
ATOM     23  C   UNL     1      34.385 -20.532 -20.261  0.00  0.00    +0.017 C 
ATOM     24  C   UNL     1      37.033 -19.823 -20.771  0.00  0.00    -0.001 C 
ATOM     25  C   UNL     1      35.423 -21.322 -19.727  0.00  0.00    +0.081 C 
ATOM     26  C   UNL     1      36.737 -20.947 -19.997  0.00  0.00    +0.019 C 
ATOM     27  C   UNL     1      33.062 -20.908 -19.991  0.00  0.00    +0.003 C 
ATOM     28  C   UNL     1      32.800 -22.030 -19.218  0.00  0.00    +0.021 C 
ATOM     29  C   UNL     1      33.882 -22.741 -18.739  0.00  0.00    +0.099 C 
ENDBRANCH  19  21
ENDBRANCH   1  19
TORSDOF 6
ENDMDL
MODEL 2
REMARK VINA RESULT:     -12.6      4.607     10.205
REMARK  Name = 17754438
REMARK  6 active torsions:
REMARK  status: ('A' for Active; 'I' for Inactive)
REMARK    1  A    between atoms: N_1  and  C_19
REMARK    2  A    between atoms: C_7  and  C_12
REMARK    3  A    between atoms: N_10  and  C_15
REMARK    4  A    between atoms: C_15  and  C_16
REMARK    5  A    between atoms: C_16  and  O_17
REMARK    6  A    between atoms: C_19  and  C_21
REMARK                            x       y       z     vdW  Elec       q    Type
REMARK                         _______ _______ _______ _____ _____    ______ ____
ROOT
ATOM      1  N   UNL     1      34.670 -20.357 -20.658  0.00  0.00    -0.163 N 
ATOM      2  N   UNL     1      35.679 -21.503 -18.750  0.00  0.00    -0.378 NA
ATOM      3  N   UNL     1      33.447 -20.303 -21.222  0.00  0.00    -0.033 NA
ATOM      4  N   UNL     1      32.969 -22.503 -18.543  0.00  0.00    -0.208 NA
ATOM      5  N   UNL     1      32.638 -21.094 -20.517  0.00  0.00    -0.086 NA
ATOM      6  C   UNL     1      34.674 -21.182 -19.578  0.00  0.00    +0.267 C 
ATOM      7  C   UNL     1      35.263 -22.364 -17.794  0.00  0.00    +0.140 C 
ATOM      8  C   UNL     1      33.373 -21.640 -19.506  0.00  0.00    +0.098 C 
ATOM      9  C   UNL     1      33.965 -22.843 -17.694  0.00  0.00    +0.195 C 
ENDROOT
BRANCH   7  12
ATOM     10  N   UNL     1      37.226 -23.786 -15.169  0.00  0.00    -0.208 N 
ATOM     11  N   UNL     1      38.213 -23.037 -15.690  0.00  0.00    -0.176 NA
ATOM     12  C   UNL     1      36.262 -22.776 -16.850  0.00  0.00    +0.064 C 
ATOM     13  C   UNL     1      36.037 -23.665 -15.827  0.00  0.00    +0.088 C 
ATOM     14  C   UNL     1      37.618 -22.422 -16.716  0.00  0.00    +0.121 C 
BRANCH  10  15
ATOM     15  C   UNL     1      37.488 -24.616 -14.018  0.00  0.00    +0.148 C 
BRANCH  15  16
ATOM     16  C   UNL     1      37.755 -26.067 -14.394  0.00  0.00    +0.161 C 
BRANCH  16  17
ATOM     17  O   UNL     1      38.557 -26.119 -15.567  0.00  0.00    -0.380 OA
ATOM     18  H   UNL     1      39.342 -25.563 -15.448  0.00  0.00    +0.211 HD
ENDBRANCH  16  17
ENDBRANCH  15  16
ENDBRANCH  10  15
ENDBRANCH   7  12
BRANCH   1  19
ATOM     19  C   UNL     1      35.786 -19.584 -21.215  0.00  0.00    +0.145 C 
BRANCH  19  21
ATOM     20  N   UNL     1      34.253 -16.754 -25.870  0.00  0.00    -0.244 NA
ATOM     21  C   UNL     1      35.382 -18.829 -22.437  0.00  0.00    -0.000 C 
ATOM     22  C   UNL     1      35.117 -17.465 -22.361  0.00  0.00    -0.001 C 
ATOM     23  C   UNL     1      34.736 -16.750 -23.510  0.00  0.00    +0.017 C 
ATOM     24  C   UNL     1      35.267 -19.484 -23.657  0.00  0.00    -0.001 C 
ATOM     25  C   UNL     1      34.617 -17.409 -24.751  0.00  0.00    +0.081 C 
ATOM     26  C   UNL     1      34.888 -18.774 -24.798  0.00  0.00    +0.019 C 
ATOM     27  C   UNL     1      34.464 -15.376 -23.462  0.00  0.00    +0.003 C 
ATOM     28  C   UNL     1      34.089 -14.699 -24.614  0.00  0.00    +0.021 C 
ATOM     29  C   UNL     1      33.999 -15.428 -25.782  0.00  0.00    +0.099 C 
ENDBRANCH  19  21
ENDBRANCH   1  19
TORSDOF 6
ENDMDL
MODEL 3
REMARK VINA RESULT:     -12.2      5.802     11.848
REMARK  Name = 17754438
REMARK  6 active torsions:
REMARK  status: ('A' for Active; 'I' for Inactive)
REMARK    1  A    between atoms: N_1  and  C_19
REMARK    2  A    between atoms: C_7  and  C_12
REMARK    3  A    between atoms: N_10  and  C_15
REMARK    4  A    between atoms: C_15  and  C_16
REMARK    5  A    between atoms: C_16  and  O_17
REMARK    6  A    between atoms: C_19  and  C_21
REMARK                            x       y       z     vdW  Elec       q    Type
REMARK                         _______ _______ _______ _____ _____    ______ ____
ROOT
ATOM      1  N   UNL     1      33.242 -23.402 -17.619  0.00  0.00    -0.163 N 
ATOM      2  N   UNL     1      34.821 -24.162 -15.915  0.00  0.00    -0.378 NA
ATOM      3  N   UNL     1      31.982 -22.923 -17.630  0.00  0.00    -0.033 NA
ATOM      4  N   UNL     1      32.571 -23.475 -14.224  0.00  0.00    -0.208 NA
ATOM      5  N   UNL     1      31.551 -22.882 -16.369  0.00  0.00    -0.086 NA
ATOM      6  C   UNL     1      33.649 -23.678 -16.351  0.00  0.00    +0.267 C 
ATOM      7  C   UNL     1      34.821 -24.292 -14.568  0.00  0.00    +0.140 C 
ATOM      8  C   UNL     1      32.558 -23.340 -15.572  0.00  0.00    +0.098 C 
ATOM      9  C   UNL     1      33.743 -23.963 -13.758  0.00  0.00    +0.195 C 
ENDROOT
BRANCH   7  12
ATOM     10  N   UNL     1      38.075 -25.549 -13.802  0.00  0.00    -0.208 N 
ATOM     11  N   UNL     1      37.612 -25.585 -12.540  0.00  0.00    -0.176 NA
ATOM     12  C   UNL     1      36.030 -24.805 -13.992  0.00  0.00    +0.064 C 
ATOM     13  C   UNL     1      37.167 -25.090 -14.709  0.00  0.00    +0.088 C 
ATOM     14  C   UNL     1      36.362 -25.129 -12.663  0.00  0.00    +0.121 C 
BRANCH  10  15
ATOM     15  C   UNL     1      39.426 -25.974 -14.081  0.00  0.00    +0.148 C 
BRANCH  15  16
ATOM     16  C   UNL     1      40.063 -25.184 -15.216  0.00  0.00    +0.161 C 
BRANCH  16  17
ATOM     17  O   UNL     1      40.573 -26.079 -16.196  0.00  0.00    -0.380 OA
ATOM     18  H   UNL     1      40.628 -25.626 -17.051  0.00  0.00    +0.211 HD
ENDBRANCH  16  17
ENDBRANCH  15  16
ENDBRANCH  10  15
ENDBRANCH   7  12
BRANCH   1  19
ATOM     19  C   UNL     1      33.992 -23.564 -18.869  0.00  0.00    +0.145 C 
BRANCH  19  21
ATOM     20  N   UNL     1      34.831 -18.603 -21.458  0.00  0.00    -0.244 NA
ATOM     21  C   UNL     1      34.223 -22.259 -19.551  0.00  0.00    -0.000 C 
ATOM     22  C   UNL     1      35.518 -21.777 -19.720  0.00  0.00    -0.001 C 
ATOM     23  C   UNL     1      35.740 -20.546 -20.362  0.00  0.00    +0.017 C 
ATOM     24  C   UNL     1      33.147 -21.514 -20.019  0.00  0.00    -0.001 C 
ATOM     25  C   UNL     1      34.653 -19.786 -20.840  0.00  0.00    +0.081 C 
ATOM     26  C   UNL     1      33.369 -20.291 -20.657  0.00  0.00    +0.019 C 
ATOM     27  C   UNL     1      37.033 -20.038 -20.546  0.00  0.00    +0.003 C 
ATOM     28  C   UNL     1      37.220 -18.819 -21.183  0.00  0.00    +0.021 C 
ATOM     29  C   UNL     1      36.095 -18.148 -21.616  0.00  0.00    +0.099 C 
ENDBRANCH  19  21
ENDBRANCH   1  19
TORSDOF 6
ENDMDL
MODEL 4
REMARK VINA RESULT:     -12.1      4.952     10.722
REMARK  Name = 17754438
REMARK  6 active torsions:
REMARK  status: ('A' for Active; 'I' for Inactive)
REMARK    1  A    between atoms: N_1  and  C_19
REMARK    2  A    between atoms: C_7  and  C_12
REMARK    3  A    between atoms: N_10  and  C_15
REMARK    4  A    between atoms: C_15  and  C_16
REMARK    5  A    between atoms: C_16  and  O_17
REMARK    6  A    between atoms: C_19  and  C_21
REMARK                            x       y       z     vdW  Elec       q    Type
REMARK                         _______ _______ _______ _____ _____    ______ ____
ROOT
ATOM      1  N   UNL     1      34.910 -21.322 -19.827  0.00  0.00    -0.163 N 
ATOM      2  N   UNL     1      35.821 -22.379 -17.821  0.00  0.00    -0.378 NA
ATOM      3  N   UNL     1      33.691 -21.194 -20.388  0.00  0.00    -0.033 NA
ATOM      4  N   UNL     1      33.024 -23.063 -17.505  0.00  0.00    -0.208 NA
ATOM      5  N   UNL     1      32.814 -21.824 -19.606  0.00  0.00    -0.086 NA
ATOM      6  C   UNL     1      34.843 -22.035 -18.672  0.00  0.00    +0.267 C 
ATOM      7  C   UNL     1      35.331 -23.096 -16.783  0.00  0.00    +0.140 C 
ATOM      8  C   UNL     1      33.502 -22.344 -18.550  0.00  0.00    +0.098 C 
ATOM      9  C   UNL     1      33.991 -23.423 -16.631  0.00  0.00    +0.195 C 
ENDROOT
BRANCH   7  12
ATOM     10  N   UNL     1      37.416 -24.782 -14.423  0.00  0.00    -0.208 N 
ATOM     11  N   UNL     1      38.008 -23.581 -14.298  0.00  0.00    -0.176 NA
ATOM     12  C   UNL     1      36.295 -23.518 -15.808  0.00  0.00    +0.064 C 
ATOM     13  C   UNL     1      36.385 -24.797 -15.315  0.00  0.00    +0.088 C 
ATOM     14  C   UNL     1      37.318 -22.814 -15.146  0.00  0.00    +0.121 C 
BRANCH  10  15
ATOM     15  C   UNL     1      37.895 -25.901 -13.648  0.00  0.00    +0.148 C 
BRANCH  15  16
ATOM     16  C   UNL     1      37.333 -25.914 -12.233  0.00  0.00    +0.161 C 
BRANCH  16  17
ATOM     17  O   UNL     1      37.873 -24.827 -11.493  0.00  0.00    -0.380 OA
ATOM     18  H   UNL     1      38.732 -24.577 -11.865  0.00  0.00    +0.211 HD
ENDBRANCH  16  17
ENDBRANCH  15  16
ENDBRANCH  10  15
ENDBRANCH   7  12
BRANCH   1  19
ATOM     19  C   UNL     1      36.092 -20.729 -20.462  0.00  0.00    +0.145 C 
BRANCH  19  21
ATOM     20  N   UNL     1      34.771 -16.177 -23.554  0.00  0.00    -0.244 NA
ATOM     21  C   UNL     1      35.740 -19.535 -21.284  0.00  0.00    -0.000 C 
ATOM     22  C   UNL     1      35.292 -19.694 -22.592  0.00  0.00    -0.001 C 
ATOM     23  C   UNL     1      34.960 -18.571 -23.371  0.00  0.00    +0.017 C 
ATOM     24  C   UNL     1      35.861 -18.258 -20.749  0.00  0.00    -0.001 C 
ATOM     25  C   UNL     1      35.080 -17.273 -22.834  0.00  0.00    +0.081 C 
ATOM     26  C   UNL     1      35.531 -17.143 -21.524  0.00  0.00    +0.019 C 
ATOM     27  C   UNL     1      34.506 -18.703 -24.690  0.00  0.00    +0.003 C 
ATOM     28  C   UNL     1      34.188 -17.575 -25.433  0.00  0.00    +0.021 C 
ATOM     29  C   UNL     1      34.336 -16.346 -24.823  0.00  0.00    +0.099 C 
ENDBRANCH  19  21
ENDBRANCH   1  19
TORSDOF 6
ENDMDL
MODEL 5
REMARK VINA RESULT:     -12.0      5.035     10.215
REMARK  Name = 17754438
REMARK  6 active torsions:
REMARK  status: ('A' for Active; 'I' for Inactive)
REMARK    1  A    between atoms: N_1  and  C_19
REMARK    2  A    between atoms: C_7  and  C_12
REMARK    3  A    between atoms: N_10  and  C_15
REMARK    4  A    between atoms: C_15  and  C_16
REMARK    5  A    between atoms: C_16  and  O_17
REMARK    6  A    between atoms: C_19  and  C_21
REMARK                            x       y       z     vdW  Elec       q    Type
REMARK                         _______ _______ _______ _____ _____    ______ ____
ROOT
ATOM      1  N   UNL     1      34.262 -23.346 -17.463  0.00  0.00    -0.163 N 
ATOM      2  N   UNL     1      31.903 -23.397 -16.827  0.00  0.00    -0.378 NA
ATOM      3  N   UNL     1      35.439 -23.234 -16.817  0.00  0.00    -0.033 NA
ATOM      4  N   UNL     1      33.108 -23.101 -14.210  0.00  0.00    -0.208 NA
ATOM      5  N   UNL     1      35.180 -23.126 -15.514  0.00  0.00    -0.086 NA
ATOM      6  C   UNL     1      33.220 -23.314 -16.591  0.00  0.00    +0.267 C 
ATOM      7  C   UNL     1      31.198 -23.323 -15.675  0.00  0.00    +0.140 C 
ATOM      8  C   UNL     1      33.826 -23.173 -15.356  0.00  0.00    +0.098 C 
ATOM      9  C   UNL     1      31.774 -23.181 -14.421  0.00  0.00    +0.195 C 
ENDROOT
BRANCH   7  12
ATOM     10  N   UNL     1      27.692 -22.818 -16.137  0.00  0.00    -0.208 N 
ATOM     11  N   UNL     1      27.612 -24.140 -15.907  0.00  0.00    -0.176 NA
ATOM     12  C   UNL     1      29.772 -23.401 -15.812  0.00  0.00    +0.064 C 
ATOM     13  C   UNL     1      28.963 -22.326 -16.091  0.00  0.00    +0.088 C 
ATOM     14  C   UNL     1      28.886 -24.491 -15.709  0.00  0.00    +0.121 C 
BRANCH  10  15
ATOM     15  C   UNL     1      26.490 -22.064 -16.403  0.00  0.00    +0.148 C 
BRANCH  15  16
ATOM     16  C   UNL     1      26.360 -21.671 -17.868  0.00  0.00    +0.161 C 
BRANCH  16  17
ATOM     17  O   UNL     1      26.077 -20.281 -17.968  0.00  0.00    -0.380 OA
ATOM     18  H   UNL     1      25.954 -19.911 -17.080  0.00  0.00    +0.211 HD
ENDBRANCH  16  17
ENDBRANCH  15  16
ENDBRANCH  10  15
ENDBRANCH   7  12
BRANCH   1  19
ATOM     19  C   UNL     1      34.220 -23.483 -18.923  0.00  0.00    +0.145 C 
BRANCH  19  21
ATOM     20  N   UNL     1      34.749 -18.483 -21.520  0.00  0.00    -0.244 NA
ATOM     21  C   UNL     1      34.370 -22.167 -19.608  0.00  0.00    -0.000 C 
ATOM     22  C   UNL     1      35.637 -21.652 -19.868  0.00  0.00    -0.001 C 
ATOM     23  C   UNL     1      35.782 -20.412 -20.512  0.00  0.00    +0.017 C 
ATOM     24  C   UNL     1      33.245 -21.445 -19.989  0.00  0.00    -0.001 C 
ATOM     25  C   UNL     1      34.645 -19.674 -20.902  0.00  0.00    +0.081 C 
ATOM     26  C   UNL     1      33.390 -20.212 -20.630  0.00  0.00    +0.019 C 
ATOM     27  C   UNL     1      37.046 -19.871 -20.786  0.00  0.00    +0.003 C 
ATOM     28  C   UNL     1      37.156 -18.643 -21.424  0.00  0.00    +0.021 C 
ATOM     29  C   UNL     1      35.987 -17.996 -21.767  0.00  0.00    +0.099 C 
ENDBRANCH  19  21
ENDBRANCH   1  19
TORSDOF 6
ENDMDL
MODEL 6
REMARK VINA RESULT:     -11.6      3.198      8.602
REMARK  Name = 17754438
REMARK  6 active torsions:
REMARK  status: ('A' for Active; 'I' for Inactive)
REMARK    1  A    between atoms: N_1  and  C_19
REMARK    2  A    between atoms: C_7  and  C_12
REMARK    3  A    between atoms: N_10  and  C_15
REMARK    4  A    between atoms: C_15  and  C_16
REMARK    5  A    between atoms: C_16  and  O_17
REMARK    6  A    between atoms: C_19  and  C_21
REMARK                            x       y       z     vdW  Elec       q    Type
REMARK                         _______ _______ _______ _____ _____    ______ ____
ROOT
ATOM      1  N   UNL     1      34.678 -15.659 -24.303  0.00  0.00    -0.163 N 
ATOM      2  N   UNL     1      35.188 -17.513 -22.795  0.00  0.00    -0.378 NA
ATOM      3  N   UNL     1      34.093 -15.521 -25.509  0.00  0.00    -0.033 NA
ATOM      4  N   UNL     1      33.921 -18.972 -24.954  0.00  0.00    -0.208 NA
ATOM      5  N   UNL     1      33.727 -16.734 -25.926  0.00  0.00    -0.086 NA
ATOM      6  C   UNL     1      34.701 -16.962 -23.917  0.00  0.00    +0.267 C 
ATOM      7  C   UNL     1      35.011 -18.855 -22.799  0.00  0.00    +0.140 C 
ATOM      8  C   UNL     1      34.091 -17.628 -24.963  0.00  0.00    +0.098 C 
ATOM      9  C   UNL     1      34.404 -19.554 -23.832  0.00  0.00    +0.195 C 
ENDROOT
BRANCH   7  12
ATOM     10  N   UNL     1      35.598 -20.926 -19.948  0.00  0.00    -0.208 N 
ATOM     11  N   UNL     1      36.776 -20.280 -19.895  0.00  0.00    -0.176 NA
ATOM     12  C   UNL     1      35.498 -19.550 -21.642  0.00  0.00    +0.064 C 
ATOM     13  C   UNL     1      34.796 -20.525 -20.976  0.00  0.00    +0.088 C 
ATOM     14  C   UNL     1      36.708 -19.441 -20.932  0.00  0.00    +0.121 C 
BRANCH  10  15
ATOM     15  C   UNL     1      35.293 -21.940 -18.968  0.00  0.00    +0.148 C 
BRANCH  15  16
ATOM     16  C   UNL     1      33.881 -22.491 -19.119  0.00  0.00    +0.161 C 
BRANCH  16  17
ATOM     17  O   UNL     1      33.935 -23.808 -19.652  0.00  0.00    -0.380 OA
ATOM     18  H   UNL     1      33.036 -24.120 -19.835  0.00  0.00    +0.211 HD
ENDBRANCH  16  17
ENDBRANCH  15  16
ENDBRANCH  10  15
ENDBRANCH   7  12
BRANCH   1  19
ATOM     19  C   UNL     1      35.189 -14.488 -23.582  0.00  0.00    +0.145 C 
BRANCH  19  21
ATOM     20  N   UNL     1      30.994 -11.318 -21.490  0.00  0.00    -0.244 NA
ATOM     21  C   UNL     1      34.086 -13.645 -23.038  0.00  0.00    -0.000 C 
ATOM     22  C   UNL     1      33.921 -12.337 -23.481  0.00  0.00    -0.001 C 
ATOM     23  C   UNL     1      32.882 -11.539 -22.970  0.00  0.00    +0.017 C 
ATOM     24  C   UNL     1      33.219 -14.161 -22.082  0.00  0.00    -0.001 C 
ATOM     25  C   UNL     1      31.998 -12.056 -22.001  0.00  0.00    +0.081 C 
ATOM     26  C   UNL     1      32.187 -13.368 -21.575  0.00  0.00    +0.019 C 
ATOM     27  C   UNL     1      32.693 -10.219 -23.400  0.00  0.00    +0.003 C 
ATOM     28  C   UNL     1      31.659  -9.456 -22.875  0.00  0.00    +0.021 C 
ATOM     29  C   UNL     1      30.845 -10.048 -21.932  0.00  0.00    +0.099 C 
ENDBRANCH  19  21
ENDBRANCH   1  19
TORSDOF 6
ENDMDL
MODEL 7
REMARK VINA RESULT:     -11.6      1.090      1.811
REMARK  Name = 17754438
REMARK  6 active torsions:
REMARK  status: ('A' for Active; 'I' for Inactive)
REMARK    1  A    between atoms: N_1  and  C_19
REMARK    2  A    between atoms: C_7  and  C_12
REMARK    3  A    between atoms: N_10  and  C_15
REMARK    4  A    between atoms: C_15  and  C_16
REMARK    5  A    between atoms: C_16  and  O_17
REMARK    6  A    between atoms: C_19  and  C_21
REMARK                            x       y       z     vdW  Elec       q    Type
REMARK                         _______ _______ _______ _____ _____    ______ ____
ROOT
ATOM      1  N   UNL     1      35.354 -17.543 -23.510  0.00  0.00    -0.163 N 
ATOM      2  N   UNL     1      34.171 -15.488 -22.918  0.00  0.00    -0.378 NA
ATOM      3  N   UNL     1      35.511 -18.287 -24.623  0.00  0.00    -0.033 NA
ATOM      4  N   UNL     1      33.448 -15.680 -25.716  0.00  0.00    -0.208 NA
ATOM      5  N   UNL     1      34.824 -17.702 -25.604  0.00  0.00    -0.086 NA
ATOM      6  C   UNL     1      34.565 -16.464 -23.751  0.00  0.00    +0.267 C 
ATOM      7  C   UNL     1      33.383 -14.594 -23.557  0.00  0.00    +0.140 C 
ATOM      8  C   UNL     1      34.238 -16.583 -25.088  0.00  0.00    +0.098 C 
ATOM      9  C   UNL     1      33.036 -14.685 -24.898  0.00  0.00    +0.195 C 
ENDROOT
BRANCH   7  12
ATOM     10  N   UNL     1      32.328 -11.488 -22.143  0.00  0.00    -0.208 N 
ATOM     11  N   UNL     1      32.063 -12.232 -21.056  0.00  0.00    -0.176 NA
ATOM     12  C   UNL     1      32.903 -13.504 -22.758  0.00  0.00    +0.064 C 
ATOM     13  C   UNL     1      32.833 -12.202 -23.190  0.00  0.00    +0.088 C 
ATOM     14  C   UNL     1      32.417 -13.462 -21.437  0.00  0.00    +0.121 C 
BRANCH  10  15
ATOM     15  C   UNL     1      32.069 -10.068 -22.120  0.00  0.00    +0.148 C 
BRANCH  15  16
ATOM     16  C   UNL     1      32.945  -9.299 -23.100  0.00  0.00    +0.161 C 
BRANCH  16  17
ATOM     17  O   UNL     1      32.226  -8.183 -23.611  0.00  0.00    -0.380 OA
ATOM     18  H   UNL     1      32.299  -7.440 -22.992  0.00  0.00    +0.211 HD
ENDBRANCH  16  17
ENDBRANCH  15  16
ENDBRANCH  10  15
ENDBRANCH   7  12
BRANCH   1  19
ATOM     19  C   UNL     1      35.998 -17.936 -22.251  0.00  0.00    +0.145 C 
BRANCH  19  21
ATOM     20  N   UNL     1      33.004 -21.900 -19.541  0.00  0.00    -0.244 NA
ATOM     21  C   UNL     1      35.217 -18.983 -21.532  0.00  0.00    -0.000 C 
ATOM     22  C   UNL     1      35.863 -19.878 -20.684  0.00  0.00    -0.001 C 
ATOM     23  C   UNL     1      35.130 -20.867 -20.004  0.00  0.00    +0.017 C 
ATOM     24  C   UNL     1      33.842 -19.073 -21.706  0.00  0.00    -0.001 C 
ATOM     25  C   UNL     1      33.734 -20.964 -20.176  0.00  0.00    +0.081 C 
ATOM     26  C   UNL     1      33.115 -20.056 -21.031  0.00  0.00    +0.019 C 
ATOM     27  C   UNL     1      35.755 -21.780 -19.144  0.00  0.00    +0.003 C 
ATOM     28  C   UNL     1      35.005 -22.746 -18.488  0.00  0.00    +0.021 C 
ATOM     29  C   UNL     1      33.645 -22.762 -18.719  0.00  0.00    +0.099 C 
ENDBRANCH  19  21
ENDBRANCH   1  19
TORSDOF 6
ENDMDL
MODEL 8
REMARK VINA RESULT:     -11.4      4.172      7.073
REMARK  Name = 17754438
REMARK  6 active torsions:
REMARK  status: ('A' for Active; 'I' for Inactive)
REMARK    1  A    between atoms: N_1  and  C_19
REMARK    2  A    between atoms: C_7  and  C_12
REMARK    3  A    between atoms: N_10  and  C_15
REMARK    4  A    between atoms: C_15  and  C_16
REMARK    5  A    between atoms: C_16  and  O_17
REMARK    6  A    between atoms: C_19  and  C_21
REMARK                            x       y       z     vdW  Elec       q    Type
REMARK                         _______ _______ _______ _____ _____    ______ ____
ROOT
ATOM      1  N   UNL     1      35.455 -22.096 -18.262  0.00  0.00    -0.163 N 
ATOM      2  N   UNL     1      35.322 -20.409 -20.025  0.00  0.00    -0.378 NA
ATOM      3  N   UNL     1      34.634 -23.038 -17.757  0.00  0.00    -0.033 NA
ATOM      4  N   UNL     1      32.682 -21.576 -20.267  0.00  0.00    -0.208 NA
ATOM      5  N   UNL     1      33.484 -22.980 -18.429  0.00  0.00    -0.086 NA
ATOM      6  C   UNL     1      34.851 -21.412 -19.270  0.00  0.00    +0.267 C 
ATOM      7  C   UNL     1      34.397 -20.004 -20.926  0.00  0.00    +0.140 C 
ATOM      8  C   UNL     1      33.599 -21.990 -19.360  0.00  0.00    +0.098 C 
ATOM      9  C   UNL     1      33.132 -20.563 -21.042  0.00  0.00    +0.195 C 
ENDROOT
BRANCH   7  12
ATOM     10  N   UNL     1      35.076 -17.717 -23.584  0.00  0.00    -0.208 N 
ATOM     11  N   UNL     1      35.672 -16.992 -22.622  0.00  0.00    -0.176 NA
ATOM     12  C   UNL     1      34.797 -18.931 -21.790  0.00  0.00    +0.064 C 
ATOM     13  C   UNL     1      34.537 -18.888 -23.138  0.00  0.00    +0.088 C 
ATOM     14  C   UNL     1      35.498 -17.738 -21.528  0.00  0.00    +0.121 C 
BRANCH  10  15
ATOM     15  C   UNL     1      35.053 -17.226 -24.941  0.00  0.00    +0.148 C 
BRANCH  15  16
ATOM     16  C   UNL     1      34.119 -16.036 -25.115  0.00  0.00    +0.161 C 
BRANCH  16  17
ATOM     17  O   UNL     1      34.100 -15.637 -26.480  0.00  0.00    -0.380 OA
ATOM     18  H   UNL     1      34.324 -16.395 -27.041  0.00  0.00    +0.211 HD
ENDBRANCH  16  17
ENDBRANCH  15  16
ENDBRANCH  10  15
ENDBRANCH   7  12
BRANCH   1  19
ATOM     19  C   UNL     1      36.806 -21.914 -17.722  0.00  0.00    +0.145 C 
BRANCH  19  21
ATOM     20  N   UNL     1      37.490 -24.698 -12.843  0.00  0.00    -0.244 NA
ATOM     21  C   UNL     1      36.996 -22.651 -16.440  0.00  0.00    -0.000 C 
ATOM     22  C   UNL     1      38.104 -23.474 -16.263  0.00  0.00    -0.001 C 
ATOM     23  C   UNL     1      38.285 -24.171 -15.055  0.00  0.00    +0.017 C 
ATOM     24  C   UNL     1      36.066 -22.521 -15.415  0.00  0.00    -0.001 C 
ATOM     25  C   UNL     1      37.346 -24.044 -14.012  0.00  0.00    +0.081 C 
ATOM     26  C   UNL     1      36.247 -23.214 -14.216  0.00  0.00    +0.019 C 
ATOM     27  C   UNL     1      39.392 -25.006 -14.851  0.00  0.00    +0.003 C 
ATOM     28  C   UNL     1      39.543 -25.682 -13.648  0.00  0.00    +0.021 C 
ATOM     29  C   UNL     1      38.572 -25.494 -12.685  0.00  0.00    +0.099 C 
ENDBRANCH  19  21
ENDBRANCH   1  19
TORSDOF 6
ENDMDL
MODEL 9
REMARK VINA RESULT:     -11.3      2.976      6.183
REMARK  Name = 17754438
REMARK  6 active torsions:
REMARK  status: ('A' for Active; 'I' for Inactive)
REMARK    1  A    between atoms: N_1  and  C_19
REMARK    2  A    between atoms: C_7  and  C_12
REMARK    3  A    between atoms: N_10  and  C_15
REMARK    4  A    between atoms: C_15  and  C_16
REMARK    5  A    between atoms: C_16  and  O_17
REMARK    6  A    between atoms: C_19  and  C_21
REMARK                            x       y       z     vdW  Elec       q    Type
REMARK                         _______ _______ _______ _____ _____    ______ ____
ROOT
ATOM      1  N   UNL     1      33.172 -12.780 -23.117  0.00  0.00    -0.163 N 
ATOM      2  N   UNL     1      32.914 -10.362 -23.357  0.00  0.00    -0.378 NA
ATOM      3  N   UNL     1      32.745 -13.721 -22.251  0.00  0.00    -0.033 NA
ATOM      4  N   UNL     1      31.353 -10.784 -20.953  0.00  0.00    -0.208 NA
ATOM      5  N   UNL     1      32.008 -13.114 -21.321  0.00  0.00    -0.086 NA
ATOM      6  C   UNL     1      32.718 -11.549 -22.764  0.00  0.00    +0.267 C 
ATOM      7  C   UNL     1      32.284  -9.373 -22.682  0.00  0.00    +0.140 C 
ATOM      8  C   UNL     1      31.980 -11.783 -21.620  0.00  0.00    +0.098 C 
ATOM      9  C   UNL     1      31.536  -9.574 -21.531  0.00  0.00    +0.195 C 
ENDROOT
BRANCH   7  12
ATOM     10  N   UNL     1      31.936  -6.058 -23.967  0.00  0.00    -0.208 N 
ATOM     11  N   UNL     1      33.271  -6.126 -24.118  0.00  0.00    -0.176 NA
ATOM     12  C   UNL     1      32.428  -8.055 -23.231  0.00  0.00    +0.064 C 
ATOM     13  C   UNL     1      31.383  -7.188 -23.440  0.00  0.00    +0.088 C 
ATOM     14  C   UNL     1      33.565  -7.348 -23.666  0.00  0.00    +0.121 C 
BRANCH  10  15
ATOM     15  C   UNL     1      31.232  -4.858 -24.352  0.00  0.00    +0.148 C 
BRANCH  15  16
ATOM     16  C   UNL     1      31.419  -3.726 -23.352  0.00  0.00    +0.161 C 
BRANCH  16  17
ATOM     17  O   UNL     1      30.726  -4.029 -22.148  0.00  0.00    -0.380 OA
ATOM     18  H   UNL     1      31.332  -4.458 -21.525  0.00  0.00    +0.211 HD
ENDBRANCH  16  17
ENDBRANCH  15  16
ENDBRANCH  10  15
ENDBRANCH   7  12
BRANCH   1  19
ATOM     19  C   UNL     1      34.014 -13.144 -24.263  0.00  0.00    +0.145 C 
BRANCH  19  21
ATOM     20  N   UNL     1      34.476 -18.753 -24.860  0.00  0.00    -0.244 NA
ATOM     21  C   UNL     1      34.140 -14.623 -24.411  0.00  0.00    -0.000 C 
ATOM     22  C   UNL     1      34.867 -15.360 -23.480  0.00  0.00    -0.001 C 
ATOM     23  C   UNL     1      34.989 -16.754 -23.617  0.00  0.00    +0.017 C 
ATOM     24  C   UNL     1      33.535 -15.272 -25.480  0.00  0.00    -0.001 C 
ATOM     25  C   UNL     1      34.377 -17.419 -24.700  0.00  0.00    +0.081 C 
ATOM     26  C   UNL     1      33.657 -16.657 -25.616  0.00  0.00    +0.019 C 
ATOM     27  C   UNL     1      35.714 -17.520 -22.695  0.00  0.00    +0.003 C 
ATOM     28  C   UNL     1      35.817 -18.894 -22.858  0.00  0.00    +0.021 C 
ATOM     29  C   UNL     1      35.184 -19.456 -23.948  0.00  0.00    +0.099 C 
ENDBRANCH  19  21
ENDBRANCH   1  19
TORSDOF 6
ENDMDL
