MODEL 1
REMARK VINA RESULT:     -13.6      0.000      0.000
REMARK  Name = 5288641
REMARK  1 active torsions:
REMARK  status: ('A' for Active; 'I' for Inactive)
REMARK    1  A    between atoms: C_14  and  S_23
REMARK                            x       y       z     vdW  Elec       q    Type
REMARK                         _______ _______ _______ _____ _____    ______ ____
ROOT
ATOM      1  O   UNL     1      35.442 -24.358 -14.663  0.00  0.00    -0.270 OA
ATOM      2  O   UNL     1      32.032 -22.416 -18.177  0.00  0.00    -0.285 OA
ATOM      3  N   UNL     1      35.365 -22.811 -17.197  0.00  0.00    -0.310 N 
ATOM      4  N   UNL     1      33.247 -24.910 -13.985  0.00  0.00    -0.280 N 
ATOM      5  C   UNL     1      33.462 -23.710 -15.922  0.00  0.00    +0.071 C 
ATOM      6  C   UNL     1      32.041 -23.942 -15.686  0.00  0.00    +0.020 C 
ATOM      7  C   UNL     1      34.041 -23.057 -16.930  0.00  0.00    +0.092 C 
ATOM      8  C   UNL     1      31.968 -24.674 -14.498  0.00  0.00    +0.051 C 
ATOM      9  C   UNL     1      34.233 -24.347 -14.803  0.00  0.00    +0.251 C 
ATOM     10  C   UNL     1      34.234 -21.819 -18.933  0.00  0.00    +0.054 C 
ATOM     11  C   UNL     1      35.492 -22.084 -18.373  0.00  0.00    +0.051 C 
ATOM     12  C   UNL     1      33.236 -22.429 -18.036  0.00  0.00    +0.210 C 
ATOM     13  C   UNL     1      30.893 -23.594 -16.372  0.00  0.00    +0.020 C 
ATOM     14  C   UNL     1      29.664 -23.997 -15.838  0.00  0.00    +0.112 C 
ATOM     15  C   UNL     1      30.765 -25.082 -13.954  0.00  0.00    +0.016 C 
ATOM     16  C   UNL     1      29.601 -24.734 -14.642  0.00  0.00    +0.020 C 
ATOM     17  C   UNL     1      34.062 -21.112 -20.105  0.00  0.00    +0.004 C 
ATOM     18  C   UNL     1      36.635 -21.630 -18.997  0.00  0.00    +0.015 C 
ATOM     19  C   UNL     1      35.218 -20.653 -20.736  0.00  0.00    +0.000 C 
ATOM     20  C   UNL     1      36.492 -20.909 -20.189  0.00  0.00    +0.001 C 
ATOM     21  H   UNL     1      36.117 -23.107 -16.636  0.00  0.00    +0.152 HD
ATOM     22  H   UNL     1      33.431 -25.407 -13.154  0.00  0.00    +0.155 HD
ENDROOT
BRANCH  14  23
ATOM     23  S   UNL     1      28.184 -23.578 -16.670  0.00  0.00    +0.042 S 
ATOM     24  O   UNL     1      28.563 -22.284 -17.593  0.00  0.00    -0.065 OA
ATOM     25  O   UNL     1      27.858 -24.668 -17.577  0.00  0.00    -0.065 OA
ATOM     26  O   UNL     1      27.236 -23.149 -15.654  0.00  0.00    -0.065 OA
ENDBRANCH  14  23
TORSDOF 1
ENDMDL
MODEL 2
REMARK VINA RESULT:     -13.0      0.917      1.104
REMARK  Name = 5288641
REMARK  1 active torsions:
REMARK  status: ('A' for Active; 'I' for Inactive)
REMARK    1  A    between atoms: C_14  and  S_23
REMARK                            x       y       z     vdW  Elec       q    Type
REMARK                         _______ _______ _______ _____ _____    ______ ____
ROOT
ATOM      1  O   UNL     1      36.134 -24.119 -15.756  0.00  0.00    -0.270 OA
ATOM      2  O   UNL     1      32.104 -21.994 -18.400  0.00  0.00    -0.285 OA
ATOM      3  N   UNL     1      35.562 -22.429 -18.131  0.00  0.00    -0.310 N 
ATOM      4  N   UNL     1      34.115 -24.718 -14.685  0.00  0.00    -0.280 N 
ATOM      5  C   UNL     1      33.947 -23.408 -16.554  0.00  0.00    +0.071 C 
ATOM      6  C   UNL     1      32.600 -23.659 -16.052  0.00  0.00    +0.020 C 
ATOM      7  C   UNL     1      34.317 -22.695 -17.619  0.00  0.00    +0.092 C 
ATOM      8  C   UNL     1      32.761 -24.459 -14.917  0.00  0.00    +0.051 C 
ATOM      9  C   UNL     1      34.922 -24.105 -15.650  0.00  0.00    +0.251 C 
ATOM     10  C   UNL     1      34.114 -21.344 -19.546  0.00  0.00    +0.054 C 
ATOM     11  C   UNL     1      35.457 -21.635 -19.265  0.00  0.00    +0.051 C 
ATOM     12  C   UNL     1      33.312 -22.009 -18.504  0.00  0.00    +0.210 C 
ATOM     13  C   UNL     1      31.341 -23.278 -16.473  0.00  0.00    +0.020 C 
ATOM     14  C   UNL     1      30.240 -23.716 -15.729  0.00  0.00    +0.112 C 
ATOM     15  C   UNL     1      31.689 -24.903 -14.168  0.00  0.00    +0.016 C 
ATOM     16  C   UNL     1      30.413 -24.521 -14.588  0.00  0.00    +0.020 C 
ATOM     17  C   UNL     1      33.716 -20.572 -20.617  0.00  0.00    +0.004 C 
ATOM     18  C   UNL     1      36.455 -21.141 -20.078  0.00  0.00    +0.015 C 
ATOM     19  C   UNL     1      34.726 -20.072 -21.440  0.00  0.00    +0.000 C 
ATOM     20  C   UNL     1      36.081 -20.353 -21.174  0.00  0.00    +0.001 C 
ATOM     21  H   UNL     1      36.409 -22.754 -17.749  0.00  0.00    +0.152 HD
ATOM     22  H   UNL     1      34.458 -25.262 -13.938  0.00  0.00    +0.155 HD
ENDROOT
BRANCH  14  23
ATOM     23  S   UNL     1      28.627 -23.257 -16.222  0.00  0.00    +0.042 S 
ATOM     24  O   UNL     1      28.252 -21.957 -15.304  0.00  0.00    -0.065 OA
ATOM     25  O   UNL     1      28.694 -22.800 -17.601  0.00  0.00    -0.065 OA
ATOM     26  O   UNL     1      27.744 -24.349 -15.843  0.00  0.00    -0.065 OA
ENDBRANCH  14  23
TORSDOF 1
ENDMDL
MODEL 3
REMARK VINA RESULT:     -11.8      2.931      5.411
REMARK  Name = 5288641
REMARK  1 active torsions:
REMARK  status: ('A' for Active; 'I' for Inactive)
REMARK    1  A    between atoms: C_14  and  S_23
REMARK                            x       y       z     vdW  Elec       q    Type
REMARK                         _______ _______ _______ _____ _____    ______ ____
ROOT
ATOM      1  O   UNL     1      31.020 -22.819 -17.260  0.00  0.00    -0.270 OA
ATOM      2  O   UNL     1      36.217 -22.322 -17.955  0.00  0.00    -0.285 OA
ATOM      3  N   UNL     1      32.998 -21.605 -19.113  0.00  0.00    -0.310 N 
ATOM      4  N   UNL     1      32.137 -23.940 -15.505  0.00  0.00    -0.280 N 
ATOM      5  C   UNL     1      33.445 -22.913 -17.078  0.00  0.00    +0.071 C 
ATOM      6  C   UNL     1      34.324 -23.540 -16.095  0.00  0.00    +0.020 C 
ATOM      7  C   UNL     1      33.779 -22.211 -18.162  0.00  0.00    +0.092 C 
ATOM      8  C   UNL     1      33.477 -24.149 -15.164  0.00  0.00    +0.051 C 
ATOM      9  C   UNL     1      32.024 -23.185 -16.678  0.00  0.00    +0.251 C 
ATOM     10  C   UNL     1      35.154 -21.159 -19.770  0.00  0.00    +0.054 C 
ATOM     11  C   UNL     1      33.795 -20.982 -20.065  0.00  0.00    +0.051 C 
ATOM     12  C   UNL     1      35.216 -21.958 -18.533  0.00  0.00    +0.210 C 
ATOM     13  C   UNL     1      35.696 -23.616 -15.956  0.00  0.00    +0.020 C 
ATOM     14  C   UNL     1      36.205 -24.319 -14.859  0.00  0.00    +0.112 C 
ATOM     15  C   UNL     1      33.959 -24.847 -14.074  0.00  0.00    +0.016 C 
ATOM     16  C   UNL     1      35.345 -24.928 -13.927  0.00  0.00    +0.020 C 
ATOM     17  C   UNL     1      36.169 -20.647 -20.549  0.00  0.00    +0.004 C 
ATOM     18  C   UNL     1      33.418 -20.266 -21.182  0.00  0.00    +0.015 C 
ATOM     19  C   UNL     1      35.789 -19.923 -21.679  0.00  0.00    +0.000 C 
ATOM     20  C   UNL     1      34.427 -19.733 -21.993  0.00  0.00    +0.001 C 
ATOM     21  H   UNL     1      32.014 -21.610 -19.120  0.00  0.00    +0.152 HD
ATOM     22  H   UNL     1      31.371 -24.281 -14.988  0.00  0.00    +0.155 HD
ENDROOT
BRANCH  14  23
ATOM     23  S   UNL     1      37.936 -24.443 -14.642  0.00  0.00    +0.042 S 
ATOM     24  O   UNL     1      38.580 -23.426 -15.747  0.00  0.00    -0.065 OA
ATOM     25  O   UNL     1      38.261 -23.908 -13.329  0.00  0.00    -0.065 OA
ATOM     26  O   UNL     1      38.310 -25.801 -15.004  0.00  0.00    -0.065 OA
ENDBRANCH  14  23
TORSDOF 1
ENDMDL
MODEL 4
REMARK VINA RESULT:     -11.8      9.386     12.061
REMARK  Name = 5288641
REMARK  1 active torsions:
REMARK  status: ('A' for Active; 'I' for Inactive)
REMARK    1  A    between atoms: C_14  and  S_23
REMARK                            x       y       z     vdW  Elec       q    Type
REMARK                         _______ _______ _______ _____ _____    ______ ____
ROOT
ATOM      1  O   UNL     1      32.745 -13.194 -26.380  0.00  0.00    -0.270 OA
ATOM      2  O   UNL     1      33.600 -14.518 -21.353  0.00  0.00    -0.285 OA
ATOM      3  N   UNL     1      32.329 -12.179 -23.620  0.00  0.00    -0.310 N 
ATOM      4  N   UNL     1      33.815 -15.300 -26.314  0.00  0.00    -0.280 N 
ATOM      5  C   UNL     1      33.379 -14.296 -24.304  0.00  0.00    +0.071 C 
ATOM      6  C   UNL     1      34.037 -15.572 -24.041  0.00  0.00    +0.020 C 
ATOM      7  C   UNL     1      32.950 -13.387 -23.427  0.00  0.00    +0.092 C 
ATOM      8  C   UNL     1      34.279 -16.139 -25.296  0.00  0.00    +0.051 C 
ATOM      9  C   UNL     1      33.244 -14.135 -25.790  0.00  0.00    +0.251 C 
ATOM     10  C   UNL     1      32.511 -12.375 -21.338  0.00  0.00    +0.054 C 
ATOM     11  C   UNL     1      32.066 -11.573 -22.398  0.00  0.00    +0.051 C 
ATOM     12  C   UNL     1      33.103 -13.582 -21.942  0.00  0.00    +0.210 C 
ATOM     13  C   UNL     1      34.412 -16.230 -22.886  0.00  0.00    +0.020 C 
ATOM     14  C   UNL     1      35.038 -17.475 -23.015  0.00  0.00    +0.112 C 
ATOM     15  C   UNL     1      34.895 -17.366 -25.446  0.00  0.00    +0.016 C 
ATOM     16  C   UNL     1      35.277 -18.037 -24.282  0.00  0.00    +0.020 C 
ATOM     17  C   UNL     1      32.378 -12.018 -20.012  0.00  0.00    +0.004 C 
ATOM     18  C   UNL     1      31.461 -10.361 -22.140  0.00  0.00    +0.015 C 
ATOM     19  C   UNL     1      31.766 -10.792 -19.751  0.00  0.00    +0.000 C 
ATOM     20  C   UNL     1      31.312  -9.971 -20.803  0.00  0.00    +0.001 C 
ATOM     21  H   UNL     1      32.104 -11.795 -24.497  0.00  0.00    +0.152 HD
ATOM     22  H   UNL     1      33.883 -15.502 -27.276  0.00  0.00    +0.155 HD
ENDROOT
BRANCH  14  23
ATOM     23  S   UNL     1      35.533 -18.344 -21.581  0.00  0.00    +0.042 S 
ATOM     24  O   UNL     1      37.054 -18.853 -21.892  0.00  0.00    -0.065 OA
ATOM     25  O   UNL     1      35.618 -17.390 -20.486  0.00  0.00    -0.065 OA
ATOM     26  O   UNL     1      34.675 -19.514 -21.481  0.00  0.00    -0.065 OA
ENDBRANCH  14  23
TORSDOF 1
ENDMDL
MODEL 5
REMARK VINA RESULT:     -11.4      3.529      6.937
REMARK  Name = 5288641
REMARK  1 active torsions:
REMARK  status: ('A' for Active; 'I' for Inactive)
REMARK    1  A    between atoms: C_14  and  S_23
REMARK                            x       y       z     vdW  Elec       q    Type
REMARK                         _______ _______ _______ _____ _____    ______ ____
ROOT
ATOM      1  O   UNL     1      34.422 -22.118 -18.420  0.00  0.00    -0.270 OA
ATOM      2  O   UNL     1      33.096 -24.627 -13.982  0.00  0.00    -0.285 OA
ATOM      3  N   UNL     1      32.048 -23.182 -16.988  0.00  0.00    -0.310 N 
ATOM      4  N   UNL     1      36.378 -22.529 -17.159  0.00  0.00    -0.280 N 
ATOM      5  C   UNL     1      34.399 -23.255 -16.267  0.00  0.00    +0.071 C 
ATOM      6  C   UNL     1      35.470 -23.604 -15.340  0.00  0.00    +0.020 C 
ATOM      7  C   UNL     1      33.091 -23.487 -16.150  0.00  0.00    +0.092 C 
ATOM      8  C   UNL     1      36.649 -23.139 -15.930  0.00  0.00    +0.051 C 
ATOM      9  C   UNL     1      35.009 -22.555 -17.447  0.00  0.00    +0.251 C 
ATOM     10  C   UNL     1      31.062 -24.249 -15.207  0.00  0.00    +0.054 C 
ATOM     11  C   UNL     1      30.848 -23.625 -16.444  0.00  0.00    +0.051 C 
ATOM     12  C   UNL     1      32.513 -24.193 -14.952  0.00  0.00    +0.210 C 
ATOM     13  C   UNL     1      35.499 -24.245 -14.116  0.00  0.00    +0.020 C 
ATOM     14  C   UNL     1      36.741 -24.411 -13.494  0.00  0.00    +0.112 C 
ATOM     15  C   UNL     1      37.885 -23.294 -15.333  0.00  0.00    +0.016 C 
ATOM     16  C   UNL     1      37.922 -23.941 -14.096  0.00  0.00    +0.020 C 
ATOM     17  C   UNL     1      30.046 -24.783 -14.444  0.00  0.00    +0.004 C 
ATOM     18  C   UNL     1      29.571 -23.522 -16.953  0.00  0.00    +0.015 C 
ATOM     19  C   UNL     1      28.754 -24.679 -14.959  0.00  0.00    +0.000 C 
ATOM     20  C   UNL     1      28.518 -24.055 -16.201  0.00  0.00    +0.001 C 
ATOM     21  H   UNL     1      32.135 -22.716 -17.850  0.00  0.00    +0.152 HD
ATOM     22  H   UNL     1      37.062 -22.130 -17.746  0.00  0.00    +0.155 HD
ENDROOT
BRANCH  14  23
ATOM     23  S   UNL     1      36.828 -25.216 -11.943  0.00  0.00    +0.042 S 
ATOM     24  O   UNL     1      35.320 -25.111 -11.322  0.00  0.00    -0.065 OA
ATOM     25  O   UNL     1      37.092 -26.626 -12.185  0.00  0.00    -0.065 OA
ATOM     26  O   UNL     1      37.718 -24.426 -11.108  0.00  0.00    -0.065 OA
ENDBRANCH  14  23
TORSDOF 1
ENDMDL
MODEL 6
REMARK VINA RESULT:     -11.0      3.266      7.143
REMARK  Name = 5288641
REMARK  1 active torsions:
REMARK  status: ('A' for Active; 'I' for Inactive)
REMARK    1  A    between atoms: C_14  and  S_23
REMARK                            x       y       z     vdW  Elec       q    Type
REMARK                         _______ _______ _______ _____ _____    ______ ____
ROOT
ATOM      1  O   UNL     1      32.861 -21.758 -19.628  0.00  0.00    -0.270 OA
ATOM      2  O   UNL     1      33.382 -24.138 -14.958  0.00  0.00    -0.285 OA
ATOM      3  N   UNL     1      31.254 -23.129 -17.540  0.00  0.00    -0.310 N 
ATOM      4  N   UNL     1      35.138 -21.714 -18.996  0.00  0.00    -0.280 N 
ATOM      5  C   UNL     1      33.680 -22.722 -17.548  0.00  0.00    +0.071 C 
ATOM      6  C   UNL     1      35.019 -22.801 -16.973  0.00  0.00    +0.020 C 
ATOM      7  C   UNL     1      32.532 -23.178 -17.045  0.00  0.00    +0.092 C 
ATOM      8  C   UNL     1      35.864 -22.175 -17.894  0.00  0.00    +0.051 C 
ATOM      9  C   UNL     1      33.776 -22.009 -18.865  0.00  0.00    +0.251 C 
ATOM     10  C   UNL     1      31.050 -24.225 -15.532  0.00  0.00    +0.054 C 
ATOM     11  C   UNL     1      30.372 -23.742 -16.659  0.00  0.00    +0.051 C 
ATOM     12  C   UNL     1      32.472 -23.889 -15.719  0.00  0.00    +0.210 C 
ATOM     13  C   UNL     1      35.523 -23.337 -15.804  0.00  0.00    +0.020 C 
ATOM     14  C   UNL     1      36.899 -23.229 -15.574  0.00  0.00    +0.112 C 
ATOM     15  C   UNL     1      37.225 -22.058 -17.687  0.00  0.00    +0.016 C 
ATOM     16  C   UNL     1      37.742 -22.597 -16.507  0.00  0.00    +0.020 C 
ATOM     17  C   UNL     1      30.420 -24.879 -14.493  0.00  0.00    +0.004 C 
ATOM     18  C   UNL     1      29.007 -23.910 -16.769  0.00  0.00    +0.015 C 
ATOM     19  C   UNL     1      29.040 -25.049 -14.604  0.00  0.00    +0.000 C 
ATOM     20  C   UNL     1      28.340 -24.570 -15.730  0.00  0.00    +0.001 C 
ATOM     21  H   UNL     1      30.997 -22.718 -18.397  0.00  0.00    +0.152 HD
ATOM     22  H   UNL     1      35.532 -21.241 -19.766  0.00  0.00    +0.155 HD
ENDROOT
BRANCH  14  23
ATOM     23  S   UNL     1      37.583 -23.890 -14.107  0.00  0.00    +0.042 S 
ATOM     24  O   UNL     1      39.081 -24.393 -14.522  0.00  0.00    -0.065 OA
ATOM     25  O   UNL     1      37.748 -22.798 -13.159  0.00  0.00    -0.065 OA
ATOM     26  O   UNL     1      36.791 -25.060 -13.762  0.00  0.00    -0.065 OA
ENDBRANCH  14  23
TORSDOF 1
ENDMDL
