MODEL 1
REMARK VINA RESULT:     -12.5      0.000      0.000
REMARK  Name = 445770
REMARK  5 active torsions:
REMARK  status: ('A' for Active; 'I' for Inactive)
REMARK    1  A    between atoms: N_2  and  C_17
REMARK    2  A    between atoms: C_3  and  C_5
REMARK    3  A    between atoms: C_6  and  S_11
REMARK    4  A    between atoms: S_11  and  N_14
REMARK    5  A    between atoms: C_17  and  C_23
REMARK                            x       y       z     vdW  Elec       q    Type
REMARK                         _______ _______ _______ _____ _____    ______ ____
ROOT
ATOM      1  O   UNL     1      37.293 -18.683 -21.900  0.00  0.00    -0.270 OA
ATOM      2  N   UNL     1      35.178 -17.870 -22.386  0.00  0.00    -0.297 N 
ATOM      3  C   UNL     1      36.060 -18.761 -21.765  0.00  0.00    +0.246 C 
ATOM      4  H   UNL     1      34.211 -17.990 -22.237  0.00  0.00    +0.150 HD
ENDROOT
BRANCH   3   5
ATOM      5  C   UNL     1      35.470 -19.820 -20.961  0.00  0.00    +0.053 C 
ATOM      6  C   UNL     1      34.341 -21.852 -19.419  0.00  0.00    +0.122 C 
ATOM      7  C   UNL     1      34.084 -19.965 -20.907  0.00  0.00    +0.006 C 
ATOM      8  C   UNL     1      36.292 -20.690 -20.243  0.00  0.00    +0.006 C 
ATOM      9  C   UNL     1      33.520 -20.981 -20.136  0.00  0.00    +0.020 C 
ATOM     10  C   UNL     1      35.727 -21.706 -19.473  0.00  0.00    +0.020 C 
BRANCH   6  11
ATOM     11  S   UNL     1      33.634 -23.124 -18.455  0.00  0.00    +0.057 S 
ATOM     12  O   UNL     1      33.725 -24.373 -19.197  0.00  0.00    -0.153 OA
ATOM     13  O   UNL     1      32.340 -22.666 -17.966  0.00  0.00    -0.153 OA
BRANCH  11  14
ATOM     14  N   UNL     1      34.727 -23.184 -17.143  0.00  0.00    -0.203 NA
ATOM     15  H   UNL     1      35.635 -23.513 -17.471  0.00  0.00    +0.144 HD
ATOM     16  H   UNL     1      34.371 -23.823 -16.432  0.00  0.00    +0.144 HD
ENDBRANCH  11  14
ENDBRANCH   6  11
ENDBRANCH   3   5
BRANCH   2  17
ATOM     17  C   UNL     1      35.608 -16.781 -23.235  0.00  0.00    +0.121 C 
BRANCH  17  23
ATOM     18  F   UNL     1      34.406 -15.724 -25.562  0.00  0.00    -0.202 F 
ATOM     19  F   UNL     1      34.845 -15.499 -20.840  0.00  0.00    -0.202 F 
ATOM     20  F   UNL     1      33.093 -13.411 -20.783  0.00  0.00    -0.199 F 
ATOM     21  F   UNL     1      32.652 -13.638 -25.493  0.00  0.00    -0.199 F 
ATOM     22  F   UNL     1      31.994 -12.478 -23.105  0.00  0.00    -0.199 F 
ATOM     23  C   UNL     1      34.640 -15.629 -23.202  0.00  0.00    +0.057 A 
ATOM     24  C   UNL     1      34.088 -15.163 -24.387  0.00  0.00    +0.170 A 
ATOM     25  C   UNL     1      34.312 -15.048 -21.984  0.00  0.00    +0.170 A 
ATOM     26  C   UNL     1      33.415 -13.980 -21.951  0.00  0.00    +0.197 A 
ATOM     27  C   UNL     1      33.192 -14.095 -24.355  0.00  0.00    +0.197 A 
ATOM     28  C   UNL     1      32.855 -13.503 -23.137  0.00  0.00    +0.199 A 
ENDBRANCH  17  23
ENDBRANCH   2  17
TORSDOF 5
ENDMDL
MODEL 2
REMARK VINA RESULT:     -12.5      0.009      2.338
REMARK  Name = 445770
REMARK  5 active torsions:
REMARK  status: ('A' for Active; 'I' for Inactive)
REMARK    1  A    between atoms: N_2  and  C_17
REMARK    2  A    between atoms: C_3  and  C_5
REMARK    3  A    between atoms: C_6  and  S_11
REMARK    4  A    between atoms: S_11  and  N_14
REMARK    5  A    between atoms: C_17  and  C_23
REMARK                            x       y       z     vdW  Elec       q    Type
REMARK                         _______ _______ _______ _____ _____    ______ ____
ROOT
ATOM      1  O   UNL     1      37.295 -18.681 -21.902  0.00  0.00    -0.270 OA
ATOM      2  N   UNL     1      35.179 -17.863 -22.379  0.00  0.00    -0.297 N 
ATOM      3  C   UNL     1      36.061 -18.758 -21.763  0.00  0.00    +0.246 C 
ATOM      4  H   UNL     1      34.213 -17.981 -22.227  0.00  0.00    +0.150 HD
ENDROOT
BRANCH   3   5
ATOM      5  C   UNL     1      35.472 -19.819 -20.961  0.00  0.00    +0.053 C 
ATOM      6  C   UNL     1      34.343 -21.853 -19.422  0.00  0.00    +0.122 C 
ATOM      7  C   UNL     1      36.294 -20.690 -20.246  0.00  0.00    +0.006 C 
ATOM      8  C   UNL     1      34.086 -19.964 -20.907  0.00  0.00    +0.006 C 
ATOM      9  C   UNL     1      35.729 -21.707 -19.477  0.00  0.00    +0.020 C 
ATOM     10  C   UNL     1      33.521 -20.981 -20.137  0.00  0.00    +0.020 C 
BRANCH   6  11
ATOM     11  S   UNL     1      33.635 -23.125 -18.458  0.00  0.00    +0.057 S 
ATOM     12  O   UNL     1      33.724 -24.373 -19.202  0.00  0.00    -0.153 OA
ATOM     13  O   UNL     1      32.344 -22.666 -17.968  0.00  0.00    -0.153 OA
BRANCH  11  14
ATOM     14  N   UNL     1      34.731 -23.188 -17.148  0.00  0.00    -0.203 NA
ATOM     15  H   UNL     1      34.871 -22.249 -16.777  0.00  0.00    +0.144 HD
ATOM     16  H   UNL     1      35.623 -23.564 -17.469  0.00  0.00    +0.144 HD
ENDBRANCH  11  14
ENDBRANCH   6  11
ENDBRANCH   3   5
BRANCH   2  17
ATOM     17  C   UNL     1      35.608 -16.772 -23.225  0.00  0.00    +0.121 C 
BRANCH  17  23
ATOM     18  F   UNL     1      34.840 -15.490 -20.828  0.00  0.00    -0.202 F 
ATOM     19  F   UNL     1      34.409 -15.718 -25.551  0.00  0.00    -0.202 F 
ATOM     20  F   UNL     1      32.651 -13.634 -25.484  0.00  0.00    -0.199 F 
ATOM     21  F   UNL     1      33.085 -13.405 -20.774  0.00  0.00    -0.199 F 
ATOM     22  F   UNL     1      31.987 -12.475 -23.099  0.00  0.00    -0.199 F 
ATOM     23  C   UNL     1      34.639 -15.621 -23.190  0.00  0.00    +0.057 A 
ATOM     24  C   UNL     1      34.309 -15.040 -21.973  0.00  0.00    +0.170 A 
ATOM     25  C   UNL     1      34.089 -15.156 -24.376  0.00  0.00    +0.170 A 
ATOM     26  C   UNL     1      33.190 -14.090 -24.346  0.00  0.00    +0.197 A 
ATOM     27  C   UNL     1      33.410 -13.975 -21.942  0.00  0.00    +0.197 A 
ATOM     28  C   UNL     1      32.850 -13.498 -23.128  0.00  0.00    +0.199 A 
ENDBRANCH  17  23
ENDBRANCH   2  17
TORSDOF 5
ENDMDL
MODEL 3
REMARK VINA RESULT:     -11.1      6.949     10.900
REMARK  Name = 445770
REMARK  5 active torsions:
REMARK  status: ('A' for Active; 'I' for Inactive)
REMARK    1  A    between atoms: N_2  and  C_17
REMARK    2  A    between atoms: C_3  and  C_5
REMARK    3  A    between atoms: C_6  and  S_11
REMARK    4  A    between atoms: S_11  and  N_14
REMARK    5  A    between atoms: C_17  and  C_23
REMARK                            x       y       z     vdW  Elec       q    Type
REMARK                         _______ _______ _______ _____ _____    ______ ____
ROOT
ATOM      1  O   UNL     1      33.453 -23.974 -18.163  0.00  0.00    -0.270 OA
ATOM      2  N   UNL     1      34.948 -23.133 -16.604  0.00  0.00    -0.297 N 
ATOM      3  C   UNL     1      34.318 -23.136 -17.854  0.00  0.00    +0.246 C 
ATOM      4  H   UNL     1      35.626 -22.440 -16.426  0.00  0.00    +0.150 HD
ENDROOT
BRANCH   3   5
ATOM      5  C   UNL     1      34.738 -22.122 -18.808  0.00  0.00    +0.053 C 
ATOM      6  C   UNL     1      35.542 -20.176 -20.638  0.00  0.00    +0.122 C 
ATOM      7  C   UNL     1      36.091 -21.811 -18.946  0.00  0.00    +0.006 C 
ATOM      8  C   UNL     1      33.787 -21.459 -19.584  0.00  0.00    +0.006 C 
ATOM      9  C   UNL     1      36.492 -20.838 -19.861  0.00  0.00    +0.020 C 
ATOM     10  C   UNL     1      34.189 -20.487 -20.500  0.00  0.00    +0.020 C 
BRANCH   6  11
ATOM     11  S   UNL     1      36.045 -18.960 -21.784  0.00  0.00    +0.057 S 
ATOM     12  O   UNL     1      35.393 -19.225 -23.059  0.00  0.00    -0.153 OA
ATOM     13  O   UNL     1      37.496 -18.844 -21.726  0.00  0.00    -0.153 OA
BRANCH  11  14
ATOM     14  N   UNL     1      35.353 -17.557 -21.095  0.00  0.00    -0.203 NA
ATOM     15  H   UNL     1      34.642 -17.185 -21.724  0.00  0.00    +0.144 HD
ATOM     16  H   UNL     1      36.080 -16.856 -20.950  0.00  0.00    +0.144 HD
ENDBRANCH  11  14
ENDBRANCH   6  11
ENDBRANCH   3   5
BRANCH   2  17
ATOM     17  C   UNL     1      34.658 -24.090 -15.560  0.00  0.00    +0.121 C 
BRANCH  17  23
ATOM     18  F   UNL     1      36.054 -22.604 -13.605  0.00  0.00    -0.202 F 
ATOM     19  F   UNL     1      35.807 -26.594 -16.168  0.00  0.00    -0.202 F 
ATOM     20  F   UNL     1      38.081 -27.499 -14.965  0.00  0.00    -0.199 F 
ATOM     21  F   UNL     1      38.325 -23.522 -12.406  0.00  0.00    -0.199 F 
ATOM     22  F   UNL     1      39.342 -25.968 -13.084  0.00  0.00    -0.199 F 
ATOM     23  C   UNL     1      35.912 -24.592 -14.896  0.00  0.00    +0.057 A 
ATOM     24  C   UNL     1      36.545 -23.805 -13.942  0.00  0.00    +0.170 A 
ATOM     25  C   UNL     1      36.419 -25.835 -15.247  0.00  0.00    +0.170 A 
ATOM     26  C   UNL     1      37.581 -26.302 -14.633  0.00  0.00    +0.197 A 
ATOM     27  C   UNL     1      37.707 -24.271 -13.329  0.00  0.00    +0.197 A 
ATOM     28  C   UNL     1      38.226 -25.520 -13.674  0.00  0.00    +0.199 A 
ENDBRANCH  17  23
ENDBRANCH   2  17
TORSDOF 5
ENDMDL
MODEL 4
REMARK VINA RESULT:     -11.1      6.990     10.751
REMARK  Name = 445770
REMARK  5 active torsions:
REMARK  status: ('A' for Active; 'I' for Inactive)
REMARK    1  A    between atoms: N_2  and  C_17
REMARK    2  A    between atoms: C_3  and  C_5
REMARK    3  A    between atoms: C_6  and  S_11
REMARK    4  A    between atoms: S_11  and  N_14
REMARK    5  A    between atoms: C_17  and  C_23
REMARK                            x       y       z     vdW  Elec       q    Type
REMARK                         _______ _______ _______ _____ _____    ______ ____
ROOT
ATOM      1  O   UNL     1      33.430 -23.995 -18.096  0.00  0.00    -0.270 OA
ATOM      2  N   UNL     1      34.941 -23.143 -16.559  0.00  0.00    -0.297 N 
ATOM      3  C   UNL     1      34.298 -23.155 -17.802  0.00  0.00    +0.246 C 
ATOM      4  H   UNL     1      35.621 -22.449 -16.393  0.00  0.00    +0.150 HD
ENDROOT
BRANCH   3   5
ATOM      5  C   UNL     1      34.708 -22.148 -18.768  0.00  0.00    +0.053 C 
ATOM      6  C   UNL     1      35.495 -20.217 -20.621  0.00  0.00    +0.122 C 
ATOM      7  C   UNL     1      33.751 -21.500 -19.548  0.00  0.00    +0.006 C 
ATOM      8  C   UNL     1      36.059 -21.832 -18.915  0.00  0.00    +0.006 C 
ATOM      9  C   UNL     1      34.145 -20.534 -20.475  0.00  0.00    +0.020 C 
ATOM     10  C   UNL     1      36.453 -20.866 -19.841  0.00  0.00    +0.020 C 
BRANCH   6  11
ATOM     11  S   UNL     1      35.988 -19.008 -21.779  0.00  0.00    +0.057 S 
ATOM     12  O   UNL     1      35.319 -19.278 -23.044  0.00  0.00    -0.153 OA
ATOM     13  O   UNL     1      37.439 -18.897 -21.739  0.00  0.00    -0.153 OA
BRANCH  11  14
ATOM     14  N   UNL     1      35.309 -17.600 -21.089  0.00  0.00    -0.203 NA
ATOM     15  H   UNL     1      35.785 -17.387 -20.212  0.00  0.00    +0.144 HD
ATOM     16  H   UNL     1      34.317 -17.754 -20.908  0.00  0.00    +0.144 HD
ENDBRANCH  11  14
ENDBRANCH   6  11
ENDBRANCH   3   5
BRANCH   2  17
ATOM     17  C   UNL     1      34.662 -24.091 -15.505  0.00  0.00    +0.121 C 
BRANCH  17  23
ATOM     18  F   UNL     1      35.820 -26.577 -16.182  0.00  0.00    -0.202 F 
ATOM     19  F   UNL     1      36.064 -22.648 -13.527  0.00  0.00    -0.202 F 
ATOM     20  F   UNL     1      38.348 -23.582 -12.367  0.00  0.00    -0.199 F 
ATOM     21  F   UNL     1      38.106 -27.498 -15.018  0.00  0.00    -0.199 F 
ATOM     22  F   UNL     1      39.373 -26.005 -13.110  0.00  0.00    -0.199 F 
ATOM     23  C   UNL     1      35.923 -24.605 -14.864  0.00  0.00    +0.057 A 
ATOM     24  C   UNL     1      36.434 -25.837 -15.249  0.00  0.00    +0.170 A 
ATOM     25  C   UNL     1      36.559 -23.838 -13.897  0.00  0.00    +0.170 A 
ATOM     26  C   UNL     1      37.728 -24.312 -13.303  0.00  0.00    +0.197 A 
ATOM     27  C   UNL     1      37.603 -26.311 -14.654  0.00  0.00    +0.197 A 
ATOM     28  C   UNL     1      38.251 -25.549 -13.681  0.00  0.00    +0.199 A 
ENDBRANCH  17  23
ENDBRANCH   2  17
TORSDOF 5
ENDMDL
MODEL 5
REMARK VINA RESULT:     -11.1      4.118      6.356
REMARK  Name = 445770
REMARK  5 active torsions:
REMARK  status: ('A' for Active; 'I' for Inactive)
REMARK    1  A    between atoms: N_2  and  C_17
REMARK    2  A    between atoms: C_3  and  C_5
REMARK    3  A    between atoms: C_6  and  S_11
REMARK    4  A    between atoms: S_11  and  N_14
REMARK    5  A    between atoms: C_17  and  C_23
REMARK                            x       y       z     vdW  Elec       q    Type
REMARK                         _______ _______ _______ _____ _____    ______ ____
ROOT
ATOM      1  O   UNL     1      33.430 -13.290 -25.573  0.00  0.00    -0.270 OA
ATOM      2  N   UNL     1      33.536 -12.297 -23.482  0.00  0.00    -0.297 N 
ATOM      3  C   UNL     1      33.713 -13.368 -24.364  0.00  0.00    +0.246 C 
ATOM      4  H   UNL     1      33.781 -12.426 -22.536  0.00  0.00    +0.150 HD
ENDROOT
BRANCH   3   5
ATOM      5  C   UNL     1      34.224 -14.609 -23.803  0.00  0.00    +0.053 C 
ATOM      6  C   UNL     1      35.205 -16.988 -22.728  0.00  0.00    +0.122 C 
ATOM      7  C   UNL     1      34.402 -14.729 -22.425  0.00  0.00    +0.006 C 
ATOM      8  C   UNL     1      34.537 -15.677 -24.644  0.00  0.00    +0.006 C 
ATOM      9  C   UNL     1      34.892 -15.920 -21.888  0.00  0.00    +0.020 C 
ATOM     10  C   UNL     1      35.027 -16.867 -24.106  0.00  0.00    +0.020 C 
BRANCH   6  11
ATOM     11  S   UNL     1      35.817 -18.478 -22.055  0.00  0.00    +0.057 S 
ATOM     12  O   UNL     1      34.997 -19.578 -22.543  0.00  0.00    -0.153 OA
ATOM     13  O   UNL     1      36.001 -18.294 -20.622  0.00  0.00    -0.153 OA
BRANCH  11  14
ATOM     14  N   UNL     1      37.352 -18.565 -22.801  0.00  0.00    -0.203 NA
ATOM     15  H   UNL     1      37.283 -18.232 -23.762  0.00  0.00    +0.144 HD
ATOM     16  H   UNL     1      37.677 -19.532 -22.798  0.00  0.00    +0.144 HD
ENDBRANCH  11  14
ENDBRANCH   6  11
ENDBRANCH   3   5
BRANCH   2  17
ATOM     17  C   UNL     1      33.016 -11.008 -23.882  0.00  0.00    +0.121 C 
BRANCH  17  23
ATOM     18  F   UNL     1      31.417 -11.928 -21.743  0.00  0.00    -0.202 F 
ATOM     19  F   UNL     1      33.914  -8.347 -23.610  0.00  0.00    -0.202 F 
ATOM     20  F   UNL     1      33.285  -6.795 -21.459  0.00  0.00    -0.199 F 
ATOM     21  F   UNL     1      30.798 -10.368 -19.594  0.00  0.00    -0.199 F 
ATOM     22  F   UNL     1      31.729  -7.800 -19.449  0.00  0.00    -0.199 F 
ATOM     23  C   UNL     1      32.671 -10.150 -22.694  0.00  0.00    +0.057 A 
ATOM     24  C   UNL     1      31.879 -10.671 -21.679  0.00  0.00    +0.170 A 
ATOM     25  C   UNL     1      33.149  -8.849 -22.630  0.00  0.00    +0.170 A 
ATOM     26  C   UNL     1      32.831  -8.053 -21.530  0.00  0.00    +0.197 A 
ATOM     27  C   UNL     1      31.560  -9.875 -20.580  0.00  0.00    +0.197 A 
ATOM     28  C   UNL     1      32.035  -8.565 -20.505  0.00  0.00    +0.199 A 
ENDBRANCH  17  23
ENDBRANCH   2  17
TORSDOF 5
ENDMDL
MODEL 6
REMARK VINA RESULT:     -11.1      4.103      6.222
REMARK  Name = 445770
REMARK  5 active torsions:
REMARK  status: ('A' for Active; 'I' for Inactive)
REMARK    1  A    between atoms: N_2  and  C_17
REMARK    2  A    between atoms: C_3  and  C_5
REMARK    3  A    between atoms: C_6  and  S_11
REMARK    4  A    between atoms: S_11  and  N_14
REMARK    5  A    between atoms: C_17  and  C_23
REMARK                            x       y       z     vdW  Elec       q    Type
REMARK                         _______ _______ _______ _____ _____    ______ ____
ROOT
ATOM      1  O   UNL     1      33.449 -13.305 -25.559  0.00  0.00    -0.270 OA
ATOM      2  N   UNL     1      33.467 -12.337 -23.453  0.00  0.00    -0.297 N 
ATOM      3  C   UNL     1      33.695 -13.392 -24.343  0.00  0.00    +0.246 C 
ATOM      4  H   UNL     1      33.684 -12.474 -22.502  0.00  0.00    +0.150 HD
ENDROOT
BRANCH   3   5
ATOM      5  C   UNL     1      34.215 -14.629 -23.781  0.00  0.00    +0.053 C 
ATOM      6  C   UNL     1      35.213 -17.000 -22.703  0.00  0.00    +0.122 C 
ATOM      7  C   UNL     1      34.469 -15.720 -24.612  0.00  0.00    +0.006 C 
ATOM      8  C   UNL     1      34.460 -14.723 -22.411  0.00  0.00    +0.006 C 
ATOM      9  C   UNL     1      34.967 -16.906 -24.073  0.00  0.00    +0.020 C 
ATOM     10  C   UNL     1      34.960 -15.909 -21.872  0.00  0.00    +0.020 C 
BRANCH   6  11
ATOM     11  S   UNL     1      35.838 -18.484 -22.028  0.00  0.00    +0.057 S 
ATOM     12  O   UNL     1      34.976 -19.581 -22.443  0.00  0.00    -0.153 OA
ATOM     13  O   UNL     1      36.105 -18.269 -20.613  0.00  0.00    -0.153 OA
BRANCH  11  14
ATOM     14  N   UNL     1      37.328 -18.615 -22.855  0.00  0.00    -0.203 NA
ATOM     15  H   UNL     1      37.755 -17.692 -22.935  0.00  0.00    +0.144 HD
ATOM     16  H   UNL     1      37.168 -18.997 -23.787  0.00  0.00    +0.144 HD
ENDBRANCH  11  14
ENDBRANCH   6  11
ENDBRANCH   3   5
BRANCH   2  17
ATOM     17  C   UNL     1      32.932 -11.055 -23.854  0.00  0.00    +0.121 C 
BRANCH  17  23
ATOM     18  F   UNL     1      33.804  -8.377 -23.645  0.00  0.00    -0.202 F 
ATOM     19  F   UNL     1      31.417 -11.966 -21.654  0.00  0.00    -0.202 F 
ATOM     20  F   UNL     1      30.849 -10.387 -19.505  0.00  0.00    -0.199 F 
ATOM     21  F   UNL     1      33.226  -6.806 -21.493  0.00  0.00    -0.199 F 
ATOM     22  F   UNL     1      31.749  -7.808 -19.420  0.00  0.00    -0.199 F 
ATOM     23  C   UNL     1      32.615 -10.184 -22.667  0.00  0.00    +0.057 A 
ATOM     24  C   UNL     1      33.079  -8.876 -22.635  0.00  0.00    +0.170 A 
ATOM     25  C   UNL     1      31.864 -10.703 -21.622  0.00  0.00    +0.170 A 
ATOM     26  C   UNL     1      31.570  -9.897 -20.521  0.00  0.00    +0.197 A 
ATOM     27  C   UNL     1      32.786  -8.071 -21.535  0.00  0.00    +0.197 A 
ATOM     28  C   UNL     1      32.031  -8.581 -20.477  0.00  0.00    +0.199 A 
ENDBRANCH  17  23
ENDBRANCH   2  17
TORSDOF 5
ENDMDL
MODEL 7
REMARK VINA RESULT:     -11.1      1.532      2.452
REMARK  Name = 445770
REMARK  5 active torsions:
REMARK  status: ('A' for Active; 'I' for Inactive)
REMARK    1  A    between atoms: N_2  and  C_17
REMARK    2  A    between atoms: C_3  and  C_5
REMARK    3  A    between atoms: C_6  and  S_11
REMARK    4  A    between atoms: S_11  and  N_14
REMARK    5  A    between atoms: C_17  and  C_23
REMARK                            x       y       z     vdW  Elec       q    Type
REMARK                         _______ _______ _______ _____ _____    ______ ____
ROOT
ATOM      1  O   UNL     1      37.326 -18.699 -21.995  0.00  0.00    -0.270 OA
ATOM      2  N   UNL     1      35.384 -17.480 -21.655  0.00  0.00    -0.297 N 
ATOM      3  C   UNL     1      36.183 -18.620 -21.511  0.00  0.00    +0.246 C 
ATOM      4  H   UNL     1      34.488 -17.484 -21.246  0.00  0.00    +0.150 HD
ENDROOT
BRANCH   3   5
ATOM      5  C   UNL     1      35.609 -19.741 -20.784  0.00  0.00    +0.053 C 
ATOM      6  C   UNL     1      34.507 -21.892 -19.391  0.00  0.00    +0.122 C 
ATOM      7  C   UNL     1      36.435 -20.593 -20.051  0.00  0.00    +0.006 C 
ATOM      8  C   UNL     1      34.232 -19.965 -20.822  0.00  0.00    +0.006 C 
ATOM      9  C   UNL     1      35.884 -21.668 -19.354  0.00  0.00    +0.020 C 
ATOM     10  C   UNL     1      33.682 -21.040 -20.124  0.00  0.00    +0.020 C 
BRANCH   6  11
ATOM     11  S   UNL     1      33.818 -23.237 -18.518  0.00  0.00    +0.057 S 
ATOM     12  O   UNL     1      34.547 -23.401 -17.268  0.00  0.00    -0.153 OA
ATOM     13  O   UNL     1      33.690 -24.363 -19.433  0.00  0.00    -0.153 OA
BRANCH  11  14
ATOM     14  N   UNL     1      32.258 -22.633 -18.168  0.00  0.00    -0.203 NA
ATOM     15  H   UNL     1      31.826 -22.290 -19.026  0.00  0.00    +0.144 HD
ATOM     16  H   UNL     1      32.332 -21.870 -17.495  0.00  0.00    +0.144 HD
ENDBRANCH  11  14
ENDBRANCH   6  11
ENDBRANCH   3   5
BRANCH   2  17
ATOM     17  C   UNL     1      35.803 -16.295 -22.369  0.00  0.00    +0.121 C 
BRANCH  17  23
ATOM     18  F   UNL     1      34.751 -18.277 -24.084  0.00  0.00    -0.202 F 
ATOM     19  F   UNL     1      34.982 -13.665 -22.980  0.00  0.00    -0.202 F 
ATOM     20  F   UNL     1      33.313 -13.091 -25.058  0.00  0.00    -0.199 F 
ATOM     21  F   UNL     1      33.079 -17.691 -26.156  0.00  0.00    -0.199 F 
ATOM     22  F   UNL     1      32.358 -15.099 -26.647  0.00  0.00    -0.199 F 
ATOM     23  C   UNL     1      34.880 -15.976 -23.515  0.00  0.00    +0.057 A 
ATOM     24  C   UNL     1      34.402 -17.004 -24.316  0.00  0.00    +0.170 A 
ATOM     25  C   UNL     1      34.520 -14.657 -23.754  0.00  0.00    +0.170 A 
ATOM     26  C   UNL     1      33.665 -14.360 -24.816  0.00  0.00    +0.197 A 
ATOM     27  C   UNL     1      33.548 -16.707 -25.377  0.00  0.00    +0.197 A 
ATOM     28  C   UNL     1      33.179 -15.385 -25.628  0.00  0.00    +0.199 A 
ENDBRANCH  17  23
ENDBRANCH   2  17
TORSDOF 5
ENDMDL
MODEL 8
REMARK VINA RESULT:     -11.0      1.350      2.533
REMARK  Name = 445770
REMARK  5 active torsions:
REMARK  status: ('A' for Active; 'I' for Inactive)
REMARK    1  A    between atoms: N_2  and  C_17
REMARK    2  A    between atoms: C_3  and  C_5
REMARK    3  A    between atoms: C_6  and  S_11
REMARK    4  A    between atoms: S_11  and  N_14
REMARK    5  A    between atoms: C_17  and  C_23
REMARK                            x       y       z     vdW  Elec       q    Type
REMARK                         _______ _______ _______ _____ _____    ______ ____
ROOT
ATOM      1  O   UNL     1      37.110 -18.536 -22.034  0.00  0.00    -0.270 OA
ATOM      2  N   UNL     1      35.203 -17.300 -21.575  0.00  0.00    -0.297 N 
ATOM      3  C   UNL     1      35.984 -18.459 -21.511  0.00  0.00    +0.246 C 
ATOM      4  H   UNL     1      34.320 -17.308 -21.139  0.00  0.00    +0.150 HD
ENDROOT
BRANCH   3   5
ATOM      5  C   UNL     1      35.411 -19.604 -20.819  0.00  0.00    +0.053 C 
ATOM      6  C   UNL     1      34.313 -21.798 -19.494  0.00  0.00    +0.122 C 
ATOM      7  C   UNL     1      36.245 -20.518 -20.175  0.00  0.00    +0.006 C 
ATOM      8  C   UNL     1      34.028 -19.787 -20.802  0.00  0.00    +0.006 C 
ATOM      9  C   UNL     1      35.695 -21.615 -19.512  0.00  0.00    +0.020 C 
ATOM     10  C   UNL     1      33.479 -20.884 -20.138  0.00  0.00    +0.020 C 
BRANCH   6  11
ATOM     11  S   UNL     1      33.625 -23.171 -18.663  0.00  0.00    +0.057 S 
ATOM     12  O   UNL     1      33.800 -24.352 -19.496  0.00  0.00    -0.153 OA
ATOM     13  O   UNL     1      32.294 -22.807 -18.197  0.00  0.00    -0.153 OA
BRANCH  11  14
ATOM     14  N   UNL     1      34.667 -23.291 -17.314  0.00  0.00    -0.203 NA
ATOM     15  H   UNL     1      34.153 -23.672 -16.520  0.00  0.00    +0.144 HD
ATOM     16  H   UNL     1      35.023 -22.365 -17.076  0.00  0.00    +0.144 HD
ENDBRANCH  11  14
ENDBRANCH   6  11
ENDBRANCH   3   5
BRANCH   2  17
ATOM     17  C   UNL     1      35.622 -16.090 -22.247  0.00  0.00    +0.121 C 
BRANCH  17  23
ATOM     18  F   UNL     1      34.864 -13.472 -22.988  0.00  0.00    -0.202 F 
ATOM     19  F   UNL     1      34.661 -18.115 -23.960  0.00  0.00    -0.202 F 
ATOM     20  F   UNL     1      33.124 -17.583 -26.148  0.00  0.00    -0.199 F 
ATOM     21  F   UNL     1      33.331 -12.952 -25.181  0.00  0.00    -0.199 F 
ATOM     22  F   UNL     1      32.458 -15.005 -26.763  0.00  0.00    -0.199 F 
ATOM     23  C   UNL     1      34.775 -15.798 -23.456  0.00  0.00    +0.057 A 
ATOM     24  C   UNL     1      34.442 -14.484 -23.758  0.00  0.00    +0.170 A 
ATOM     25  C   UNL     1      34.339 -16.847 -24.253  0.00  0.00    +0.170 A 
ATOM     26  C   UNL     1      33.553 -16.579 -25.374  0.00  0.00    +0.197 A 
ATOM     27  C   UNL     1      33.657 -14.216 -24.879  0.00  0.00    +0.197 A 
ATOM     28  C   UNL     1      33.212 -15.262 -25.687  0.00  0.00    +0.199 A 
ENDBRANCH  17  23
ENDBRANCH   2  17
TORSDOF 5
ENDMDL
MODEL 9
REMARK VINA RESULT:     -10.9      4.941      8.220
REMARK  Name = 445770
REMARK  5 active torsions:
REMARK  status: ('A' for Active; 'I' for Inactive)
REMARK    1  A    between atoms: N_2  and  C_17
REMARK    2  A    between atoms: C_3  and  C_5
REMARK    3  A    between atoms: C_6  and  S_11
REMARK    4  A    between atoms: S_11  and  N_14
REMARK    5  A    between atoms: C_17  and  C_23
REMARK                            x       y       z     vdW  Elec       q    Type
REMARK                         _______ _______ _______ _____ _____    ______ ____
ROOT
ATOM      1  O   UNL     1      34.649 -16.472 -24.466  0.00  0.00    -0.270 OA
ATOM      2  N   UNL     1      35.293 -16.927 -22.287  0.00  0.00    -0.297 N 
ATOM      3  C   UNL     1      34.655 -16.155 -23.264  0.00  0.00    +0.246 C 
ATOM      4  H   UNL     1      35.260 -16.617 -21.352  0.00  0.00    +0.150 HD
ENDROOT
BRANCH   3   5
ATOM      5  C   UNL     1      34.010 -14.929 -22.820  0.00  0.00    +0.053 C 
ATOM      6  C   UNL     1      32.773 -12.579 -21.968  0.00  0.00    +0.122 C 
ATOM      7  C   UNL     1      33.958 -13.823 -23.667  0.00  0.00    +0.006 C 
ATOM      8  C   UNL     1      33.444 -14.862 -21.546  0.00  0.00    +0.006 C 
ATOM      9  C   UNL     1      33.339 -12.647 -23.240  0.00  0.00    +0.020 C 
ATOM     10  C   UNL     1      32.825 -13.686 -21.121  0.00  0.00    +0.020 C 
BRANCH   6  11
ATOM     11  S   UNL     1      31.997 -11.109 -21.435  0.00  0.00    +0.057 S 
ATOM     12  O   UNL     1      32.503 -10.002 -22.234  0.00  0.00    -0.153 OA
ATOM     13  O   UNL     1      32.077 -11.047 -19.982  0.00  0.00    -0.153 OA
BRANCH  11  14
ATOM     14  N   UNL     1      30.377 -11.414 -21.884  0.00  0.00    -0.203 NA
ATOM     15  H   UNL     1      30.358 -12.076 -22.660  0.00  0.00    +0.144 HD
ATOM     16  H   UNL     1      29.933 -10.541 -22.171  0.00  0.00    +0.144 HD
ENDBRANCH  11  14
ENDBRANCH   6  11
ENDBRANCH   3   5
BRANCH   2  17
ATOM     17  C   UNL     1      35.997 -18.157 -22.573  0.00  0.00    +0.121 C 
BRANCH  17  23
ATOM     18  F   UNL     1      33.423 -19.310 -22.431  0.00  0.00    -0.202 F 
ATOM     19  F   UNL     1      37.855 -19.214 -20.731  0.00  0.00    -0.202 F 
ATOM     20  F   UNL     1      37.211 -21.184 -18.959  0.00  0.00    -0.199 F 
ATOM     21  F   UNL     1      32.792 -21.283 -20.659  0.00  0.00    -0.199 F 
ATOM     22  F   UNL     1      34.683 -22.222 -18.920  0.00  0.00    -0.199 F 
ATOM     23  C   UNL     1      35.644 -19.246 -21.596  0.00  0.00    +0.057 A 
ATOM     24  C   UNL     1      34.356 -19.765 -21.584  0.00  0.00    +0.170 A 
ATOM     25  C   UNL     1      36.612 -19.716 -20.719  0.00  0.00    +0.170 A 
ATOM     26  C   UNL     1      36.286 -20.724 -19.812  0.00  0.00    +0.197 A 
ATOM     27  C   UNL     1      34.031 -20.773 -20.677  0.00  0.00    +0.197 A 
ATOM     28  C   UNL     1      34.995 -21.253 -19.791  0.00  0.00    +0.199 A 
ENDBRANCH  17  23
ENDBRANCH   2  17
TORSDOF 5
ENDMDL
