MODEL 1
REMARK VINA RESULT:     -13.9      0.000      0.000
REMARK  Name = 25174099
REMARK  5 active torsions:
REMARK  status: ('A' for Active; 'I' for Inactive)
REMARK    1  A    between atoms: C_5  and  C_33
REMARK    2  A    between atoms: C_14  and  C_18
REMARK    3  A    between atoms: N_17  and  C_20
REMARK    4  A    between atoms: C_20  and  C_24
REMARK    5  A    between atoms: C_33  and  C_36
REMARK                            x       y       z     vdW  Elec       q    Type
REMARK                         _______ _______ _______ _____ _____    ______ ____
ROOT
ATOM      1  S   UNL     1      34.770 -17.235 -25.199  0.00  0.00    -0.064 S 
ATOM      2  O   UNL     1      34.758 -14.814 -20.891  0.00  0.00    -0.274 OA
ATOM      3  N   UNL     1      35.626 -18.319 -22.906  0.00  0.00    -0.379 NA
ATOM      4  N   UNL     1      35.537 -16.990 -20.919  0.00  0.00    -0.255 N 
ATOM      5  C   UNL     1      33.700 -13.689 -23.621  0.00  0.00    +0.028 C 
ATOM      6  C   UNL     1      33.650 -12.867 -24.933  0.00  0.00    +0.005 C 
ATOM      7  C   UNL     1      34.207 -15.086 -23.886  0.00  0.00    -0.027 C 
ATOM      8  C   UNL     1      32.994 -13.642 -26.085  0.00  0.00    +0.006 C 
ATOM      9  C   UNL     1      33.753 -14.936 -26.407  0.00  0.00    +0.032 C 
ATOM     10  C   UNL     1      34.185 -15.637 -25.156  0.00  0.00    +0.002 C 
ATOM     11  C   UNL     1      34.758 -16.012 -22.939  0.00  0.00    +0.154 C 
ATOM     12  C   UNL     1      35.094 -17.226 -23.524  0.00  0.00    +0.152 C 
ATOM     13  C   UNL     1      34.998 -15.847 -21.508  0.00  0.00    +0.239 C 
ATOM     14  C   UNL     1      35.818 -18.145 -21.635  0.00  0.00    +0.240 C 
ATOM     15  H   UNL     1      35.727 -16.977 -19.953  0.00  0.00    +0.157 HD
ENDROOT
BRANCH  14  18
ATOM     16  O   UNL     1      37.463 -19.061 -20.278  0.00  0.00    -0.266 OA
ATOM     17  N   UNL     1      35.609 -20.387 -20.833  0.00  0.00    -0.294 N 
ATOM     18  C   UNL     1      36.391 -19.252 -20.837  0.00  0.00    +0.290 C 
ATOM     19  H   UNL     1      34.765 -20.376 -21.338  0.00  0.00    +0.150 HD
BRANCH  17  20
ATOM     20  C   UNL     1      35.969 -21.591 -20.120  0.00  0.00    +0.117 C 
BRANCH  20  24
ATOM     21  O   UNL     1      31.892 -23.191 -16.540  0.00  0.00    -0.464 OA
ATOM     22  O   UNL     1      33.898 -24.603 -13.887  0.00  0.00    -0.271 OA
ATOM     23  N   UNL     1      34.599 -23.655 -15.862  0.00  0.00    -0.279 N 
ATOM     24  C   UNL     1      34.900 -22.011 -19.153  0.00  0.00    -0.001 C 
ATOM     25  C   UNL     1      34.253 -23.007 -17.052  0.00  0.00    +0.085 C 
ATOM     26  C   UNL     1      35.251 -22.625 -17.950  0.00  0.00    +0.015 C 
ATOM     27  C   UNL     1      32.911 -22.785 -17.356  0.00  0.00    +0.153 C 
ATOM     28  C   UNL     1      33.557 -21.791 -19.460  0.00  0.00    +0.001 C 
ATOM     29  C   UNL     1      32.561 -22.185 -18.566  0.00  0.00    +0.038 C 
ATOM     30  C   UNL     1      32.276 -23.399 -15.195  0.00  0.00    +0.290 C 
ATOM     31  C   UNL     1      33.654 -23.975 -14.915  0.00  0.00    +0.271 C 
ATOM     32  H   UNL     1      35.541 -23.888 -15.698  0.00  0.00    +0.155 HD
ENDBRANCH  20  24
ENDBRANCH  17  20
ENDBRANCH  14  18
BRANCH   5  33
ATOM     33  C   UNL     1      32.323 -13.718 -22.948  0.00  0.00    +0.089 C 
BRANCH  33  36
ATOM     34  O   UNL     1      31.905 -11.449 -22.200  0.00  0.00    -0.275 OA
ATOM     35  N   UNL     1      32.361 -13.079 -20.643  0.00  0.00    -0.329 N 
ATOM     36  C   UNL     1      32.169 -12.617 -21.927  0.00  0.00    +0.220 C 
ATOM     37  H   UNL     1      32.288 -12.460 -19.881  0.00  0.00    +0.145 HD
ATOM     38  H   UNL     1      32.570 -14.028 -20.488  0.00  0.00    +0.145 HD
ENDBRANCH  33  36
ENDBRANCH   5  33
TORSDOF 5
ENDMDL
MODEL 2
REMARK VINA RESULT:     -13.3      1.134      1.711
REMARK  Name = 25174099
REMARK  5 active torsions:
REMARK  status: ('A' for Active; 'I' for Inactive)
REMARK    1  A    between atoms: C_5  and  C_33
REMARK    2  A    between atoms: C_14  and  C_18
REMARK    3  A    between atoms: N_17  and  C_20
REMARK    4  A    between atoms: C_20  and  C_24
REMARK    5  A    between atoms: C_33  and  C_36
REMARK                            x       y       z     vdW  Elec       q    Type
REMARK                         _______ _______ _______ _____ _____    ______ ____
ROOT
ATOM      1  S   UNL     1      34.779 -17.337 -25.003  0.00  0.00    -0.064 S 
ATOM      2  O   UNL     1      34.825 -15.119 -20.588  0.00  0.00    -0.274 OA
ATOM      3  N   UNL     1      35.712 -18.508 -22.784  0.00  0.00    -0.379 NA
ATOM      4  N   UNL     1      35.646 -17.275 -20.736  0.00  0.00    -0.255 N 
ATOM      5  C   UNL     1      33.678 -13.891 -23.236  0.00  0.00    +0.028 C 
ATOM      6  C   UNL     1      33.580 -13.011 -24.506  0.00  0.00    +0.005 C 
ATOM      7  C   UNL     1      34.206 -15.264 -23.578  0.00  0.00    -0.027 C 
ATOM      8  C   UNL     1      32.911 -13.745 -25.677  0.00  0.00    +0.006 C 
ATOM      9  C   UNL     1      33.687 -15.006 -26.077  0.00  0.00    +0.032 C 
ATOM     10  C   UNL     1      34.164 -15.756 -24.871  0.00  0.00    +0.002 C 
ATOM     11  C   UNL     1      34.799 -16.221 -22.689  0.00  0.00    +0.154 C 
ATOM     12  C   UNL     1      35.143 -17.399 -23.337  0.00  0.00    +0.152 C 
ATOM     13  C   UNL     1      35.070 -16.118 -21.257  0.00  0.00    +0.239 C 
ATOM     14  C   UNL     1      35.932 -18.389 -21.511  0.00  0.00    +0.240 C 
ATOM     15  H   UNL     1      35.860 -17.303 -19.775  0.00  0.00    +0.157 HD
ENDROOT
BRANCH  14  18
ATOM     16  O   UNL     1      37.610 -19.323 -20.207  0.00  0.00    -0.266 OA
ATOM     17  N   UNL     1      35.808 -20.682 -20.846  0.00  0.00    -0.294 N 
ATOM     18  C   UNL     1      36.546 -19.521 -20.779  0.00  0.00    +0.290 C 
ATOM     19  H   UNL     1      34.964 -20.672 -21.353  0.00  0.00    +0.150 HD
BRANCH  17  20
ATOM     20  C   UNL     1      36.213 -21.913 -20.206  0.00  0.00    +0.117 C 
BRANCH  20  24
ATOM     21  O   UNL     1      33.201 -22.950 -15.532  0.00  0.00    -0.464 OA
ATOM     22  O   UNL     1      29.858 -22.874 -16.904  0.00  0.00    -0.271 OA
ATOM     23  N   UNL     1      31.861 -22.559 -17.992  0.00  0.00    -0.279 N 
ATOM     24  C   UNL     1      35.399 -22.200 -18.977  0.00  0.00    -0.001 C 
ATOM     25  C   UNL     1      33.256 -22.533 -17.918  0.00  0.00    +0.085 C 
ATOM     26  C   UNL     1      34.007 -22.259 -19.062  0.00  0.00    +0.015 C 
ATOM     27  C   UNL     1      33.889 -22.737 -16.693  0.00  0.00    +0.153 C 
ATOM     28  C   UNL     1      36.034 -22.400 -17.752  0.00  0.00    +0.001 C 
ATOM     29  C   UNL     1      35.280 -22.661 -16.607  0.00  0.00    +0.038 C 
ATOM     30  C   UNL     1      31.881 -23.423 -15.720  0.00  0.00    +0.290 C 
ATOM     31  C   UNL     1      31.087 -22.904 -16.907  0.00  0.00    +0.271 C 
ATOM     32  H   UNL     1      31.420 -22.325 -18.840  0.00  0.00    +0.155 HD
ENDBRANCH  20  24
ENDBRANCH  17  20
ENDBRANCH  14  18
BRANCH   5  33
ATOM     33  C   UNL     1      32.319 -13.980 -22.532  0.00  0.00    +0.089 C 
BRANCH  33  36
ATOM     34  O   UNL     1      32.653 -12.718 -20.488  0.00  0.00    -0.275 OA
ATOM     35  N   UNL     1      31.200 -11.914 -22.080  0.00  0.00    -0.329 N 
ATOM     36  C   UNL     1      32.100 -12.831 -21.579  0.00  0.00    +0.220 C 
ATOM     37  H   UNL     1      30.969 -11.114 -21.555  0.00  0.00    +0.145 HD
ATOM     38  H   UNL     1      30.790 -12.060 -22.962  0.00  0.00    +0.145 HD
ENDBRANCH  33  36
ENDBRANCH   5  33
TORSDOF 5
ENDMDL
MODEL 3
REMARK VINA RESULT:     -13.2      3.133     10.343
REMARK  Name = 25174099
REMARK  5 active torsions:
REMARK  status: ('A' for Active; 'I' for Inactive)
REMARK    1  A    between atoms: C_5  and  C_33
REMARK    2  A    between atoms: C_14  and  C_18
REMARK    3  A    between atoms: N_17  and  C_20
REMARK    4  A    between atoms: C_20  and  C_24
REMARK    5  A    between atoms: C_33  and  C_36
REMARK                            x       y       z     vdW  Elec       q    Type
REMARK                         _______ _______ _______ _____ _____    ______ ____
ROOT
ATOM      1  S   UNL     1      34.907 -23.920 -15.171  0.00  0.00    -0.064 S 
ATOM      2  O   UNL     1      31.672 -22.435 -18.598  0.00  0.00    -0.274 OA
ATOM      3  N   UNL     1      35.624 -22.618 -17.397  0.00  0.00    -0.379 NA
ATOM      4  N   UNL     1      33.912 -21.975 -18.938  0.00  0.00    -0.255 N 
ATOM      5  C   UNL     1      30.950 -23.883 -15.912  0.00  0.00    +0.028 C 
ATOM      6  C   UNL     1      30.530 -25.010 -14.936  0.00  0.00    +0.005 C 
ATOM      7  C   UNL     1      32.453 -23.740 -15.946  0.00  0.00    -0.027 C 
ATOM      8  C   UNL     1      31.254 -24.914 -13.585  0.00  0.00    +0.006 C 
ATOM      9  C   UNL     1      32.776 -25.019 -13.745  0.00  0.00    +0.032 C 
ATOM     10  C   UNL     1      33.252 -24.236 -14.930  0.00  0.00    +0.002 C 
ATOM     11  C   UNL     1      33.249 -23.116 -16.963  0.00  0.00    +0.154 C 
ATOM     12  C   UNL     1      34.603 -23.135 -16.655  0.00  0.00    +0.152 C 
ATOM     13  C   UNL     1      32.837 -22.492 -18.217  0.00  0.00    +0.239 C 
ATOM     14  C   UNL     1      35.225 -22.063 -18.500  0.00  0.00    +0.240 C 
ATOM     15  H   UNL     1      33.731 -21.528 -19.796  0.00  0.00    +0.157 HD
ENDROOT
BRANCH  14  18
ATOM     16  O   UNL     1      37.412 -21.624 -19.139  0.00  0.00    -0.266 OA
ATOM     17  N   UNL     1      35.673 -20.770 -20.460  0.00  0.00    -0.294 N 
ATOM     18  C   UNL     1      36.229 -21.459 -19.404  0.00  0.00    +0.290 C 
ATOM     19  H   UNL     1      34.692 -20.732 -20.529  0.00  0.00    +0.150 HD
BRANCH  17  20
ATOM     20  C   UNL     1      36.461 -20.100 -21.469  0.00  0.00    +0.117 C 
BRANCH  20  24
ATOM     21  O   UNL     1      34.197 -15.138 -22.967  0.00  0.00    -0.464 OA
ATOM     22  O   UNL     1      34.083 -15.553 -26.555  0.00  0.00    -0.271 OA
ATOM     23  N   UNL     1      34.853 -17.028 -24.967  0.00  0.00    -0.279 N 
ATOM     24  C   UNL     1      35.849 -18.794 -21.883  0.00  0.00    -0.001 C 
ATOM     25  C   UNL     1      35.048 -17.313 -23.612  0.00  0.00    +0.085 C 
ATOM     26  C   UNL     1      35.623 -18.527 -23.234  0.00  0.00    +0.015 C 
ATOM     27  C   UNL     1      34.708 -16.365 -22.648  0.00  0.00    +0.153 C 
ATOM     28  C   UNL     1      35.512 -17.845 -20.917  0.00  0.00    +0.001 C 
ATOM     29  C   UNL     1      34.949 -16.627 -21.299  0.00  0.00    +0.038 C 
ATOM     30  C   UNL     1      33.597 -15.076 -24.247  0.00  0.00    +0.290 C 
ATOM     31  C   UNL     1      34.217 -15.879 -25.378  0.00  0.00    +0.271 C 
ATOM     32  H   UNL     1      35.179 -17.664 -25.644  0.00  0.00    +0.155 HD
ENDBRANCH  20  24
ENDBRANCH  17  20
ENDBRANCH  14  18
BRANCH   5  33
ATOM     33  C   UNL     1      30.276 -22.559 -15.533  0.00  0.00    +0.089 C 
BRANCH  33  36
ATOM     34  O   UNL     1      27.919 -21.989 -15.483  0.00  0.00    -0.275 OA
ATOM     35  N   UNL     1      28.803 -22.950 -17.377  0.00  0.00    -0.329 N 
ATOM     36  C   UNL     1      28.878 -22.456 -16.092  0.00  0.00    +0.220 C 
ATOM     37  H   UNL     1      27.944 -22.941 -17.857  0.00  0.00    +0.145 HD
ATOM     38  H   UNL     1      29.607 -23.311 -17.813  0.00  0.00    +0.145 HD
ENDBRANCH  33  36
ENDBRANCH   5  33
TORSDOF 5
ENDMDL
MODEL 4
REMARK VINA RESULT:     -13.0      2.594     10.362
REMARK  Name = 25174099
REMARK  5 active torsions:
REMARK  status: ('A' for Active; 'I' for Inactive)
REMARK    1  A    between atoms: C_5  and  C_33
REMARK    2  A    between atoms: C_14  and  C_18
REMARK    3  A    between atoms: N_17  and  C_20
REMARK    4  A    between atoms: C_20  and  C_24
REMARK    5  A    between atoms: C_33  and  C_36
REMARK                            x       y       z     vdW  Elec       q    Type
REMARK                         _______ _______ _______ _____ _____    ______ ____
ROOT
ATOM      1  S   UNL     1      37.400 -22.056 -16.496  0.00  0.00    -0.064 S 
ATOM      2  O   UNL     1      33.129 -22.747 -18.883  0.00  0.00    -0.274 OA
ATOM      3  N   UNL     1      36.851 -20.947 -18.871  0.00  0.00    -0.379 NA
ATOM      4  N   UNL     1      34.724 -21.395 -19.868  0.00  0.00    -0.255 N 
ATOM      5  C   UNL     1      33.854 -23.912 -16.063  0.00  0.00    +0.028 C 
ATOM      6  C   UNL     1      34.269 -24.934 -14.975  0.00  0.00    +0.005 C 
ATOM      7  C   UNL     1      35.050 -23.120 -16.534  0.00  0.00    -0.027 C 
ATOM      8  C   UNL     1      35.163 -24.309 -13.895  0.00  0.00    +0.006 C 
ATOM      9  C   UNL     1      36.462 -23.746 -14.486  0.00  0.00    +0.032 C 
ATOM     10  C   UNL     1      36.207 -23.035 -15.779  0.00  0.00    +0.002 C 
ATOM     11  C   UNL     1      35.182 -22.377 -17.754  0.00  0.00    +0.154 C 
ATOM     12  C   UNL     1      36.412 -21.739 -17.851  0.00  0.00    +0.152 C 
ATOM     13  C   UNL     1      34.234 -22.214 -18.853  0.00  0.00    +0.239 C 
ATOM     14  C   UNL     1      35.983 -20.815 -19.826  0.00  0.00    +0.240 C 
ATOM     15  H   UNL     1      34.152 -21.221 -20.650  0.00  0.00    +0.157 HD
ENDROOT
BRANCH  14  18
ATOM     16  O   UNL     1      37.446 -19.484 -21.041  0.00  0.00    -0.266 OA
ATOM     17  N   UNL     1      35.305 -19.872 -21.915  0.00  0.00    -0.294 N 
ATOM     18  C   UNL     1      36.328 -19.980 -20.999  0.00  0.00    +0.290 C 
ATOM     19  H   UNL     1      34.458 -20.339 -21.729  0.00  0.00    +0.150 HD
BRANCH  17  20
ATOM     20  C   UNL     1      35.416 -19.109 -23.137  0.00  0.00    +0.117 C 
BRANCH  20  24
ATOM     21  O   UNL     1      34.094 -13.673 -22.304  0.00  0.00    -0.464 OA
ATOM     22  O   UNL     1      33.538 -12.627 -25.718  0.00  0.00    -0.271 OA
ATOM     23  N   UNL     1      34.140 -14.705 -24.937  0.00  0.00    -0.279 N 
ATOM     24  C   UNL     1      35.051 -17.667 -22.933  0.00  0.00    -0.001 C 
ATOM     25  C   UNL     1      34.406 -15.524 -23.836  0.00  0.00    +0.085 C 
ATOM     26  C   UNL     1      34.751 -16.862 -24.032  0.00  0.00    +0.015 C 
ATOM     27  C   UNL     1      34.368 -14.989 -22.549  0.00  0.00    +0.153 C 
ATOM     28  C   UNL     1      35.017 -17.133 -21.645  0.00  0.00    +0.001 C 
ATOM     29  C   UNL     1      34.683 -15.792 -21.452  0.00  0.00    +0.038 C 
ATOM     30  C   UNL     1      33.395 -13.023 -23.349  0.00  0.00    +0.290 C 
ATOM     31  C   UNL     1      33.718 -13.404 -24.783  0.00  0.00    +0.271 C 
ATOM     32  H   UNL     1      34.257 -15.067 -25.845  0.00  0.00    +0.155 HD
ENDBRANCH  20  24
ENDBRANCH  17  20
ENDBRANCH  14  18
BRANCH   5  33
ATOM     33  C   UNL     1      32.748 -22.987 -15.543  0.00  0.00    +0.089 C 
BRANCH  33  36
ATOM     34  O   UNL     1      30.783 -24.406 -15.428  0.00  0.00    -0.275 OA
ATOM     35  N   UNL     1      30.858 -22.714 -16.984  0.00  0.00    -0.329 N 
ATOM     36  C   UNL     1      31.375 -23.464 -15.950  0.00  0.00    +0.220 C 
ATOM     37  H   UNL     1      29.966 -22.921 -17.345  0.00  0.00    +0.145 HD
ATOM     38  H   UNL     1      31.381 -21.970 -17.361  0.00  0.00    +0.145 HD
ENDBRANCH  33  36
ENDBRANCH   5  33
TORSDOF 5
ENDMDL
MODEL 5
REMARK VINA RESULT:     -12.7      3.008      5.011
REMARK  Name = 25174099
REMARK  5 active torsions:
REMARK  status: ('A' for Active; 'I' for Inactive)
REMARK    1  A    between atoms: C_5  and  C_33
REMARK    2  A    between atoms: C_14  and  C_18
REMARK    3  A    between atoms: N_17  and  C_20
REMARK    4  A    between atoms: C_20  and  C_24
REMARK    5  A    between atoms: C_33  and  C_36
REMARK                            x       y       z     vdW  Elec       q    Type
REMARK                         _______ _______ _______ _____ _____    ______ ____
ROOT
ATOM      1  S   UNL     1      32.403 -13.419 -21.016  0.00  0.00    -0.064 S 
ATOM      2  O   UNL     1      33.744 -11.866 -25.512  0.00  0.00    -0.274 OA
ATOM      3  N   UNL     1      33.606 -14.997 -22.814  0.00  0.00    -0.379 NA
ATOM      4  N   UNL     1      34.184 -14.062 -24.938  0.00  0.00    -0.255 N 
ATOM      5  C   UNL     1      32.415 -10.097 -23.290  0.00  0.00    +0.028 C 
ATOM      6  C   UNL     1      31.332  -9.298 -22.522  0.00  0.00    +0.005 C 
ATOM      7  C   UNL     1      32.553 -11.489 -22.721  0.00  0.00    -0.027 C 
ATOM      8  C   UNL     1      31.485  -9.419 -20.999  0.00  0.00    +0.006 C 
ATOM      9  C   UNL     1      31.371 -10.874 -20.529  0.00  0.00    +0.032 C 
ATOM     10  C   UNL     1      32.101 -11.802 -21.451  0.00  0.00    +0.002 C 
ATOM     11  C   UNL     1      33.132 -12.639 -23.354  0.00  0.00    +0.154 C 
ATOM     12  C   UNL     1      33.124 -13.754 -22.526  0.00  0.00    +0.152 C 
ATOM     13  C   UNL     1      33.702 -12.778 -24.692  0.00  0.00    +0.239 C 
ATOM     14  C   UNL     1      34.113 -15.085 -24.005  0.00  0.00    +0.240 C 
ATOM     15  H   UNL     1      34.594 -14.251 -25.813  0.00  0.00    +0.157 HD
ENDROOT
BRANCH  14  18
ATOM     16  O   UNL     1      34.789 -16.572 -25.655  0.00  0.00    -0.266 OA
ATOM     17  N   UNL     1      35.006 -17.222 -23.412  0.00  0.00    -0.294 N 
ATOM     18  C   UNL     1      34.676 -16.380 -24.451  0.00  0.00    +0.290 C 
ATOM     19  H   UNL     1      34.850 -16.912 -22.491  0.00  0.00    +0.150 HD
BRANCH  17  20
ATOM     20  C   UNL     1      35.572 -18.537 -23.609  0.00  0.00    +0.117 C 
BRANCH  20  24
ATOM     21  O   UNL     1      35.799 -21.457 -18.770  0.00  0.00    -0.464 OA
ATOM     22  O   UNL     1      32.332 -22.426 -18.453  0.00  0.00    -0.271 OA
ATOM     23  N   UNL     1      33.325 -21.181 -20.113  0.00  0.00    -0.279 N 
ATOM     24  C   UNL     1      35.617 -19.326 -22.333  0.00  0.00    -0.001 C 
ATOM     25  C   UNL     1      34.499 -20.636 -20.643  0.00  0.00    +0.085 C 
ATOM     26  C   UNL     1      34.449 -19.898 -21.826  0.00  0.00    +0.015 C 
ATOM     27  C   UNL     1      35.705 -20.795 -19.962  0.00  0.00    +0.153 C 
ATOM     28  C   UNL     1      36.824 -19.480 -21.652  0.00  0.00    +0.001 C 
ATOM     29  C   UNL     1      36.868 -20.208 -20.462  0.00  0.00    +0.038 C 
ATOM     30  C   UNL     1      34.737 -22.358 -18.523  0.00  0.00    +0.290 C 
ATOM     31  C   UNL     1      33.343 -21.981 -18.994  0.00  0.00    +0.271 C 
ATOM     32  H   UNL     1      32.465 -20.988 -20.551  0.00  0.00    +0.155 HD
ENDBRANCH  20  24
ENDBRANCH  17  20
ENDBRANCH  14  18
BRANCH   5  33
ATOM     33  C   UNL     1      33.755  -9.353 -23.266  0.00  0.00    +0.089 C 
BRANCH  33  36
ATOM     34  O   UNL     1      33.052  -7.269 -24.289  0.00  0.00    -0.275 OA
ATOM     35  N   UNL     1      34.062  -7.222 -22.223  0.00  0.00    -0.329 N 
ATOM     36  C   UNL     1      33.573  -7.857 -23.344  0.00  0.00    +0.220 C 
ATOM     37  H   UNL     1      34.005  -6.242 -22.148  0.00  0.00    +0.145 HD
ATOM     38  H   UNL     1      34.469  -7.749 -21.498  0.00  0.00    +0.145 HD
ENDBRANCH  33  36
ENDBRANCH   5  33
TORSDOF 5
ENDMDL
MODEL 6
REMARK VINA RESULT:     -12.6      2.924     10.877
REMARK  Name = 25174099
REMARK  5 active torsions:
REMARK  status: ('A' for Active; 'I' for Inactive)
REMARK    1  A    between atoms: C_5  and  C_33
REMARK    2  A    between atoms: C_14  and  C_18
REMARK    3  A    between atoms: N_17  and  C_20
REMARK    4  A    between atoms: C_20  and  C_24
REMARK    5  A    between atoms: C_33  and  C_36
REMARK                            x       y       z     vdW  Elec       q    Type
REMARK                         _______ _______ _______ _____ _____    ______ ____
ROOT
ATOM      1  S   UNL     1      31.454 -23.026 -16.860  0.00  0.00    -0.064 S 
ATOM      2  O   UNL     1      36.357 -22.603 -17.311  0.00  0.00    -0.274 OA
ATOM      3  N   UNL     1      32.638 -21.844 -18.951  0.00  0.00    -0.379 NA
ATOM      4  N   UNL     1      35.027 -21.741 -18.993  0.00  0.00    -0.255 N 
ATOM      5  C   UNL     1      34.856 -24.042 -14.963  0.00  0.00    +0.028 C 
ATOM      6  C   UNL     1      34.260 -24.291 -13.555  0.00  0.00    +0.005 C 
ATOM      7  C   UNL     1      33.800 -23.512 -15.903  0.00  0.00    -0.027 C 
ATOM      8  C   UNL     1      32.928 -25.052 -13.609  0.00  0.00    +0.006 C 
ATOM      9  C   UNL     1      31.865 -24.284 -14.406  0.00  0.00    +0.032 C 
ATOM     10  C   UNL     1      32.450 -23.669 -15.639  0.00  0.00    +0.002 C 
ATOM     11  C   UNL     1      34.000 -22.807 -17.136  0.00  0.00    +0.154 C 
ATOM     12  C   UNL     1      32.801 -22.496 -17.764  0.00  0.00    +0.152 C 
ATOM     13  C   UNL     1      35.243 -22.398 -17.784  0.00  0.00    +0.239 C 
ATOM     14  C   UNL     1      33.760 -21.502 -19.505  0.00  0.00    +0.240 C 
ATOM     15  H   UNL     1      35.808 -21.432 -19.508  0.00  0.00    +0.157 HD
ENDROOT
BRANCH  14  18
ATOM     16  O   UNL     1      32.641 -20.559 -21.306  0.00  0.00    -0.266 OA
ATOM     17  N   UNL     1      34.984 -20.463 -21.276  0.00  0.00    -0.294 N 
ATOM     18  C   UNL     1      33.732 -20.786 -20.801  0.00  0.00    +0.290 C 
ATOM     19  H   UNL     1      35.769 -20.721 -20.741  0.00  0.00    +0.150 HD
BRANCH  17  20
ATOM     20  C   UNL     1      35.200 -19.762 -22.521  0.00  0.00    +0.117 C 
BRANCH  20  24
ATOM     21  O   UNL     1      34.526 -14.181 -21.898  0.00  0.00    -0.464 OA
ATOM     22  O   UNL     1      33.801 -13.246 -25.313  0.00  0.00    -0.271 OA
ATOM     23  N   UNL     1      34.246 -15.338 -24.464  0.00  0.00    -0.279 N 
ATOM     24  C   UNL     1      35.005 -18.281 -22.371  0.00  0.00    -0.001 C 
ATOM     25  C   UNL     1      34.515 -16.126 -23.342  0.00  0.00    +0.085 C 
ATOM     26  C   UNL     1      34.702 -17.502 -23.488  0.00  0.00    +0.015 C 
ATOM     27  C   UNL     1      34.640 -15.529 -22.088  0.00  0.00    +0.153 C 
ATOM     28  C   UNL     1      35.134 -17.685 -21.117  0.00  0.00    +0.001 C 
ATOM     29  C   UNL     1      34.959 -16.308 -20.975  0.00  0.00    +0.038 C 
ATOM     30  C   UNL     1      33.815 -13.510 -22.921  0.00  0.00    +0.290 C 
ATOM     31  C   UNL     1      33.976 -13.993 -24.353  0.00  0.00    +0.271 C 
ATOM     32  H   UNL     1      34.249 -15.754 -25.356  0.00  0.00    +0.155 HD
ENDBRANCH  20  24
ENDBRANCH  17  20
ENDBRANCH  14  18
BRANCH   5  33
ATOM     33  C   UNL     1      35.496 -25.321 -15.513  0.00  0.00    +0.089 C 
BRANCH  33  36
ATOM     34  O   UNL     1      37.262 -26.454 -14.296  0.00  0.00    -0.275 OA
ATOM     35  N   UNL     1      37.744 -24.508 -15.422  0.00  0.00    -0.329 N 
ATOM     36  C   UNL     1      36.903 -25.515 -15.002  0.00  0.00    +0.220 C 
ATOM     37  H   UNL     1      38.692 -24.515 -15.157  0.00  0.00    +0.145 HD
ATOM     38  H   UNL     1      37.397 -23.781 -15.987  0.00  0.00    +0.145 HD
ENDBRANCH  33  36
ENDBRANCH   5  33
TORSDOF 5
ENDMDL
MODEL 7
REMARK VINA RESULT:     -12.3      2.111      2.863
REMARK  Name = 25174099
REMARK  5 active torsions:
REMARK  status: ('A' for Active; 'I' for Inactive)
REMARK    1  A    between atoms: C_5  and  C_33
REMARK    2  A    between atoms: C_14  and  C_18
REMARK    3  A    between atoms: N_17  and  C_20
REMARK    4  A    between atoms: C_20  and  C_24
REMARK    5  A    between atoms: C_33  and  C_36
REMARK                            x       y       z     vdW  Elec       q    Type
REMARK                         _______ _______ _______ _____ _____    ______ ____
ROOT
ATOM      1  S   UNL     1      34.325 -14.659 -20.465  0.00  0.00    -0.064 S 
ATOM      2  O   UNL     1      34.276 -17.041 -24.794  0.00  0.00    -0.274 OA
ATOM      3  N   UNL     1      35.564 -16.997 -20.866  0.00  0.00    -0.379 NA
ATOM      4  N   UNL     1      35.431 -17.996 -23.035  0.00  0.00    -0.255 N 
ATOM      5  C   UNL     1      32.944 -14.259 -24.225  0.00  0.00    +0.028 C 
ATOM      6  C   UNL     1      31.844 -13.203 -23.948  0.00  0.00    +0.005 C 
ATOM      7  C   UNL     1      33.583 -14.714 -22.935  0.00  0.00    -0.027 C 
ATOM      8  C   UNL     1      32.314 -12.111 -22.977  0.00  0.00    +0.006 C 
ATOM      9  C   UNL     1      32.717 -12.692 -21.615  0.00  0.00    +0.032 C 
ATOM     10  C   UNL     1      33.492 -13.963 -21.776  0.00  0.00    +0.002 C 
ATOM     11  C   UNL     1      34.336 -15.913 -22.708  0.00  0.00    +0.154 C 
ATOM     12  C   UNL     1      34.809 -15.998 -21.405  0.00  0.00    +0.152 C 
ATOM     13  C   UNL     1      34.656 -17.001 -23.628  0.00  0.00    +0.239 C 
ATOM     14  C   UNL     1      35.838 -17.944 -21.710  0.00  0.00    +0.240 C 
ATOM     15  H   UNL     1      35.703 -18.769 -23.580  0.00  0.00    +0.157 HD
ENDROOT
BRANCH  14  18
ATOM     16  O   UNL     1      37.841 -19.107 -21.557  0.00  0.00    -0.266 OA
ATOM     17  N   UNL     1      35.937 -20.026 -20.540  0.00  0.00    -0.294 N 
ATOM     18  C   UNL     1      36.654 -19.094 -21.259  0.00  0.00    +0.290 C 
ATOM     19  H   UNL     1      34.979 -19.863 -20.387  0.00  0.00    +0.150 HD
BRANCH  17  20
ATOM     20  C   UNL     1      36.527 -21.229 -19.999  0.00  0.00    +0.117 C 
BRANCH  20  24
ATOM     21  O   UNL     1      33.129 -23.733 -16.233  0.00  0.00    -0.464 OA
ATOM     22  O   UNL     1      35.402 -24.046 -13.441  0.00  0.00    -0.271 OA
ATOM     23  N   UNL     1      35.802 -23.143 -15.519  0.00  0.00    -0.279 N 
ATOM     24  C   UNL     1      35.635 -21.882 -18.983  0.00  0.00    -0.001 C 
ATOM     25  C   UNL     1      35.297 -22.796 -16.775  0.00  0.00    +0.085 C 
ATOM     26  C   UNL     1      36.133 -22.195 -17.718  0.00  0.00    +0.015 C 
ATOM     27  C   UNL     1      33.973 -23.092 -17.096  0.00  0.00    +0.153 C 
ATOM     28  C   UNL     1      34.311 -22.181 -19.308  0.00  0.00    +0.001 C 
ATOM     29  C   UNL     1      33.482 -22.793 -18.368  0.00  0.00    +0.038 C 
ATOM     30  C   UNL     1      33.512 -23.640 -14.874  0.00  0.00    +0.290 C 
ATOM     31  C   UNL     1      34.993 -23.663 -14.535  0.00  0.00    +0.271 C 
ATOM     32  H   UNL     1      36.760 -23.013 -15.333  0.00  0.00    +0.155 HD
ENDBRANCH  20  24
ENDBRANCH  17  20
ENDBRANCH  14  18
BRANCH   5  33
ATOM     33  C   UNL     1      33.991 -13.707 -25.198  0.00  0.00    +0.089 C 
BRANCH  33  36
ATOM     34  O   UNL     1      34.160 -13.544 -27.613  0.00  0.00    -0.275 OA
ATOM     35  N   UNL     1      32.887 -15.220 -26.686  0.00  0.00    -0.329 N 
ATOM     36  C   UNL     1      33.711 -14.117 -26.623  0.00  0.00    +0.220 C 
ATOM     37  H   UNL     1      32.626 -15.591 -27.560  0.00  0.00    +0.145 HD
ATOM     38  H   UNL     1      32.558 -15.637 -25.857  0.00  0.00    +0.145 HD
ENDBRANCH  33  36
ENDBRANCH   5  33
TORSDOF 5
ENDMDL
MODEL 8
REMARK VINA RESULT:     -11.9      4.876     12.531
REMARK  Name = 25174099
REMARK  5 active torsions:
REMARK  status: ('A' for Active; 'I' for Inactive)
REMARK    1  A    between atoms: C_5  and  C_33
REMARK    2  A    between atoms: C_14  and  C_18
REMARK    3  A    between atoms: N_17  and  C_20
REMARK    4  A    between atoms: C_20  and  C_24
REMARK    5  A    between atoms: C_33  and  C_36
REMARK                            x       y       z     vdW  Elec       q    Type
REMARK                         _______ _______ _______ _____ _____    ______ ____
ROOT
ATOM      1  S   UNL     1      33.470 -13.337 -24.937  0.00  0.00    -0.064 S 
ATOM      2  O   UNL     1      33.054 -15.196 -20.377  0.00  0.00    -0.274 OA
ATOM      3  N   UNL     1      32.520 -11.936 -22.863  0.00  0.00    -0.379 NA
ATOM      4  N   UNL     1      32.399 -13.008 -20.728  0.00  0.00    -0.255 N 
ATOM      5  C   UNL     1      34.234 -16.702 -22.863  0.00  0.00    +0.028 C 
ATOM      6  C   UNL     1      34.329 -17.683 -24.057  0.00  0.00    +0.005 C 
ATOM      7  C   UNL     1      33.824 -15.327 -23.333  0.00  0.00    -0.027 C 
ATOM      8  C   UNL     1      35.104 -17.090 -25.242  0.00  0.00    +0.006 C 
ATOM      9  C   UNL     1      34.441 -15.813 -25.775  0.00  0.00    +0.032 C 
ATOM     10  C   UNL     1      33.963 -14.941 -24.655  0.00  0.00    +0.002 C 
ATOM     11  C   UNL     1      33.260 -14.266 -22.550  0.00  0.00    +0.154 C 
ATOM     12  C   UNL     1      33.033 -13.121 -23.302  0.00  0.00    +0.152 C 
ATOM     13  C   UNL     1      32.914 -14.239 -21.131  0.00  0.00    +0.239 C 
ATOM     14  C   UNL     1      32.232 -11.940 -21.598  0.00  0.00    +0.240 C 
ATOM     15  H   UNL     1      32.143 -12.891 -19.785  0.00  0.00    +0.157 HD
ENDROOT
BRANCH  14  18
ATOM     16  O   UNL     1      30.572 -10.799 -20.444  0.00  0.00    -0.266 OA
ATOM     17  N   UNL     1      32.480  -9.612 -21.115  0.00  0.00    -0.294 N 
ATOM     18  C   UNL     1      31.666 -10.716 -20.986  0.00  0.00    +0.290 C 
ATOM     19  H   UNL     1      33.339  -9.716 -21.585  0.00  0.00    +0.150 HD
BRANCH  17  20
ATOM     20  C   UNL     1      32.134  -8.310 -20.594  0.00  0.00    +0.117 C 
BRANCH  20  24
ATOM     21  O   UNL     1      32.357  -4.368 -24.645  0.00  0.00    -0.464 OA
ATOM     22  O   UNL     1      30.177  -1.867 -23.213  0.00  0.00    -0.271 OA
ATOM     23  N   UNL     1      30.773  -3.912 -22.346  0.00  0.00    -0.279 N 
ATOM     24  C   UNL     1      32.192  -7.248 -21.653  0.00  0.00    -0.001 C 
ATOM     25  C   UNL     1      31.528  -5.081 -22.482  0.00  0.00    +0.085 C 
ATOM     26  C   UNL     1      31.465  -6.067 -21.497  0.00  0.00    +0.015 C 
ATOM     27  C   UNL     1      32.306  -5.275 -23.623  0.00  0.00    +0.153 C 
ATOM     28  C   UNL     1      32.968  -7.445 -22.796  0.00  0.00    +0.001 C 
ATOM     29  C   UNL     1      33.019  -6.463 -23.785  0.00  0.00    +0.038 C 
ATOM     30  C   UNL     1      31.981  -3.056 -24.273  0.00  0.00    +0.290 C 
ATOM     31  C   UNL     1      30.869  -2.882 -23.253  0.00  0.00    +0.271 C 
ATOM     32  H   UNL     1      30.159  -3.823 -21.582  0.00  0.00    +0.155 HD
ENDBRANCH  20  24
ENDBRANCH  17  20
ENDBRANCH  14  18
BRANCH   5  33
ATOM     33  C   UNL     1      35.561 -16.652 -22.097  0.00  0.00    +0.089 C 
BRANCH  33  36
ATOM     34  O   UNL     1      35.471 -18.740 -20.866  0.00  0.00    -0.275 OA
ATOM     35  N   UNL     1      37.178 -18.394 -22.368  0.00  0.00    -0.329 N 
ATOM     36  C   UNL     1      36.033 -18.027 -21.693  0.00  0.00    +0.220 C 
ATOM     37  H   UNL     1      37.591 -19.271 -22.197  0.00  0.00    +0.145 HD
ATOM     38  H   UNL     1      37.583 -17.779 -23.021  0.00  0.00    +0.145 HD
ENDBRANCH  33  36
ENDBRANCH   5  33
TORSDOF 5
ENDMDL
MODEL 9
REMARK VINA RESULT:     -11.7      4.600     12.339
REMARK  Name = 25174099
REMARK  5 active torsions:
REMARK  status: ('A' for Active; 'I' for Inactive)
REMARK    1  A    between atoms: C_5  and  C_33
REMARK    2  A    between atoms: C_14  and  C_18
REMARK    3  A    between atoms: N_17  and  C_20
REMARK    4  A    between atoms: C_20  and  C_24
REMARK    5  A    between atoms: C_33  and  C_36
REMARK                            x       y       z     vdW  Elec       q    Type
REMARK                         _______ _______ _______ _____ _____    ______ ____
ROOT
ATOM      1  S   UNL     1      33.427 -13.348 -24.995  0.00  0.00    -0.064 S 
ATOM      2  O   UNL     1      33.183 -15.129 -20.391  0.00  0.00    -0.274 OA
ATOM      3  N   UNL     1      32.587 -11.900 -22.905  0.00  0.00    -0.379 NA
ATOM      4  N   UNL     1      32.545 -12.937 -20.750  0.00  0.00    -0.255 N 
ATOM      5  C   UNL     1      34.233 -16.691 -22.901  0.00  0.00    +0.028 C 
ATOM      6  C   UNL     1      34.261 -17.692 -24.082  0.00  0.00    +0.005 C 
ATOM      7  C   UNL     1      33.821 -15.318 -23.376  0.00  0.00    -0.027 C 
ATOM      8  C   UNL     1      34.992 -17.129 -25.309  0.00  0.00    +0.006 C 
ATOM      9  C   UNL     1      34.324 -15.852 -25.834  0.00  0.00    +0.032 C 
ATOM     10  C   UNL     1      33.908 -14.955 -24.709  0.00  0.00    +0.002 C 
ATOM     11  C   UNL     1      33.307 -14.236 -22.586  0.00  0.00    +0.154 C 
ATOM     12  C   UNL     1      33.064 -13.100 -23.346  0.00  0.00    +0.152 C 
ATOM     13  C   UNL     1      33.024 -14.181 -21.154  0.00  0.00    +0.239 C 
ATOM     14  C   UNL     1      32.355 -11.881 -21.629  0.00  0.00    +0.240 C 
ATOM     15  H   UNL     1      32.331 -12.801 -19.798  0.00  0.00    +0.157 HD
ENDROOT
BRANCH  14  18
ATOM     16  O   UNL     1      31.118 -10.745 -20.026  0.00  0.00    -0.266 OA
ATOM     17  N   UNL     1      32.243  -9.493 -21.660  0.00  0.00    -0.294 N 
ATOM     18  C   UNL     1      31.834 -10.639 -21.013  0.00  0.00    +0.290 C 
ATOM     19  H   UNL     1      32.825  -9.583 -22.448  0.00  0.00    +0.150 HD
BRANCH  17  20
ATOM     20  C   UNL     1      31.859  -8.166 -21.235  0.00  0.00    +0.117 C 
BRANCH  20  24
ATOM     21  O   UNL     1      32.556  -4.281 -25.286  0.00  0.00    -0.464 OA
ATOM     22  O   UNL     1      35.700  -5.384 -26.685  0.00  0.00    -0.271 OA
ATOM     23  N   UNL     1      34.509  -6.298 -24.943  0.00  0.00    -0.279 N 
ATOM     24  C   UNL     1      32.053  -7.150 -22.323  0.00  0.00    -0.001 C 
ATOM     25  C   UNL     1      33.358  -6.265 -24.150  0.00  0.00    +0.085 C 
ATOM     26  C   UNL     1      33.186  -7.208 -23.135  0.00  0.00    +0.015 C 
ATOM     27  C   UNL     1      32.409  -5.263 -24.347  0.00  0.00    +0.153 C 
ATOM     28  C   UNL     1      31.104  -6.147 -22.517  0.00  0.00    +0.001 C 
ATOM     29  C   UNL     1      31.284  -5.198 -23.524  0.00  0.00    +0.038 C 
ATOM     30  C   UNL     1      33.448  -4.611 -26.333  0.00  0.00    +0.290 C 
ATOM     31  C   UNL     1      34.679  -5.439 -26.003  0.00  0.00    +0.271 C 
ATOM     32  H   UNL     1      35.215  -6.952 -24.738  0.00  0.00    +0.155 HD
ENDBRANCH  20  24
ENDBRANCH  17  20
ENDBRANCH  14  18
BRANCH   5  33
ATOM     33  C   UNL     1      35.592 -16.648 -22.194  0.00  0.00    +0.089 C 
BRANCH  33  36
ATOM     34  O   UNL     1      35.443 -18.701 -20.910  0.00  0.00    -0.275 OA
ATOM     35  N   UNL     1      37.195 -18.415 -22.372  0.00  0.00    -0.329 N 
ATOM     36  C   UNL     1      36.036 -18.018 -21.740  0.00  0.00    +0.220 C 
ATOM     37  H   UNL     1      37.592 -19.292 -22.165  0.00  0.00    +0.145 HD
ATOM     38  H   UNL     1      37.625 -17.823 -23.029  0.00  0.00    +0.145 HD
ENDBRANCH  33  36
ENDBRANCH   5  33
TORSDOF 5
ENDMDL
