MODEL 1
REMARK VINA RESULT:     -14.1      0.000      0.000
REMARK  Name = 17748441
REMARK  5 active torsions:
REMARK  status: ('A' for Active; 'I' for Inactive)
REMARK    1  A    between atoms: C_2  and  N_10
REMARK    2  A    between atoms: C_3  and  O_24
REMARK    3  A    between atoms: C_12  and  C_16
REMARK    4  A    between atoms: C_16  and  C_18
REMARK    5  A    between atoms: O_24  and  C_27
REMARK                            x       y       z     vdW  Elec       q    Type
REMARK                         _______ _______ _______ _____ _____    ______ ____
ROOT
ATOM      1  F   UNL     1      33.441 -11.556 -24.405  0.00  0.00    -0.201 F 
ATOM      2  C   UNL     1      33.611 -14.144 -21.855  0.00  0.00    +0.054 C 
ATOM      3  C   UNL     1      32.174 -11.820 -22.417  0.00  0.00    +0.173 C 
ATOM      4  C   UNL     1      33.889 -13.414 -23.011  0.00  0.00    +0.047 C 
ATOM      5  C   UNL     1      32.614 -13.712 -20.981  0.00  0.00    +0.018 C 
ATOM      6  C   UNL     1      33.170 -12.252 -23.292  0.00  0.00    +0.176 C 
ATOM      7  C   UNL     1      31.896 -12.549 -21.261  0.00  0.00    +0.041 C 
ENDROOT
BRANCH   2  10
ATOM      8  O   UNL     1      36.078 -18.679 -23.571  0.00  0.00    -0.274 OA
ATOM      9  O   UNL     1      34.652 -16.280 -23.692  0.00  0.00    -0.252 OA
ATOM     10  N   UNL     1      34.340 -15.323 -21.569  0.00  0.00    -0.268 N 
ATOM     11  N   UNL     1      35.484 -17.307 -21.781  0.00  0.00    -0.239 N 
ATOM     12  C   UNL     1      36.074 -18.429 -22.369  0.00  0.00    +0.234 C 
ATOM     13  C   UNL     1      34.800 -16.286 -22.472  0.00  0.00    +0.310 C 
ATOM     14  H   UNL     1      34.546 -15.483 -20.620  0.00  0.00    +0.156 HD
ATOM     15  H   UNL     1      35.550 -17.222 -20.802  0.00  0.00    +0.159 HD
BRANCH  12  16
ATOM     16  C   UNL     1      36.722 -19.320 -21.326  0.00  0.00    +0.112 C 
BRANCH  16  18
ATOM     17  F   UNL     1      33.059 -22.691 -18.686  0.00  0.00    -0.204 F 
ATOM     18  C   UNL     1      35.743 -20.220 -20.620  0.00  0.00    -0.013 C 
ATOM     19  C   UNL     1      36.204 -21.189 -19.729  0.00  0.00    -0.001 C 
ATOM     20  C   UNL     1      34.374 -20.086 -20.857  0.00  0.00    -0.001 C 
ATOM     21  C   UNL     1      35.297 -22.024 -19.076  0.00  0.00    +0.029 C 
ATOM     22  C   UNL     1      33.468 -20.921 -20.204  0.00  0.00    +0.029 C 
ATOM     23  C   UNL     1      33.929 -21.890 -19.313  0.00  0.00    +0.140 C 
ENDBRANCH  16  18
ENDBRANCH  12  16
ENDBRANCH   2  10
BRANCH   3  24
ATOM     24  O   UNL     1      31.473 -10.685 -22.690  0.00  0.00    -0.451 OA
BRANCH  24  27
ATOM     25  N   UNL     1      33.415  -7.026 -22.132  0.00  0.00    -0.229 NA
ATOM     26  N   UNL     1      33.336  -7.361 -19.774  0.00  0.00    -0.343 N 
ATOM     27  C   UNL     1      32.116  -9.473 -22.505  0.00  0.00    +0.150 C 
ATOM     28  C   UNL     1      32.405  -9.024 -21.221  0.00  0.00    +0.071 C 
ATOM     29  C   UNL     1      32.476  -8.699 -23.602  0.00  0.00    +0.058 C 
ATOM     30  C   UNL     1      33.049  -7.804 -21.089  0.00  0.00    +0.128 C 
ATOM     31  C   UNL     1      33.118  -7.494 -23.364  0.00  0.00    +0.103 C 
ATOM     32  H   UNL     1      33.793  -6.501 -19.633  0.00  0.00    +0.144 HD
ATOM     33  H   UNL     1      33.079  -7.914 -19.001  0.00  0.00    +0.144 HD
ENDBRANCH  24  27
ENDBRANCH   3  24
TORSDOF 5
ENDMDL
MODEL 2
REMARK VINA RESULT:     -13.8      0.874      1.540
REMARK  Name = 17748441
REMARK  5 active torsions:
REMARK  status: ('A' for Active; 'I' for Inactive)
REMARK    1  A    between atoms: C_2  and  N_10
REMARK    2  A    between atoms: C_3  and  O_24
REMARK    3  A    between atoms: C_12  and  C_16
REMARK    4  A    between atoms: C_16  and  C_18
REMARK    5  A    between atoms: O_24  and  C_27
REMARK                            x       y       z     vdW  Elec       q    Type
REMARK                         _______ _______ _______ _____ _____    ______ ____
ROOT
ATOM      1  F   UNL     1      30.958 -11.881 -20.671  0.00  0.00    -0.201 F 
ATOM      2  C   UNL     1      33.641 -13.910 -22.055  0.00  0.00    +0.054 C 
ATOM      3  C   UNL     1      32.245 -11.566 -22.639  0.00  0.00    +0.173 C 
ATOM      4  C   UNL     1      32.627 -13.470 -21.203  0.00  0.00    +0.047 C 
ATOM      5  C   UNL     1      33.955 -13.177 -23.200  0.00  0.00    +0.018 C 
ATOM      6  C   UNL     1      31.930 -12.298 -21.495  0.00  0.00    +0.176 C 
ATOM      7  C   UNL     1      33.257 -12.005 -23.492  0.00  0.00    +0.041 C 
ENDROOT
BRANCH   2  10
ATOM      8  O   UNL     1      35.746 -18.655 -23.682  0.00  0.00    -0.274 OA
ATOM      9  O   UNL     1      34.409 -16.207 -23.830  0.00  0.00    -0.252 OA
ATOM     10  N   UNL     1      34.348 -15.098 -21.760  0.00  0.00    -0.268 N 
ATOM     11  N   UNL     1      35.388 -17.142 -21.943  0.00  0.00    -0.239 N 
ATOM     12  C   UNL     1      35.872 -18.326 -22.505  0.00  0.00    +0.234 C 
ATOM     13  C   UNL     1      34.679 -16.139 -22.634  0.00  0.00    +0.310 C 
ATOM     14  H   UNL     1      34.643 -15.205 -20.826  0.00  0.00    +0.156 HD
ATOM     15  H   UNL     1      35.556 -16.996 -20.983  0.00  0.00    +0.159 HD
BRANCH  12  16
ATOM     16  C   UNL     1      36.587 -19.175 -21.470  0.00  0.00    +0.112 C 
BRANCH  16  18
ATOM     17  F   UNL     1      33.161 -22.721 -18.743  0.00  0.00    -0.204 F 
ATOM     18  C   UNL     1      35.671 -20.123 -20.742  0.00  0.00    -0.013 C 
ATOM     19  C   UNL     1      34.290 -20.010 -20.891  0.00  0.00    -0.001 C 
ATOM     20  C   UNL     1      36.205 -21.113 -19.917  0.00  0.00    -0.001 C 
ATOM     21  C   UNL     1      33.441 -20.888 -20.216  0.00  0.00    +0.029 C 
ATOM     22  C   UNL     1      35.357 -21.990 -19.241  0.00  0.00    +0.029 C 
ATOM     23  C   UNL     1      33.975 -21.879 -19.391  0.00  0.00    +0.140 C 
ENDBRANCH  16  18
ENDBRANCH  12  16
ENDBRANCH   2  10
BRANCH   3  24
ATOM     24  O   UNL     1      31.562 -10.423 -22.926  0.00  0.00    -0.451 OA
BRANCH  24  27
ATOM     25  N   UNL     1      33.430  -6.782 -22.075  0.00  0.00    -0.229 NA
ATOM     26  N   UNL     1      33.330  -7.292 -19.749  0.00  0.00    -0.343 N 
ATOM     27  C   UNL     1      32.181  -9.217 -22.643  0.00  0.00    +0.150 C 
ATOM     28  C   UNL     1      32.446  -8.859 -21.326  0.00  0.00    +0.071 C 
ATOM     29  C   UNL     1      32.540  -8.359 -23.676  0.00  0.00    +0.058 C 
ATOM     30  C   UNL     1      33.067  -7.642 -21.097  0.00  0.00    +0.128 C 
ATOM     31  C   UNL     1      33.157  -7.163 -23.342  0.00  0.00    +0.103 C 
ATOM     32  H   UNL     1      33.770  -6.437 -19.540  0.00  0.00    +0.144 HD
ATOM     33  H   UNL     1      33.073  -7.905 -19.022  0.00  0.00    +0.144 HD
ENDBRANCH  24  27
ENDBRANCH   3  24
TORSDOF 5
ENDMDL
MODEL 3
REMARK VINA RESULT:     -13.6      4.055     10.579
REMARK  Name = 17748441
REMARK  5 active torsions:
REMARK  status: ('A' for Active; 'I' for Inactive)
REMARK    1  A    between atoms: C_2  and  N_10
REMARK    2  A    between atoms: C_3  and  O_24
REMARK    3  A    between atoms: C_12  and  C_16
REMARK    4  A    between atoms: C_16  and  C_18
REMARK    5  A    between atoms: O_24  and  C_27
REMARK                            x       y       z     vdW  Elec       q    Type
REMARK                         _______ _______ _______ _____ _____    ______ ____
ROOT
ATOM      1  F   UNL     1      36.674 -22.280 -19.010  0.00  0.00    -0.201 F 
ATOM      2  C   UNL     1      34.547 -19.962 -20.835  0.00  0.00    +0.054 C 
ATOM      3  C   UNL     1      34.326 -22.310 -19.345  0.00  0.00    +0.173 C 
ATOM      4  C   UNL     1      35.686 -20.549 -20.284  0.00  0.00    +0.047 C 
ATOM      5  C   UNL     1      33.297 -20.551 -20.642  0.00  0.00    +0.018 C 
ATOM      6  C   UNL     1      35.576 -21.722 -19.539  0.00  0.00    +0.176 C 
ATOM      7  C   UNL     1      33.187 -21.725 -19.897  0.00  0.00    +0.041 C 
ENDROOT
BRANCH   2  10
ATOM      8  O   UNL     1      34.918 -17.475 -25.659  0.00  0.00    -0.274 OA
ATOM      9  O   UNL     1      34.699 -19.554 -23.806  0.00  0.00    -0.252 OA
ATOM     10  N   UNL     1      34.658 -18.772 -21.592  0.00  0.00    -0.268 N 
ATOM     11  N   UNL     1      34.831 -17.283 -23.336  0.00  0.00    -0.239 N 
ATOM     12  C   UNL     1      34.921 -16.789 -24.640  0.00  0.00    +0.234 C 
ATOM     13  C   UNL     1      34.725 -18.643 -22.982  0.00  0.00    +0.310 C 
ATOM     14  H   UNL     1      34.694 -17.934 -21.075  0.00  0.00    +0.156 HD
ATOM     15  H   UNL     1      34.845 -16.626 -22.603  0.00  0.00    +0.159 HD
BRANCH  12  16
ATOM     16  C   UNL     1      35.024 -15.275 -24.649  0.00  0.00    +0.112 C 
BRANCH  16  18
ATOM     17  F   UNL     1      32.024 -12.813 -20.564  0.00  0.00    -0.204 F 
ATOM     18  C   UNL     1      34.223 -14.617 -23.558  0.00  0.00    -0.013 C 
ATOM     19  C   UNL     1      34.590 -14.787 -22.224  0.00  0.00    -0.001 C 
ATOM     20  C   UNL     1      33.112 -13.837 -23.881  0.00  0.00    -0.001 C 
ATOM     21  C   UNL     1      33.848 -14.178 -21.212  0.00  0.00    +0.029 C 
ATOM     22  C   UNL     1      32.369 -13.229 -22.870  0.00  0.00    +0.029 C 
ATOM     23  C   UNL     1      32.737 -13.398 -21.535  0.00  0.00    +0.140 C 
ENDBRANCH  16  18
ENDBRANCH  12  16
ENDBRANCH   2  10
BRANCH   3  24
ATOM     24  O   UNL     1      34.218 -23.457 -18.620  0.00  0.00    -0.451 OA
BRANCH  24  27
ATOM     25  N   UNL     1      32.642 -23.170 -14.759  0.00  0.00    -0.229 NA
ATOM     26  N   UNL     1      34.838 -23.390 -13.862  0.00  0.00    -0.343 N 
ATOM     27  C   UNL     1      33.696 -23.362 -17.340  0.00  0.00    +0.150 C 
ATOM     28  C   UNL     1      34.538 -23.425 -16.236  0.00  0.00    +0.071 C 
ATOM     29  C   UNL     1      32.328 -23.204 -17.155  0.00  0.00    +0.058 C 
ATOM     30  C   UNL     1      33.966 -23.325 -14.978  0.00  0.00    +0.128 C 
ATOM     31  C   UNL     1      31.854 -23.113 -15.856  0.00  0.00    +0.103 C 
ATOM     32  H   UNL     1      34.475 -23.323 -12.950  0.00  0.00    +0.144 HD
ATOM     33  H   UNL     1      35.807 -23.503 -14.000  0.00  0.00    +0.144 HD
ENDBRANCH  24  27
ENDBRANCH   3  24
TORSDOF 5
ENDMDL
MODEL 4
REMARK VINA RESULT:     -13.4      4.794      8.092
REMARK  Name = 17748441
REMARK  5 active torsions:
REMARK  status: ('A' for Active; 'I' for Inactive)
REMARK    1  A    between atoms: C_2  and  N_10
REMARK    2  A    between atoms: C_3  and  O_24
REMARK    3  A    between atoms: C_12  and  C_16
REMARK    4  A    between atoms: C_16  and  C_18
REMARK    5  A    between atoms: O_24  and  C_27
REMARK                            x       y       z     vdW  Elec       q    Type
REMARK                         _______ _______ _______ _____ _____    ______ ____
ROOT
ATOM      1  F   UNL     1      33.774 -19.800 -22.695  0.00  0.00    -0.201 F 
ATOM      2  C   UNL     1      36.467 -20.012 -20.259  0.00  0.00    +0.054 C 
ATOM      3  C   UNL     1      35.982 -18.937 -22.787  0.00  0.00    +0.173 C 
ATOM      4  C   UNL     1      35.219 -20.177 -20.860  0.00  0.00    +0.047 C 
ATOM      5  C   UNL     1      37.472 -19.310 -20.923  0.00  0.00    +0.018 C 
ATOM      6  C   UNL     1      34.977 -19.639 -22.124  0.00  0.00    +0.176 C 
ATOM      7  C   UNL     1      37.230 -18.773 -22.187  0.00  0.00    +0.041 C 
ENDROOT
BRANCH   2  10
ATOM      8  O   UNL     1      35.564 -23.882 -16.544  0.00  0.00    -0.274 OA
ATOM      9  O   UNL     1      35.368 -22.483 -18.954  0.00  0.00    -0.252 OA
ATOM     10  N   UNL     1      36.713 -20.558 -18.977  0.00  0.00    -0.268 N 
ATOM     11  N   UNL     1      36.673 -21.912 -17.119  0.00  0.00    -0.239 N 
ATOM     12  C   UNL     1      36.341 -22.972 -16.270  0.00  0.00    +0.234 C 
ATOM     13  C   UNL     1      36.169 -21.719 -18.421  0.00  0.00    +0.310 C 
ATOM     14  H   UNL     1      37.344 -20.058 -18.409  0.00  0.00    +0.156 HD
ATOM     15  H   UNL     1      37.311 -21.244 -16.778  0.00  0.00    +0.159 HD
BRANCH  12  16
ATOM     16  C   UNL     1      37.070 -22.862 -14.944  0.00  0.00    +0.112 C 
BRANCH  16  18
ATOM     17  F   UNL     1      41.056 -26.786 -14.258  0.00  0.00    -0.204 F 
ATOM     18  C   UNL     1      38.135 -23.910 -14.760  0.00  0.00    -0.013 C 
ATOM     19  C   UNL     1      39.159 -24.036 -15.699  0.00  0.00    -0.001 C 
ATOM     20  C   UNL     1      38.098 -24.757 -13.652  0.00  0.00    -0.001 C 
ATOM     21  C   UNL     1      40.146 -25.007 -15.529  0.00  0.00    +0.029 C 
ATOM     22  C   UNL     1      39.084 -25.729 -13.483  0.00  0.00    +0.029 C 
ATOM     23  C   UNL     1      40.109 -25.853 -14.421  0.00  0.00    +0.140 C 
ENDBRANCH  16  18
ENDBRANCH  12  16
ENDBRANCH   2  10
BRANCH   3  24
ATOM     24  O   UNL     1      35.747 -18.414 -24.022  0.00  0.00    -0.451 OA
BRANCH  24  27
ATOM     25  N   UNL     1      33.835 -14.703 -24.224  0.00  0.00    -0.229 NA
ATOM     26  N   UNL     1      32.837 -15.346 -26.290  0.00  0.00    -0.343 N 
ATOM     27  C   UNL     1      35.114 -17.184 -24.089  0.00  0.00    +0.150 C 
ATOM     28  C   UNL     1      34.287 -16.882 -25.166  0.00  0.00    +0.071 C 
ATOM     29  C   UNL     1      35.301 -16.247 -23.081  0.00  0.00    +0.058 C 
ATOM     30  C   UNL     1      33.676 -15.639 -25.186  0.00  0.00    +0.128 C 
ATOM     31  C   UNL     1      34.645 -15.031 -23.193  0.00  0.00    +0.103 C 
ATOM     32  H   UNL     1      32.382 -14.475 -26.345  0.00  0.00    +0.144 HD
ATOM     33  H   UNL     1      32.708 -16.015 -27.001  0.00  0.00    +0.144 HD
ENDBRANCH  24  27
ENDBRANCH   3  24
TORSDOF 5
ENDMDL
MODEL 5
REMARK VINA RESULT:     -13.3      4.997      8.194
REMARK  Name = 17748441
REMARK  5 active torsions:
REMARK  status: ('A' for Active; 'I' for Inactive)
REMARK    1  A    between atoms: C_2  and  N_10
REMARK    2  A    between atoms: C_3  and  O_24
REMARK    3  A    between atoms: C_12  and  C_16
REMARK    4  A    between atoms: C_16  and  C_18
REMARK    5  A    between atoms: O_24  and  C_27
REMARK                            x       y       z     vdW  Elec       q    Type
REMARK                         _______ _______ _______ _____ _____    ______ ____
ROOT
ATOM      1  F   UNL     1      38.147 -18.497 -22.643  0.00  0.00    -0.201 F 
ATOM      2  C   UNL     1      36.256 -20.269 -20.091  0.00  0.00    +0.054 C 
ATOM      3  C   UNL     1      35.877 -19.187 -22.634  0.00  0.00    +0.173 C 
ATOM      4  C   UNL     1      37.315 -19.640 -20.746  0.00  0.00    +0.047 C 
ATOM      5  C   UNL     1      35.008 -20.357 -20.708  0.00  0.00    +0.018 C 
ATOM      6  C   UNL     1      37.125 -19.099 -22.018  0.00  0.00    +0.176 C 
ATOM      7  C   UNL     1      34.819 -19.815 -21.979  0.00  0.00    +0.041 C 
ENDROOT
BRANCH   2  10
ATOM      8  O   UNL     1      35.231 -24.171 -16.442  0.00  0.00    -0.274 OA
ATOM      9  O   UNL     1      35.132 -22.763 -18.852  0.00  0.00    -0.252 OA
ATOM     10  N   UNL     1      36.448 -20.818 -18.801  0.00  0.00    -0.268 N 
ATOM     11  N   UNL     1      36.337 -22.182 -16.953  0.00  0.00    -0.239 N 
ATOM     12  C   UNL     1      35.980 -23.251 -16.126  0.00  0.00    +0.234 C 
ATOM     13  C   UNL     1      35.894 -21.990 -18.277  0.00  0.00    +0.310 C 
ATOM     14  H   UNL     1      37.042 -20.312 -18.200  0.00  0.00    +0.156 HD
ATOM     15  H   UNL     1      36.948 -21.506 -16.578  0.00  0.00    +0.159 HD
BRANCH  12  16
ATOM     16  C   UNL     1      36.641 -23.138 -14.765  0.00  0.00    +0.112 C 
BRANCH  16  18
ATOM     17  F   UNL     1      41.025 -26.616 -14.115  0.00  0.00    -0.204 F 
ATOM     18  C   UNL     1      37.812 -24.068 -14.592  0.00  0.00    -0.013 C 
ATOM     19  C   UNL     1      37.891 -24.887 -13.466  0.00  0.00    -0.001 C 
ATOM     20  C   UNL     1      38.820 -24.109 -15.556  0.00  0.00    -0.001 C 
ATOM     21  C   UNL     1      38.976 -25.749 -13.305  0.00  0.00    +0.029 C 
ATOM     22  C   UNL     1      39.905 -24.969 -15.394  0.00  0.00    +0.029 C 
ATOM     23  C   UNL     1      39.984 -25.790 -14.269  0.00  0.00    +0.140 C 
ENDBRANCH  16  18
ENDBRANCH  12  16
ENDBRANCH   2  10
BRANCH   3  24
ATOM     24  O   UNL     1      35.691 -18.657 -23.874  0.00  0.00    -0.451 OA
BRANCH  24  27
ATOM     25  N   UNL     1      33.982 -14.851 -24.122  0.00  0.00    -0.229 NA
ATOM     26  N   UNL     1      33.005 -15.442 -26.213  0.00  0.00    -0.343 N 
ATOM     27  C   UNL     1      35.125 -17.396 -23.957  0.00  0.00    +0.150 C 
ATOM     28  C   UNL     1      34.344 -17.052 -25.054  0.00  0.00    +0.071 C 
ATOM     29  C   UNL     1      35.336 -16.469 -22.943  0.00  0.00    +0.058 C 
ATOM     30  C   UNL     1      33.800 -15.778 -25.088  0.00  0.00    +0.128 C 
ATOM     31  C   UNL     1      34.748 -15.221 -23.071  0.00  0.00    +0.103 C 
ATOM     32  H   UNL     1      32.599 -14.549 -26.280  0.00  0.00    +0.144 HD
ATOM     33  H   UNL     1      32.860 -16.104 -26.928  0.00  0.00    +0.144 HD
ENDBRANCH  24  27
ENDBRANCH   3  24
TORSDOF 5
ENDMDL
MODEL 6
REMARK VINA RESULT:     -13.3      5.245     12.524
REMARK  Name = 17748441
REMARK  5 active torsions:
REMARK  status: ('A' for Active; 'I' for Inactive)
REMARK    1  A    between atoms: C_2  and  N_10
REMARK    2  A    between atoms: C_3  and  O_24
REMARK    3  A    between atoms: C_12  and  C_16
REMARK    4  A    between atoms: C_16  and  C_18
REMARK    5  A    between atoms: O_24  and  C_27
REMARK                            x       y       z     vdW  Elec       q    Type
REMARK                         _______ _______ _______ _____ _____    ______ ____
ROOT
ATOM      1  F   UNL     1      33.807 -23.655 -16.111  0.00  0.00    -0.201 F 
ATOM      2  C   UNL     1      35.545 -21.746 -18.672  0.00  0.00    +0.054 C 
ATOM      3  C   UNL     1      36.060 -22.916 -16.193  0.00  0.00    +0.173 C 
ATOM      4  C   UNL     1      34.530 -22.421 -17.995  0.00  0.00    +0.047 C 
ATOM      5  C   UNL     1      36.818 -21.656 -18.108  0.00  0.00    +0.018 C 
ATOM      6  C   UNL     1      34.787 -23.006 -16.755  0.00  0.00    +0.176 C 
ATOM      7  C   UNL     1      37.075 -22.241 -16.868  0.00  0.00    +0.041 C 
ENDROOT
BRANCH   2  10
ATOM      8  O   UNL     1      36.986 -18.311 -22.637  0.00  0.00    -0.274 OA
ATOM      9  O   UNL     1      37.116 -19.710 -20.223  0.00  0.00    -0.252 OA
ATOM     10  N   UNL     1      35.285 -21.152 -19.929  0.00  0.00    -0.268 N 
ATOM     11  N   UNL     1      35.448 -19.869 -21.831  0.00  0.00    -0.239 N 
ATOM     12  C   UNL     1      35.946 -18.951 -22.761  0.00  0.00    +0.234 C 
ATOM     13  C   UNL     1      36.058 -20.203 -20.606  0.00  0.00    +0.310 C 
ATOM     14  H   UNL     1      34.459 -21.441 -20.381  0.00  0.00    +0.156 HD
ATOM     15  H   UNL     1      34.599 -20.318 -22.050  0.00  0.00    +0.159 HD
BRANCH  12  16
ATOM     16  C   UNL     1      35.030 -18.838 -23.966  0.00  0.00    +0.112 C 
BRANCH  16  18
ATOM     17  F   UNL     1      33.450 -13.546 -25.078  0.00  0.00    -0.204 F 
ATOM     18  C   UNL     1      34.607 -17.424 -24.263  0.00  0.00    -0.013 C 
ATOM     19  C   UNL     1      34.136 -17.089 -25.531  0.00  0.00    -0.001 C 
ATOM     20  C   UNL     1      34.688 -16.448 -23.269  0.00  0.00    -0.001 C 
ATOM     21  C   UNL     1      33.745 -15.779 -25.807  0.00  0.00    +0.029 C 
ATOM     22  C   UNL     1      34.298 -15.138 -23.544  0.00  0.00    +0.029 C 
ATOM     23  C   UNL     1      33.825 -14.803 -24.813  0.00  0.00    +0.140 C 
ENDBRANCH  16  18
ENDBRANCH  12  16
ENDBRANCH   2  10
BRANCH   3  24
ATOM     24  O   UNL     1      36.311 -23.485 -14.982  0.00  0.00    -0.451 OA
BRANCH  24  27
ATOM     25  N   UNL     1      38.257 -27.184 -14.939  0.00  0.00    -0.229 NA
ATOM     26  N   UNL     1      40.247 -26.111 -14.186  0.00  0.00    -0.343 N 
ATOM     27  C   UNL     1      36.956 -24.711 -14.968  0.00  0.00    +0.150 C 
ATOM     28  C   UNL     1      38.289 -24.794 -14.580  0.00  0.00    +0.071 C 
ATOM     29  C   UNL     1      36.274 -25.863 -15.341  0.00  0.00    +0.058 C 
ATOM     30  C   UNL     1      38.888 -26.043 -14.583  0.00  0.00    +0.128 C 
ATOM     31  C   UNL     1      36.963 -27.064 -15.310  0.00  0.00    +0.103 C 
ATOM     32  H   UNL     1      40.713 -26.978 -14.173  0.00  0.00    +0.144 HD
ATOM     33  H   UNL     1      40.725 -25.291 -13.923  0.00  0.00    +0.144 HD
ENDBRANCH  24  27
ENDBRANCH   3  24
TORSDOF 5
ENDMDL
MODEL 7
REMARK VINA RESULT:     -13.2      2.834     10.657
REMARK  Name = 17748441
REMARK  5 active torsions:
REMARK  status: ('A' for Active; 'I' for Inactive)
REMARK    1  A    between atoms: C_2  and  N_10
REMARK    2  A    between atoms: C_3  and  O_24
REMARK    3  A    between atoms: C_12  and  C_16
REMARK    4  A    between atoms: C_16  and  C_18
REMARK    5  A    between atoms: O_24  and  C_27
REMARK                            x       y       z     vdW  Elec       q    Type
REMARK                         _______ _______ _______ _____ _____    ______ ____
ROOT
ATOM      1  F   UNL     1      35.179 -17.967 -24.867  0.00  0.00    -0.201 F 
ATOM      2  C   UNL     1      34.367 -15.086 -22.800  0.00  0.00    +0.054 C 
ATOM      3  C   UNL     1      35.354 -17.680 -22.518  0.00  0.00    +0.173 C 
ATOM      4  C   UNL     1      34.529 -15.897 -23.924  0.00  0.00    +0.047 C 
ATOM      5  C   UNL     1      34.698 -15.574 -21.536  0.00  0.00    +0.018 C 
ATOM      6  C   UNL     1      35.023 -17.194 -23.783  0.00  0.00    +0.176 C 
ATOM      7  C   UNL     1      35.191 -16.871 -21.395  0.00  0.00    +0.041 C 
ENDROOT
BRANCH   2  10
ATOM      8  O   UNL     1      30.781 -11.245 -21.394  0.00  0.00    -0.274 OA
ATOM      9  O   UNL     1      32.074 -13.720 -21.423  0.00  0.00    -0.252 OA
ATOM     10  N   UNL     1      33.865 -13.771 -22.942  0.00  0.00    -0.268 N 
ATOM     11  N   UNL     1      32.614 -11.857 -22.700  0.00  0.00    -0.239 N 
ATOM     12  C   UNL     1      31.630 -10.977 -22.240  0.00  0.00    +0.234 C 
ATOM     13  C   UNL     1      32.788 -13.187 -22.269  0.00  0.00    +0.310 C 
ATOM     14  H   UNL     1      34.332 -13.199 -23.594  0.00  0.00    +0.156 HD
ATOM     15  H   UNL     1      33.237 -11.519 -23.384  0.00  0.00    +0.159 HD
BRANCH  12  16
ATOM     16  C   UNL     1      31.737  -9.626 -22.922  0.00  0.00    +0.112 C 
BRANCH  16  18
ATOM     17  F   UNL     1      32.552  -5.368 -19.323  0.00  0.00    -0.204 F 
ATOM     18  C   UNL     1      31.955  -8.488 -21.961  0.00  0.00    -0.013 C 
ATOM     19  C   UNL     1      32.666  -8.700 -20.780  0.00  0.00    -0.001 C 
ATOM     20  C   UNL     1      31.446  -7.222 -22.250  0.00  0.00    -0.001 C 
ATOM     21  C   UNL     1      32.868  -7.646 -19.889  0.00  0.00    +0.029 C 
ATOM     22  C   UNL     1      31.647  -6.169 -21.359  0.00  0.00    +0.029 C 
ATOM     23  C   UNL     1      32.359  -6.380 -20.179  0.00  0.00    +0.140 C 
ENDBRANCH  16  18
ENDBRANCH  12  16
ENDBRANCH   2  10
BRANCH   3  24
ATOM     24  O   UNL     1      35.834 -18.947 -22.381  0.00  0.00    -0.451 OA
BRANCH  24  27
ATOM     25  N   UNL     1      34.018 -21.411 -19.535  0.00  0.00    -0.229 NA
ATOM     26  N   UNL     1      36.168 -21.981 -18.678  0.00  0.00    -0.343 N 
ATOM     27  C   UNL     1      35.233 -19.764 -21.438  0.00  0.00    +0.150 C 
ATOM     28  C   UNL     1      36.011 -20.467 -20.525  0.00  0.00    +0.071 C 
ATOM     29  C   UNL     1      33.848 -19.883 -21.400  0.00  0.00    +0.058 C 
ATOM     30  C   UNL     1      35.361 -21.270 -19.602  0.00  0.00    +0.128 C 
ATOM     31  C   UNL     1      33.295 -20.712 -20.437  0.00  0.00    +0.103 C 
ATOM     32  H   UNL     1      35.748 -22.563 -18.005  0.00  0.00    +0.144 HD
ATOM     33  H   UNL     1      37.148 -21.891 -18.711  0.00  0.00    +0.144 HD
ENDBRANCH  24  27
ENDBRANCH   3  24
TORSDOF 5
ENDMDL
MODEL 8
REMARK VINA RESULT:     -13.0      1.009      1.951
REMARK  Name = 17748441
REMARK  5 active torsions:
REMARK  status: ('A' for Active; 'I' for Inactive)
REMARK    1  A    between atoms: C_2  and  N_10
REMARK    2  A    between atoms: C_3  and  O_24
REMARK    3  A    between atoms: C_12  and  C_16
REMARK    4  A    between atoms: C_16  and  C_18
REMARK    5  A    between atoms: O_24  and  C_27
REMARK                            x       y       z     vdW  Elec       q    Type
REMARK                         _______ _______ _______ _____ _____    ______ ____
ROOT
ATOM      1  F   UNL     1      31.134 -12.280 -20.816  0.00  0.00    -0.201 F 
ATOM      2  C   UNL     1      33.926 -14.214 -22.117  0.00  0.00    +0.054 C 
ATOM      3  C   UNL     1      32.529 -11.869 -22.691  0.00  0.00    +0.173 C 
ATOM      4  C   UNL     1      32.857 -13.823 -21.310  0.00  0.00    +0.047 C 
ATOM      5  C   UNL     1      34.295 -13.432 -23.212  0.00  0.00    +0.018 C 
ATOM      6  C   UNL     1      32.159 -12.650 -21.597  0.00  0.00    +0.176 C 
ATOM      7  C   UNL     1      33.596 -12.260 -23.499  0.00  0.00    +0.041 C 
ENDROOT
BRANCH   2  10
ATOM      8  O   UNL     1      35.613 -19.165 -23.614  0.00  0.00    -0.274 OA
ATOM      9  O   UNL     1      34.344 -16.682 -23.776  0.00  0.00    -0.252 OA
ATOM     10  N   UNL     1      34.634 -15.404 -21.827  0.00  0.00    -0.268 N 
ATOM     11  N   UNL     1      35.572 -17.498 -21.982  0.00  0.00    -0.239 N 
ATOM     12  C   UNL     1      35.928 -18.745 -22.503  0.00  0.00    +0.234 C 
ATOM     13  C   UNL     1      34.795 -16.527 -22.645  0.00  0.00    +0.310 C 
ATOM     14  H   UNL     1      35.065 -15.445 -20.942  0.00  0.00    +0.156 HD
ATOM     15  H   UNL     1      35.889 -17.281 -21.075  0.00  0.00    +0.159 HD
BRANCH  12  16
ATOM     16  C   UNL     1      36.767 -19.535 -21.516  0.00  0.00    +0.112 C 
BRANCH  16  18
ATOM     17  F   UNL     1      33.710 -22.882 -18.169  0.00  0.00    -0.204 F 
ATOM     18  C   UNL     1      35.950 -20.430 -20.622  0.00  0.00    -0.013 C 
ATOM     19  C   UNL     1      34.575 -20.543 -20.818  0.00  0.00    -0.001 C 
ATOM     20  C   UNL     1      36.569 -21.145 -19.596  0.00  0.00    -0.001 C 
ATOM     21  C   UNL     1      33.817 -21.372 -19.990  0.00  0.00    +0.029 C 
ATOM     22  C   UNL     1      35.813 -21.972 -18.767  0.00  0.00    +0.029 C 
ATOM     23  C   UNL     1      34.437 -22.087 -18.964  0.00  0.00    +0.140 C 
ENDBRANCH  16  18
ENDBRANCH  12  16
ENDBRANCH   2  10
BRANCH   3  24
ATOM     24  O   UNL     1      31.846 -10.725 -22.973  0.00  0.00    -0.451 OA
BRANCH  24  27
ATOM     25  N   UNL     1      33.531  -7.103 -21.744  0.00  0.00    -0.229 NA
ATOM     26  N   UNL     1      34.478  -6.825 -23.913  0.00  0.00    -0.343 N 
ATOM     27  C   UNL     1      32.405  -9.525 -22.566  0.00  0.00    +0.150 C 
ATOM     28  C   UNL     1      33.167  -8.774 -23.453  0.00  0.00    +0.071 C 
ATOM     29  C   UNL     1      32.205  -9.067 -21.269  0.00  0.00    +0.058 C 
ATOM     30  C   UNL     1      33.704  -7.580 -22.997  0.00  0.00    +0.128 C 
ATOM     31  C   UNL     1      32.785  -7.861 -20.910  0.00  0.00    +0.103 C 
ATOM     32  H   UNL     1      34.878  -5.971 -23.632  0.00  0.00    +0.144 HD
ATOM     33  H   UNL     1      34.615  -7.156 -24.831  0.00  0.00    +0.144 HD
ENDBRANCH  24  27
ENDBRANCH   3  24
TORSDOF 5
ENDMDL
MODEL 9
REMARK VINA RESULT:     -12.8      1.408      1.925
REMARK  Name = 17748441
REMARK  5 active torsions:
REMARK  status: ('A' for Active; 'I' for Inactive)
REMARK    1  A    between atoms: C_2  and  N_10
REMARK    2  A    between atoms: C_3  and  O_24
REMARK    3  A    between atoms: C_12  and  C_16
REMARK    4  A    between atoms: C_16  and  C_18
REMARK    5  A    between atoms: O_24  and  C_27
REMARK                            x       y       z     vdW  Elec       q    Type
REMARK                         _______ _______ _______ _____ _____    ______ ____
ROOT
ATOM      1  F   UNL     1      30.732 -11.509 -20.810  0.00  0.00    -0.201 F 
ATOM      2  C   UNL     1      33.470 -13.440 -22.227  0.00  0.00    +0.054 C 
ATOM      3  C   UNL     1      32.038 -11.103 -22.749  0.00  0.00    +0.173 C 
ATOM      4  C   UNL     1      32.437 -13.048 -21.374  0.00  0.00    +0.047 C 
ATOM      5  C   UNL     1      33.785 -12.662 -23.342  0.00  0.00    +0.018 C 
ATOM      6  C   UNL     1      31.722 -11.880 -21.635  0.00  0.00    +0.176 C 
ATOM      7  C   UNL     1      33.069 -11.494 -23.603  0.00  0.00    +0.041 C 
ENDROOT
BRANCH   2  10
ATOM      8  O   UNL     1      35.308 -18.290 -23.867  0.00  0.00    -0.274 OA
ATOM      9  O   UNL     1      33.990 -15.829 -23.970  0.00  0.00    -0.252 OA
ATOM     10  N   UNL     1      34.195 -14.625 -21.963  0.00  0.00    -0.268 N 
ATOM     11  N   UNL     1      35.183 -16.692 -22.173  0.00  0.00    -0.239 N 
ATOM     12  C   UNL     1      35.582 -17.909 -22.732  0.00  0.00    +0.234 C 
ATOM     13  C   UNL     1      34.405 -15.711 -22.819  0.00  0.00    +0.310 C 
ATOM     14  H   UNL     1      34.601 -14.693 -21.068  0.00  0.00    +0.156 HD
ATOM     15  H   UNL     1      35.469 -16.504 -21.249  0.00  0.00    +0.159 HD
BRANCH  12  16
ATOM     16  C   UNL     1      36.408 -18.720 -21.752  0.00  0.00    +0.112 C 
BRANCH  16  18
ATOM     17  F   UNL     1      33.401 -22.574 -18.951  0.00  0.00    -0.204 F 
ATOM     18  C   UNL     1      35.604 -19.750 -21.003  0.00  0.00    -0.013 C 
ATOM     19  C   UNL     1      36.253 -20.726 -20.249  0.00  0.00    -0.001 C 
ATOM     20  C   UNL     1      34.211 -19.727 -21.065  0.00  0.00    -0.001 C 
ATOM     21  C   UNL     1      35.509 -21.681 -19.555  0.00  0.00    +0.029 C 
ATOM     22  C   UNL     1      33.467 -20.682 -20.372  0.00  0.00    +0.029 C 
ATOM     23  C   UNL     1      34.115 -21.658 -19.616  0.00  0.00    +0.140 C 
ENDBRANCH  16  18
ENDBRANCH  12  16
ENDBRANCH   2  10
BRANCH   3  24
ATOM     24  O   UNL     1      31.338  -9.964 -23.005  0.00  0.00    -0.451 OA
BRANCH  24  27
ATOM     25  N   UNL     1      33.503  -6.418 -23.464  0.00  0.00    -0.229 NA
ATOM     26  N   UNL     1      31.567  -5.371 -24.378  0.00  0.00    -0.343 N 
ATOM     27  C   UNL     1      32.056  -8.789 -23.158  0.00  0.00    +0.150 C 
ATOM     28  C   UNL     1      31.444  -7.662 -23.696  0.00  0.00    +0.071 C 
ATOM     29  C   UNL     1      33.390  -8.731 -22.773  0.00  0.00    +0.058 C 
ATOM     30  C   UNL     1      32.205  -6.511 -23.827  0.00  0.00    +0.128 C 
ATOM     31  C   UNL     1      34.064  -7.533 -22.945  0.00  0.00    +0.103 C 
ATOM     32  H   UNL     1      32.069  -4.532 -24.489  0.00  0.00    +0.144 HD
ATOM     33  H   UNL     1      30.621  -5.419 -24.648  0.00  0.00    +0.144 HD
ENDBRANCH  24  27
ENDBRANCH   3  24
TORSDOF 5
ENDMDL
