MODEL 1
REMARK VINA RESULT:     -13.3      0.000      0.000
REMARK  Name = 49866474
REMARK  7 active torsions:
REMARK  status: ('A' for Active; 'I' for Inactive)
REMARK    1  A    between atoms: O_1  and  C_3
REMARK    2  A    between atoms: O_1  and  C_18
REMARK    3  A    between atoms: C_4  and  C_10
REMARK    4  A    between atoms: C_18  and  C_19
REMARK    5  A    between atoms: C_19  and  N_20
REMARK    6  A    between atoms: C_19  and  C_24
REMARK    7  A    between atoms: C_24  and  C_26
REMARK                            x       y       z     vdW  Elec       q    Type
REMARK                         _______ _______ _______ _____ _____    ______ ____
ROOT
ATOM      1  O   UNL     1      35.659 -16.880 -23.688  0.00  0.00    -0.476 OA
ENDROOT
BRANCH   1   3
ATOM      2  N   UNL     1      33.442 -15.167 -26.041  0.00  0.00    -0.239 NA
ATOM      3  C   UNL     1      34.778 -15.956 -24.186  0.00  0.00    +0.158 C 
ATOM      4  C   UNL     1      33.428 -13.981 -23.933  0.00  0.00    +0.022 C 
ATOM      5  C   UNL     1      34.324 -14.903 -23.401  0.00  0.00    +0.040 C 
ATOM      6  C   UNL     1      34.312 -16.043 -25.488  0.00  0.00    +0.136 C 
ATOM      7  C   UNL     1      33.022 -14.157 -25.246  0.00  0.00    +0.099 C 
BRANCH   4  10
ATOM      8  N   UNL     1      31.643  -9.566 -21.106  0.00  0.00    -0.236 N 
ATOM      9  N   UNL     1      31.965  -8.525 -21.892  0.00  0.00    -0.180 NA
ATOM     10  C   UNL     1      32.938 -12.877 -23.143  0.00  0.00    +0.002 C 
ATOM     11  C   UNL     1      32.600 -10.509 -22.838  0.00  0.00    +0.035 C 
ATOM     12  C   UNL     1      33.083 -11.569 -23.623  0.00  0.00    +0.003 C 
ATOM     13  C   UNL     1      31.997 -10.785 -21.616  0.00  0.00    +0.067 C 
ATOM     14  C   UNL     1      32.328 -13.126 -21.913  0.00  0.00    +0.001 C 
ATOM     15  C   UNL     1      31.843 -12.081 -21.119  0.00  0.00    +0.016 C 
ATOM     16  C   UNL     1      32.546  -9.103 -22.944  0.00  0.00    +0.119 C 
ATOM     17  H   UNL     1      31.191  -9.461 -20.238  0.00  0.00    +0.174 HD
ENDBRANCH   4  10
ENDBRANCH   1   3
BRANCH   1  18
ATOM     18  C   UNL     1      35.299 -18.248 -23.822  0.00  0.00    +0.184 C 
BRANCH  18  19
ATOM     19  C   UNL     1      35.817 -19.059 -22.628  0.00  0.00    -0.017 C 
BRANCH  19  20
ATOM     20  N   UNL     1      37.182 -18.614 -22.329  0.00  0.00    +0.384 N 
ATOM     21  H   UNL     1      37.528 -19.106 -21.505  0.00  0.00    -0.089 HD
ATOM     22  H   UNL     1      37.181 -17.610 -22.150  0.00  0.00    -0.089 HD
ATOM     23  H   UNL     1      37.787 -18.817 -23.125  0.00  0.00    -0.089 HD
ENDBRANCH  19  20
BRANCH  19  24
ATOM     24  C   UNL     1      34.945 -18.899 -21.359  0.00  0.00    +0.006 C 
BRANCH  24  26
ATOM     25  N   UNL     1      32.816 -21.619 -19.882  0.00  0.00    -0.234 NA
ATOM     26  C   UNL     1      34.499 -20.169 -20.756  0.00  0.00    -0.024 C 
ATOM     27  C   UNL     1      35.109 -21.116 -20.044  0.00  0.00    +0.065 C 
ATOM     28  C   UNL     1      34.151 -22.186 -19.602  0.00  0.00    +0.122 C 
ATOM     29  C   UNL     1      33.093 -20.558 -20.584  0.00  0.00    +0.072 C 
ATOM     30  C   UNL     1      36.456 -21.159 -19.534  0.00  0.00    -0.020 C 
ATOM     31  C   UNL     1      34.377 -22.576 -18.169  0.00  0.00    -0.004 C 
ATOM     32  C   UNL     1      36.681 -21.798 -18.370  0.00  0.00    -0.004 C 
ATOM     33  C   UNL     1      35.591 -22.402 -17.614  0.00  0.00    -0.003 C 
ENDBRANCH  24  26
ENDBRANCH  19  24
ENDBRANCH  18  19
ENDBRANCH   1  18
TORSDOF 7
ENDMDL
MODEL 2
REMARK VINA RESULT:     -13.1      1.683      9.670
REMARK  Name = 49866474
REMARK  7 active torsions:
REMARK  status: ('A' for Active; 'I' for Inactive)
REMARK    1  A    between atoms: O_1  and  C_3
REMARK    2  A    between atoms: O_1  and  C_18
REMARK    3  A    between atoms: C_4  and  C_10
REMARK    4  A    between atoms: C_18  and  C_19
REMARK    5  A    between atoms: C_19  and  N_20
REMARK    6  A    between atoms: C_19  and  C_24
REMARK    7  A    between atoms: C_24  and  C_26
REMARK                            x       y       z     vdW  Elec       q    Type
REMARK                         _______ _______ _______ _____ _____    ______ ____
ROOT
ATOM      1  O   UNL     1      35.334 -15.313 -23.534  0.00  0.00    -0.476 OA
ENDROOT
BRANCH   1   3
ATOM      2  N   UNL     1      34.767 -18.558 -25.127  0.00  0.00    -0.239 NA
ATOM      3  C   UNL     1      35.120 -16.659 -23.670  0.00  0.00    +0.158 C 
ATOM      4  C   UNL     1      34.820 -18.852 -22.727  0.00  0.00    +0.022 C 
ATOM      5  C   UNL     1      35.037 -17.489 -22.557  0.00  0.00    +0.040 C 
ATOM      6  C   UNL     1      34.979 -17.238 -24.922  0.00  0.00    +0.136 C 
ATOM      7  C   UNL     1      34.693 -19.332 -24.020  0.00  0.00    +0.099 C 
BRANCH   4  10
ATOM      8  N   UNL     1      34.762 -22.247 -18.351  0.00  0.00    -0.236 N 
ATOM      9  N   UNL     1      36.060 -22.385 -18.030  0.00  0.00    -0.180 NA
ATOM     10  C   UNL     1      34.730 -19.739 -21.591  0.00  0.00    +0.002 C 
ATOM     11  C   UNL     1      35.792 -21.007 -19.837  0.00  0.00    +0.035 C 
ATOM     12  C   UNL     1      35.902 -20.143 -20.939  0.00  0.00    +0.003 C 
ATOM     13  C   UNL     1      34.534 -21.433 -19.427  0.00  0.00    +0.067 C 
ATOM     14  C   UNL     1      33.479 -20.181 -21.158  0.00  0.00    +0.001 C 
ATOM     15  C   UNL     1      33.354 -21.041 -20.063  0.00  0.00    +0.016 C 
ATOM     16  C   UNL     1      36.683 -21.629 -18.936  0.00  0.00    +0.119 C 
ATOM     17  H   UNL     1      34.038 -22.693 -17.855  0.00  0.00    +0.174 HD
ENDBRANCH   4  10
ENDBRANCH   1   3
BRANCH   1  18
ATOM     18  C   UNL     1      34.472 -14.612 -22.648  0.00  0.00    +0.184 C 
BRANCH  18  19
ATOM     19  C   UNL     1      33.720 -13.505 -23.395  0.00  0.00    -0.017 C 
BRANCH  19  20
ATOM     20  N   UNL     1      33.310 -14.029 -24.701  0.00  0.00    +0.384 N 
ATOM     21  H   UNL     1      33.598 -13.381 -25.434  0.00  0.00    -0.089 HD
ATOM     22  H   UNL     1      32.296 -14.137 -24.721  0.00  0.00    -0.089 HD
ATOM     23  H   UNL     1      33.751 -14.936 -24.857  0.00  0.00    -0.089 HD
ENDBRANCH  19  20
BRANCH  19  24
ATOM     24  C   UNL     1      32.468 -13.001 -22.637  0.00  0.00    +0.006 C 
BRANCH  24  26
ATOM     25  N   UNL     1      33.003  -9.322 -23.181  0.00  0.00    -0.234 NA
ATOM     26  C   UNL     1      32.333 -11.533 -22.579  0.00  0.00    -0.024 C 
ATOM     27  C   UNL     1      31.789 -10.691 -21.700  0.00  0.00    +0.065 C 
ATOM     28  C   UNL     1      32.001  -9.258 -22.098  0.00  0.00    +0.122 C 
ATOM     29  C   UNL     1      33.069 -10.597 -23.439  0.00  0.00    +0.072 C 
ATOM     30  C   UNL     1      31.206 -10.958 -20.410  0.00  0.00    -0.020 C 
ATOM     31  C   UNL     1      32.402  -8.409 -20.924  0.00  0.00    -0.004 C 
ATOM     32  C   UNL     1      31.319 -10.023 -19.449  0.00  0.00    -0.004 C 
ATOM     33  C   UNL     1      32.048  -8.783 -19.681  0.00  0.00    -0.003 C 
ENDBRANCH  24  26
ENDBRANCH  19  24
ENDBRANCH  18  19
ENDBRANCH   1  18
TORSDOF 7
ENDMDL
MODEL 3
REMARK VINA RESULT:     -13.1      1.806     10.227
REMARK  Name = 49866474
REMARK  7 active torsions:
REMARK  status: ('A' for Active; 'I' for Inactive)
REMARK    1  A    between atoms: O_1  and  C_3
REMARK    2  A    between atoms: O_1  and  C_18
REMARK    3  A    between atoms: C_4  and  C_10
REMARK    4  A    between atoms: C_18  and  C_19
REMARK    5  A    between atoms: C_19  and  N_20
REMARK    6  A    between atoms: C_19  and  C_24
REMARK    7  A    between atoms: C_24  and  C_26
REMARK                            x       y       z     vdW  Elec       q    Type
REMARK                         _______ _______ _______ _____ _____    ______ ____
ROOT
ATOM      1  O   UNL     1      34.579 -14.225 -21.916  0.00  0.00    -0.476 OA
ENDROOT
BRANCH   1   3
ATOM      2  N   UNL     1      35.003 -16.873 -24.405  0.00  0.00    -0.239 NA
ATOM      3  C   UNL     1      34.771 -15.474 -22.446  0.00  0.00    +0.158 C 
ATOM      4  C   UNL     1      35.123 -17.841 -22.192  0.00  0.00    +0.022 C 
ATOM      5  C   UNL     1      34.928 -16.586 -21.625  0.00  0.00    +0.040 C 
ATOM      6  C   UNL     1      34.816 -15.670 -23.817  0.00  0.00    +0.136 C 
ATOM      7  C   UNL     1      35.152 -17.930 -23.574  0.00  0.00    +0.099 C 
BRANCH   4  10
ATOM      8  N   UNL     1      35.475 -22.373 -19.027  0.00  0.00    -0.236 N 
ATOM      9  N   UNL     1      34.200 -22.779 -18.898  0.00  0.00    -0.180 NA
ATOM     10  C   UNL     1      35.289 -19.013 -21.366  0.00  0.00    +0.002 C 
ATOM     11  C   UNL     1      34.346 -20.891 -20.183  0.00  0.00    +0.035 C 
ATOM     12  C   UNL     1      34.162 -19.755 -20.988  0.00  0.00    +0.003 C 
ATOM     13  C   UNL     1      35.630 -21.245 -19.786  0.00  0.00    +0.067 C 
ATOM     14  C   UNL     1      36.567 -19.391 -20.953  0.00  0.00    +0.001 C 
ATOM     15  C   UNL     1      36.766 -20.519 -20.151  0.00  0.00    +0.016 C 
ATOM     16  C   UNL     1      33.517 -21.875 -19.603  0.00  0.00    +0.119 C 
ATOM     17  H   UNL     1      36.231 -22.846 -18.612  0.00  0.00    +0.174 HD
ENDBRANCH   4  10
ENDBRANCH   1   3
BRANCH   1  18
ATOM     18  C   UNL     1      33.299 -13.954 -21.360  0.00  0.00    +0.184 C 
BRANCH  18  19
ATOM     19  C   UNL     1      32.644 -12.768 -22.075  0.00  0.00    -0.017 C 
BRANCH  19  20
ATOM     20  N   UNL     1      31.942 -13.276 -23.258  0.00  0.00    +0.384 N 
ATOM     21  H   UNL     1      30.957 -13.421 -23.033  0.00  0.00    -0.089 HD
ATOM     22  H   UNL     1      32.359 -14.159 -23.548  0.00  0.00    -0.089 HD
ATOM     23  H   UNL     1      32.020 -12.598 -24.017  0.00  0.00    -0.089 HD
ENDBRANCH  19  20
BRANCH  19  24
ATOM     24  C   UNL     1      31.639 -11.999 -21.183  0.00  0.00    +0.006 C 
BRANCH  24  26
ATOM     25  N   UNL     1      32.197  -8.707 -19.461  0.00  0.00    -0.234 NA
ATOM     26  C   UNL     1      32.010 -10.598 -20.905  0.00  0.00    -0.024 C 
ATOM     27  C   UNL     1      32.177  -9.520 -21.670  0.00  0.00    +0.065 C 
ATOM     28  C   UNL     1      32.488  -8.299 -20.850  0.00  0.00    +0.122 C 
ATOM     29  C   UNL     1      32.023  -9.992 -19.567  0.00  0.00    +0.072 C 
ATOM     30  C   UNL     1      31.947  -9.348 -23.082  0.00  0.00    -0.020 C 
ATOM     31  C   UNL     1      31.716  -7.100 -21.325  0.00  0.00    -0.004 C 
ATOM     32  C   UNL     1      31.542  -8.143 -23.524  0.00  0.00    -0.004 C 
ATOM     33  C   UNL     1      31.297  -7.041 -22.603  0.00  0.00    -0.003 C 
ENDBRANCH  24  26
ENDBRANCH  19  24
ENDBRANCH  18  19
ENDBRANCH   1  18
TORSDOF 7
ENDMDL
MODEL 4
REMARK VINA RESULT:     -13.0      4.398      7.856
REMARK  Name = 49866474
REMARK  7 active torsions:
REMARK  status: ('A' for Active; 'I' for Inactive)
REMARK    1  A    between atoms: O_1  and  C_3
REMARK    2  A    between atoms: O_1  and  C_18
REMARK    3  A    between atoms: C_4  and  C_10
REMARK    4  A    between atoms: C_18  and  C_19
REMARK    5  A    between atoms: C_19  and  N_20
REMARK    6  A    between atoms: C_19  and  C_24
REMARK    7  A    between atoms: C_24  and  C_26
REMARK                            x       y       z     vdW  Elec       q    Type
REMARK                         _______ _______ _______ _____ _____    ______ ____
ROOT
ATOM      1  O   UNL     1      36.425 -22.368 -18.445  0.00  0.00    -0.476 OA
ENDROOT
BRANCH   1   3
ATOM      2  N   UNL     1      33.044 -21.735 -19.691  0.00  0.00    -0.239 NA
ATOM      3  C   UNL     1      35.403 -21.804 -19.161  0.00  0.00    +0.158 C 
ATOM      4  C   UNL     1      34.583 -20.210 -20.767  0.00  0.00    +0.022 C 
ATOM      5  C   UNL     1      35.641 -20.765 -20.054  0.00  0.00    +0.040 C 
ATOM      6  C   UNL     1      34.098 -22.248 -19.018  0.00  0.00    +0.136 C 
ATOM      7  C   UNL     1      33.315 -20.726 -20.551  0.00  0.00    +0.099 C 
BRANCH   4  10
ATOM      8  N   UNL     1      35.327 -16.247 -24.563  0.00  0.00    -0.236 N 
ATOM      9  N   UNL     1      34.968 -16.832 -25.718  0.00  0.00    -0.180 NA
ATOM     10  C   UNL     1      34.799 -19.131 -21.701  0.00  0.00    +0.002 C 
ATOM     11  C   UNL     1      34.752 -18.273 -23.954  0.00  0.00    +0.035 C 
ATOM     12  C   UNL     1      34.534 -19.335 -23.062  0.00  0.00    +0.003 C 
ATOM     13  C   UNL     1      35.221 -17.058 -23.466  0.00  0.00    +0.067 C 
ATOM     14  C   UNL     1      35.269 -17.901 -21.238  0.00  0.00    +0.001 C 
ATOM     15  C   UNL     1      35.491 -16.834 -22.115  0.00  0.00    +0.016 C 
ATOM     16  C   UNL     1      34.618 -18.064 -25.343  0.00  0.00    +0.119 C 
ATOM     17  H   UNL     1      35.639 -15.315 -24.510  0.00  0.00    +0.174 HD
ENDBRANCH   4  10
ENDBRANCH   1   3
BRANCH   1  18
ATOM     18  C   UNL     1      36.932 -21.618 -17.349  0.00  0.00    +0.184 C 
BRANCH  18  19
ATOM     19  C   UNL     1      36.936 -22.469 -16.073  0.00  0.00    -0.017 C 
BRANCH  19  20
ATOM     20  N   UNL     1      35.740 -23.318 -16.084  0.00  0.00    +0.384 N 
ATOM     21  H   UNL     1      35.063 -22.960 -15.411  0.00  0.00    -0.089 HD
ATOM     22  H   UNL     1      35.998 -24.272 -15.834  0.00  0.00    -0.089 HD
ATOM     23  H   UNL     1      35.327 -23.311 -17.017  0.00  0.00    -0.089 HD
ENDBRANCH  19  20
BRANCH  19  24
ATOM     24  C   UNL     1      38.191 -23.366 -15.944  0.00  0.00    +0.006 C 
BRANCH  24  26
ATOM     25  N   UNL     1      37.840 -26.559 -13.996  0.00  0.00    -0.234 NA
ATOM     26  C   UNL     1      38.135 -24.347 -14.844  0.00  0.00    -0.024 C 
ATOM     27  C   UNL     1      37.904 -24.252 -13.535  0.00  0.00    +0.065 C 
ATOM     28  C   UNL     1      37.886 -25.601 -12.873  0.00  0.00    +0.122 C 
ATOM     29  C   UNL     1      38.062 -25.802 -15.031  0.00  0.00    +0.072 C 
ATOM     30  C   UNL     1      37.527 -23.105 -12.748  0.00  0.00    -0.020 C 
ATOM     31  C   UNL     1      36.750 -25.726 -11.897  0.00  0.00    -0.004 C 
ATOM     32  C   UNL     1      36.739 -23.296 -11.674  0.00  0.00    -0.004 C 
ATOM     33  C   UNL     1      36.238 -24.619 -11.326  0.00  0.00    -0.003 C 
ENDBRANCH  24  26
ENDBRANCH  19  24
ENDBRANCH  18  19
ENDBRANCH   1  18
TORSDOF 7
ENDMDL
MODEL 5
REMARK VINA RESULT:     -13.0      1.636      9.771
REMARK  Name = 49866474
REMARK  7 active torsions:
REMARK  status: ('A' for Active; 'I' for Inactive)
REMARK    1  A    between atoms: O_1  and  C_3
REMARK    2  A    between atoms: O_1  and  C_18
REMARK    3  A    between atoms: C_4  and  C_10
REMARK    4  A    between atoms: C_18  and  C_19
REMARK    5  A    between atoms: C_19  and  N_20
REMARK    6  A    between atoms: C_19  and  C_24
REMARK    7  A    between atoms: C_24  and  C_26
REMARK                            x       y       z     vdW  Elec       q    Type
REMARK                         _______ _______ _______ _____ _____    ______ ____
ROOT
ATOM      1  O   UNL     1      35.291 -15.293 -23.371  0.00  0.00    -0.476 OA
ENDROOT
BRANCH   1   3
ATOM      2  N   UNL     1      34.763 -18.547 -24.958  0.00  0.00    -0.239 NA
ATOM      3  C   UNL     1      35.161 -16.649 -23.512  0.00  0.00    +0.158 C 
ATOM      4  C   UNL     1      35.148 -18.872 -22.593  0.00  0.00    +0.022 C 
ATOM      5  C   UNL     1      35.284 -17.499 -22.419  0.00  0.00    +0.040 C 
ATOM      6  C   UNL     1      34.902 -17.218 -24.749  0.00  0.00    +0.136 C 
ATOM      7  C   UNL     1      34.890 -19.341 -23.871  0.00  0.00    +0.099 C 
BRANCH   4  10
ATOM      8  N   UNL     1      35.336 -22.391 -18.320  0.00  0.00    -0.236 N 
ATOM      9  N   UNL     1      34.055 -22.755 -18.141  0.00  0.00    -0.180 NA
ATOM     10  C   UNL     1      35.272 -19.780 -21.477  0.00  0.00    +0.002 C 
ATOM     11  C   UNL     1      34.267 -21.278 -19.877  0.00  0.00    +0.035 C 
ATOM     12  C   UNL     1      34.125 -20.400 -20.963  0.00  0.00    +0.003 C 
ATOM     13  C   UNL     1      35.531 -21.507 -19.346  0.00  0.00    +0.067 C 
ATOM     14  C   UNL     1      36.529 -20.028 -20.925  0.00  0.00    +0.001 C 
ATOM     15  C   UNL     1      36.686 -20.899 -19.842  0.00  0.00    +0.016 C 
ATOM     16  C   UNL     1      33.408 -22.076 -19.091  0.00  0.00    +0.119 C 
ATOM     17  H   UNL     1      36.072 -22.732 -17.761  0.00  0.00    +0.174 HD
ENDBRANCH   4  10
ENDBRANCH   1   3
BRANCH   1  18
ATOM     18  C   UNL     1      34.358 -14.643 -22.518  0.00  0.00    +0.184 C 
BRANCH  18  19
ATOM     19  C   UNL     1      33.619 -13.535 -23.277  0.00  0.00    -0.017 C 
BRANCH  19  20
ATOM     20  N   UNL     1      33.186 -14.074 -24.570  0.00  0.00    +0.384 N 
ATOM     21  H   UNL     1      32.166 -14.091 -24.607  0.00  0.00    -0.089 HD
ATOM     22  H   UNL     1      33.546 -15.021 -24.682  0.00  0.00    -0.089 HD
ATOM     23  H   UNL     1      33.543 -13.483 -25.321  0.00  0.00    -0.089 HD
ENDBRANCH  19  20
BRANCH  19  24
ATOM     24  C   UNL     1      32.384 -12.995 -22.516  0.00  0.00    +0.006 C 
BRANCH  24  26
ATOM     25  N   UNL     1      32.918  -9.344 -23.226  0.00  0.00    -0.234 NA
ATOM     26  C   UNL     1      32.256 -11.525 -22.515  0.00  0.00    -0.024 C 
ATOM     27  C   UNL     1      31.738 -10.645 -21.659  0.00  0.00    +0.065 C 
ATOM     28  C   UNL     1      31.944  -9.230 -22.121  0.00  0.00    +0.122 C 
ATOM     29  C   UNL     1      32.973 -10.628 -23.432  0.00  0.00    +0.072 C 
ATOM     30  C   UNL     1      31.187 -10.856 -20.344  0.00  0.00    -0.020 C 
ATOM     31  C   UNL     1      32.379  -8.335 -20.994  0.00  0.00    -0.004 C 
ATOM     32  C   UNL     1      31.329  -9.882 -19.426  0.00  0.00    -0.004 C 
ATOM     33  C   UNL     1      32.056  -8.656 -19.727  0.00  0.00    -0.003 C 
ENDBRANCH  24  26
ENDBRANCH  19  24
ENDBRANCH  18  19
ENDBRANCH   1  18
TORSDOF 7
ENDMDL
MODEL 6
REMARK VINA RESULT:     -13.0      1.982     10.407
REMARK  Name = 49866474
REMARK  7 active torsions:
REMARK  status: ('A' for Active; 'I' for Inactive)
REMARK    1  A    between atoms: O_1  and  C_3
REMARK    2  A    between atoms: O_1  and  C_18
REMARK    3  A    between atoms: C_4  and  C_10
REMARK    4  A    between atoms: C_18  and  C_19
REMARK    5  A    between atoms: C_19  and  N_20
REMARK    6  A    between atoms: C_19  and  C_24
REMARK    7  A    between atoms: C_24  and  C_26
REMARK                            x       y       z     vdW  Elec       q    Type
REMARK                         _______ _______ _______ _____ _____    ______ ____
ROOT
ATOM      1  O   UNL     1      34.538 -14.240 -23.882  0.00  0.00    -0.476 OA
ENDROOT
BRANCH   1   3
ATOM      2  N   UNL     1      34.223 -17.517 -25.477  0.00  0.00    -0.239 NA
ATOM      3  C   UNL     1      34.584 -15.599 -24.050  0.00  0.00    +0.158 C 
ATOM      4  C   UNL     1      35.059 -17.810 -23.227  0.00  0.00    +0.022 C 
ATOM      5  C   UNL     1      35.021 -16.434 -23.027  0.00  0.00    +0.040 C 
ATOM      6  C   UNL     1      34.200 -16.186 -25.245  0.00  0.00    +0.136 C 
ATOM      7  C   UNL     1      34.653 -18.297 -24.459  0.00  0.00    +0.099 C 
BRANCH   4  10
ATOM      8  N   UNL     1      36.512 -21.344 -19.218  0.00  0.00    -0.236 N 
ATOM      9  N   UNL     1      35.392 -22.048 -18.984  0.00  0.00    -0.180 NA
ATOM     10  C   UNL     1      35.507 -18.702 -22.184  0.00  0.00    +0.002 C 
ATOM     11  C   UNL     1      35.066 -20.490 -20.627  0.00  0.00    +0.035 C 
ATOM     12  C   UNL     1      34.610 -19.632 -21.642  0.00  0.00    +0.003 C 
ATOM     13  C   UNL     1      36.383 -20.392 -20.193  0.00  0.00    +0.067 C 
ATOM     14  C   UNL     1      36.824 -18.626 -21.730  0.00  0.00    +0.001 C 
ATOM     15  C   UNL     1      37.292 -19.473 -20.720  0.00  0.00    +0.016 C 
ATOM     16  C   UNL     1      34.515 -21.526 -19.843  0.00  0.00    +0.119 C 
ATOM     17  H   UNL     1      37.353 -21.500 -18.731  0.00  0.00    +0.174 HD
ENDBRANCH   4  10
ENDBRANCH   1   3
BRANCH   1  18
ATOM     18  C   UNL     1      33.458 -13.554 -24.501  0.00  0.00    +0.184 C 
BRANCH  18  19
ATOM     19  C   UNL     1      32.977 -12.399 -23.614  0.00  0.00    -0.017 C 
BRANCH  19  20
ATOM     20  N   UNL     1      32.839 -12.901 -22.243  0.00  0.00    +0.384 N 
ATOM     21  H   UNL     1      33.341 -13.784 -22.152  0.00  0.00    -0.089 HD
ATOM     22  H   UNL     1      31.852 -13.047 -22.033  0.00  0.00    -0.089 HD
ATOM     23  H   UNL     1      33.228 -12.219 -21.591  0.00  0.00    -0.089 HD
ENDBRANCH  19  20
BRANCH  19  24
ATOM     24  C   UNL     1      33.943 -11.189 -23.614  0.00  0.00    +0.006 C 
BRANCH  24  26
ATOM     25  N   UNL     1      31.404  -8.496 -22.972  0.00  0.00    -0.234 NA
ATOM     26  C   UNL     1      33.310  -9.898 -23.287  0.00  0.00    -0.024 C 
ATOM     27  C   UNL     1      33.728  -8.632 -23.321  0.00  0.00    +0.065 C 
ATOM     28  C   UNL     1      32.631  -7.674 -22.950  0.00  0.00    +0.122 C 
ATOM     29  C   UNL     1      31.868  -9.707 -23.082  0.00  0.00    +0.072 C 
ATOM     30  C   UNL     1      34.971  -8.086 -23.801  0.00  0.00    -0.020 C 
ATOM     31  C   UNL     1      32.601  -6.482 -23.865  0.00  0.00    -0.004 C 
ATOM     32  C   UNL     1      34.963  -6.857 -24.350  0.00  0.00    -0.004 C 
ATOM     33  C   UNL     1      33.726  -6.103 -24.501  0.00  0.00    -0.003 C 
ENDBRANCH  24  26
ENDBRANCH  19  24
ENDBRANCH  18  19
ENDBRANCH   1  18
TORSDOF 7
ENDMDL
MODEL 7
REMARK VINA RESULT:     -12.8      3.544      6.500
REMARK  Name = 49866474
REMARK  7 active torsions:
REMARK  status: ('A' for Active; 'I' for Inactive)
REMARK    1  A    between atoms: O_1  and  C_3
REMARK    2  A    between atoms: O_1  and  C_18
REMARK    3  A    between atoms: C_4  and  C_10
REMARK    4  A    between atoms: C_18  and  C_19
REMARK    5  A    between atoms: C_19  and  N_20
REMARK    6  A    between atoms: C_19  and  C_24
REMARK    7  A    between atoms: C_24  and  C_26
REMARK                            x       y       z     vdW  Elec       q    Type
REMARK                         _______ _______ _______ _____ _____    ______ ____
ROOT
ATOM      1  O   UNL     1      31.584 -12.246 -21.213  0.00  0.00    -0.476 OA
ENDROOT
BRANCH   1   3
ATOM      2  N   UNL     1      32.330  -9.232 -19.279  0.00  0.00    -0.239 NA
ATOM      3  C   UNL     1      31.933 -10.951 -20.932  0.00  0.00    +0.158 C 
ATOM      4  C   UNL     1      32.592  -8.746 -21.633  0.00  0.00    +0.022 C 
ATOM      5  C   UNL     1      32.239 -10.054 -21.949  0.00  0.00    +0.040 C 
ATOM      6  C   UNL     1      31.992 -10.494 -19.625  0.00  0.00    +0.136 C 
ATOM      7  C   UNL     1      32.622  -8.389 -20.295  0.00  0.00    +0.099 C 
BRANCH   4  10
ATOM      8  N   UNL     1      33.565  -4.986 -25.581  0.00  0.00    -0.236 N 
ATOM      9  N   UNL     1      32.401  -4.323 -25.693  0.00  0.00    -0.180 NA
ATOM     10  C   UNL     1      32.916  -7.792 -22.667  0.00  0.00    +0.002 C 
ATOM     11  C   UNL     1      32.275  -5.962 -24.101  0.00  0.00    +0.035 C 
ATOM     12  C   UNL     1      31.940  -6.881 -23.093  0.00  0.00    +0.003 C 
ATOM     13  C   UNL     1      33.556  -5.983 -24.644  0.00  0.00    +0.067 C 
ATOM     14  C   UNL     1      34.193  -7.790 -23.229  0.00  0.00    +0.001 C 
ATOM     15  C   UNL     1      34.542  -6.882 -24.234  0.00  0.00    +0.016 C 
ATOM     16  C   UNL     1      31.620  -4.920 -24.791  0.00  0.00    +0.119 C 
ATOM     17  H   UNL     1      34.356  -4.773 -26.127  0.00  0.00    +0.174 HD
ENDBRANCH   4  10
ENDBRANCH   1   3
BRANCH   1  18
ATOM     18  C   UNL     1      32.609 -13.225 -21.105  0.00  0.00    +0.184 C 
BRANCH  18  19
ATOM     19  C   UNL     1      32.754 -13.996 -22.422  0.00  0.00    -0.017 C 
BRANCH  19  20
ATOM     20  N   UNL     1      31.894 -13.359 -23.424  0.00  0.00    +0.384 N 
ATOM     21  H   UNL     1      32.449 -12.718 -23.991  0.00  0.00    -0.089 HD
ATOM     22  H   UNL     1      31.151 -12.843 -22.955  0.00  0.00    -0.089 HD
ATOM     23  H   UNL     1      31.484 -14.075 -24.025  0.00  0.00    -0.089 HD
ENDBRANCH  19  20
BRANCH  19  24
ATOM     24  C   UNL     1      34.208 -14.028 -22.952  0.00  0.00    +0.006 C 
BRANCH  24  26
ATOM     25  N   UNL     1      34.141 -16.235 -25.991  0.00  0.00    -0.234 NA
ATOM     26  C   UNL     1      34.488 -15.110 -23.915  0.00  0.00    -0.024 C 
ATOM     27  C   UNL     1      34.997 -16.336 -23.801  0.00  0.00    +0.065 C 
ATOM     28  C   UNL     1      34.993 -17.065 -25.116  0.00  0.00    +0.122 C 
ATOM     29  C   UNL     1      33.975 -15.151 -25.291  0.00  0.00    +0.072 C 
ATOM     30  C   UNL     1      35.374 -17.070 -22.620  0.00  0.00    -0.020 C 
ATOM     31  C   UNL     1      34.532 -18.487 -24.961  0.00  0.00    -0.004 C 
ATOM     32  C   UNL     1      35.234 -18.409 -22.625  0.00  0.00    -0.004 C 
ATOM     33  C   UNL     1      34.677 -19.109 -23.775  0.00  0.00    -0.003 C 
ENDBRANCH  24  26
ENDBRANCH  19  24
ENDBRANCH  18  19
ENDBRANCH   1  18
TORSDOF 7
ENDMDL
MODEL 8
REMARK VINA RESULT:     -12.8      4.361      7.420
REMARK  Name = 49866474
REMARK  7 active torsions:
REMARK  status: ('A' for Active; 'I' for Inactive)
REMARK    1  A    between atoms: O_1  and  C_3
REMARK    2  A    between atoms: O_1  and  C_18
REMARK    3  A    between atoms: C_4  and  C_10
REMARK    4  A    between atoms: C_18  and  C_19
REMARK    5  A    between atoms: C_19  and  N_20
REMARK    6  A    between atoms: C_19  and  C_24
REMARK    7  A    between atoms: C_24  and  C_26
REMARK                            x       y       z     vdW  Elec       q    Type
REMARK                         _______ _______ _______ _____ _____    ______ ____
ROOT
ATOM      1  O   UNL     1      36.155 -22.447 -18.521  0.00  0.00    -0.476 OA
ENDROOT
BRANCH   1   3
ATOM      2  N   UNL     1      32.819 -21.666 -19.804  0.00  0.00    -0.239 NA
ATOM      3  C   UNL     1      35.165 -21.831 -19.240  0.00  0.00    +0.158 C 
ATOM      4  C   UNL     1      34.428 -20.177 -20.825  0.00  0.00    +0.022 C 
ATOM      5  C   UNL     1      35.454 -20.784 -20.108  0.00  0.00    +0.040 C 
ATOM      6  C   UNL     1      33.843 -22.231 -19.126  0.00  0.00    +0.136 C 
ATOM      7  C   UNL     1      33.140 -20.651 -20.638  0.00  0.00    +0.099 C 
BRANCH   4  10
ATOM      8  N   UNL     1      35.385 -16.171 -24.528  0.00  0.00    -0.236 N 
ATOM      9  N   UNL     1      35.072 -16.736 -25.706  0.00  0.00    -0.180 NA
ATOM     10  C   UNL     1      34.698 -19.088 -21.733  0.00  0.00    +0.002 C 
ATOM     11  C   UNL     1      34.762 -18.199 -23.974  0.00  0.00    +0.035 C 
ATOM     12  C   UNL     1      34.492 -19.270 -23.107  0.00  0.00    +0.003 C 
ATOM     13  C   UNL     1      35.221 -16.996 -23.448  0.00  0.00    +0.067 C 
ATOM     14  C   UNL     1      35.160 -17.870 -21.233  0.00  0.00    +0.001 C 
ATOM     15  C   UNL     1      35.433 -16.794 -22.083  0.00  0.00    +0.016 C 
ATOM     16  C   UNL     1      34.693 -17.969 -25.364  0.00  0.00    +0.119 C 
ATOM     17  H   UNL     1      35.705 -15.244 -24.448  0.00  0.00    +0.174 HD
ENDBRANCH   4  10
ENDBRANCH   1   3
BRANCH   1  18
ATOM     18  C   UNL     1      36.448 -21.907 -17.239  0.00  0.00    +0.184 C 
BRANCH  18  19
ATOM     19  C   UNL     1      36.257 -22.972 -16.153  0.00  0.00    -0.017 C 
BRANCH  19  20
ATOM     20  N   UNL     1      36.151 -22.292 -14.858  0.00  0.00    +0.384 N 
ATOM     21  H   UNL     1      35.812 -21.340 -15.000  0.00  0.00    -0.089 HD
ATOM     22  H   UNL     1      37.067 -22.264 -14.412  0.00  0.00    -0.089 HD
ATOM     23  H   UNL     1      35.497 -22.799 -14.261  0.00  0.00    -0.089 HD
ENDBRANCH  19  20
BRANCH  19  24
ATOM     24  C   UNL     1      34.996 -23.844 -16.370  0.00  0.00    +0.006 C 
BRANCH  24  26
ATOM     25  N   UNL     1      33.162 -24.420 -13.142  0.00  0.00    -0.234 NA
ATOM     26  C   UNL     1      34.005 -23.774 -15.280  0.00  0.00    -0.024 C 
ATOM     27  C   UNL     1      32.725 -23.406 -15.221  0.00  0.00    +0.065 C 
ATOM     28  C   UNL     1      32.151 -23.604 -13.846  0.00  0.00    +0.122 C 
ATOM     29  C   UNL     1      34.173 -24.399 -13.962  0.00  0.00    +0.072 C 
ATOM     30  C   UNL     1      31.827 -23.024 -16.281  0.00  0.00    -0.020 C 
ATOM     31  C   UNL     1      30.780 -24.216 -13.899  0.00  0.00    -0.004 C 
ATOM     32  C   UNL     1      30.521 -23.321 -16.154  0.00  0.00    -0.004 C 
ATOM     33  C   UNL     1      30.018 -24.049 -14.997  0.00  0.00    -0.003 C 
ENDBRANCH  24  26
ENDBRANCH  19  24
ENDBRANCH  18  19
ENDBRANCH   1  18
TORSDOF 7
ENDMDL
MODEL 9
REMARK VINA RESULT:     -12.6      4.168      7.508
REMARK  Name = 49866474
REMARK  7 active torsions:
REMARK  status: ('A' for Active; 'I' for Inactive)
REMARK    1  A    between atoms: O_1  and  C_3
REMARK    2  A    between atoms: O_1  and  C_18
REMARK    3  A    between atoms: C_4  and  C_10
REMARK    4  A    between atoms: C_18  and  C_19
REMARK    5  A    between atoms: C_19  and  N_20
REMARK    6  A    between atoms: C_19  and  C_24
REMARK    7  A    between atoms: C_24  and  C_26
REMARK                            x       y       z     vdW  Elec       q    Type
REMARK                         _______ _______ _______ _____ _____    ______ ____
ROOT
ATOM      1  O   UNL     1      33.150 -22.246 -18.908  0.00  0.00    -0.476 OA
ENDROOT
BRANCH   1   3
ATOM      2  N   UNL     1      36.646 -21.443 -19.633  0.00  0.00    -0.239 NA
ATOM      3  C   UNL     1      34.240 -21.617 -19.450  0.00  0.00    +0.158 C 
ATOM      4  C   UNL     1      35.214 -19.938 -20.871  0.00  0.00    +0.022 C 
ATOM      5  C   UNL     1      34.089 -20.556 -20.336  0.00  0.00    +0.040 C 
ATOM      6  C   UNL     1      35.529 -22.019 -19.133  0.00  0.00    +0.136 C 
ATOM      7  C   UNL     1      36.458 -20.415 -20.491  0.00  0.00    +0.099 C 
BRANCH   4  10
ATOM      8  N   UNL     1      34.722 -15.897 -24.626  0.00  0.00    -0.236 N 
ATOM      9  N   UNL     1      34.617 -16.551 -25.796  0.00  0.00    -0.180 NA
ATOM     10  C   UNL     1      35.089 -18.835 -21.794  0.00  0.00    +0.002 C 
ATOM     11  C   UNL     1      34.835 -18.008 -24.045  0.00  0.00    +0.035 C 
ATOM     12  C   UNL     1      34.954 -19.095 -23.164  0.00  0.00    +0.003 C 
ATOM     13  C   UNL     1      34.855 -16.714 -23.537  0.00  0.00    +0.067 C 
ATOM     14  C   UNL     1      35.106 -17.526 -21.311  0.00  0.00    +0.001 C 
ATOM     15  C   UNL     1      34.989 -16.433 -22.175  0.00  0.00    +0.016 C 
ATOM     16  C   UNL     1      34.686 -17.834 -25.438  0.00  0.00    +0.119 C 
ATOM     17  H   UNL     1      34.703 -14.915 -24.559  0.00  0.00    +0.174 HD
ENDBRANCH   4  10
ENDBRANCH   1   3
BRANCH   1  18
ATOM     18  C   UNL     1      33.401 -23.413 -18.135  0.00  0.00    +0.184 C 
BRANCH  18  19
ATOM     19  C   UNL     1      33.275 -23.102 -16.639  0.00  0.00    -0.017 C 
BRANCH  19  20
ATOM     20  N   UNL     1      31.849 -23.044 -16.301  0.00  0.00    +0.384 N 
ATOM     21  H   UNL     1      31.318 -23.600 -16.971  0.00  0.00    -0.089 HD
ATOM     22  H   UNL     1      31.531 -22.076 -16.333  0.00  0.00    -0.089 HD
ATOM     23  H   UNL     1      31.708 -23.418 -15.362  0.00  0.00    -0.089 HD
ENDBRANCH  19  20
BRANCH  19  24
ATOM     24  C   UNL     1      33.966 -24.155 -15.738  0.00  0.00    +0.006 C 
BRANCH  24  26
ATOM     25  N   UNL     1      37.522 -23.101 -15.144  0.00  0.00    -0.234 NA
ATOM     26  C   UNL     1      35.210 -23.692 -15.095  0.00  0.00    -0.024 C 
ATOM     27  C   UNL     1      35.657 -23.701 -13.839  0.00  0.00    +0.065 C 
ATOM     28  C   UNL     1      37.057 -23.164 -13.743  0.00  0.00    +0.122 C 
ATOM     29  C   UNL     1      36.433 -23.325 -15.821  0.00  0.00    +0.072 C 
ATOM     30  C   UNL     1      35.069 -24.279 -12.658  0.00  0.00    -0.020 C 
ATOM     31  C   UNL     1      37.913 -24.003 -12.837  0.00  0.00    -0.004 C 
ATOM     32  C   UNL     1      35.888 -24.756 -11.702  0.00  0.00    -0.004 C 
ATOM     33  C   UNL     1      37.336 -24.733 -11.863  0.00  0.00    -0.003 C 
ENDBRANCH  24  26
ENDBRANCH  19  24
ENDBRANCH  18  19
ENDBRANCH   1  18
TORSDOF 7
ENDMDL
