MODEL 1
REMARK VINA RESULT:     -13.1      0.000      0.000
REMARK  Name = 60149
REMARK  5 active torsions:
REMARK  status: ('A' for Active; 'I' for Inactive)
REMARK    1  A    between atoms: N_2  and  C_12
REMARK    2  A    between atoms: C_3  and  C_19
REMARK    3  A    between atoms: N_18  and  C_25
REMARK    4  A    between atoms: C_25  and  C_26
REMARK    5  A    between atoms: C_26  and  N_28
REMARK                            x       y       z     vdW  Elec       q    Type
REMARK                         _______ _______ _______ _____ _____    ______ ____
ROOT
ATOM      1 CL   UNL     1      29.152 -22.954 -16.429  0.00  0.00    -0.082 Cl
ATOM      2  N   UNL     1      34.937 -23.566 -15.885  0.00  0.00    -0.265 N 
ATOM      3  C   UNL     1      34.267 -22.712 -17.815  0.00  0.00    -0.006 C 
ATOM      4  C   UNL     1      33.115 -22.967 -17.026  0.00  0.00    +0.012 C 
ATOM      5  C   UNL     1      35.371 -23.088 -17.092  0.00  0.00    +0.065 C 
ATOM      6  C   UNL     1      33.563 -23.504 -15.817  0.00  0.00    +0.055 C 
ATOM      7  C   UNL     1      31.730 -22.794 -17.220  0.00  0.00    +0.012 C 
ATOM      8  C   UNL     1      32.691 -23.877 -14.788  0.00  0.00    +0.016 C 
ATOM      9  C   UNL     1      30.847 -23.164 -16.199  0.00  0.00    +0.058 C 
ATOM     10  C   UNL     1      31.322 -23.697 -15.002  0.00  0.00    +0.013 C 
ENDROOT
BRANCH   2  12
ATOM     11  F   UNL     1      38.276 -25.440 -11.921  0.00  0.00    -0.204 F 
ATOM     12  C   UNL     1      35.784 -24.042 -14.880  0.00  0.00    +0.056 C 
ATOM     13  C   UNL     1      36.260 -23.164 -13.918  0.00  0.00    +0.017 C 
ATOM     14  C   UNL     1      36.133 -25.384 -14.861  0.00  0.00    +0.017 C 
ATOM     15  C   UNL     1      37.107 -23.638 -12.915  0.00  0.00    +0.031 C 
ATOM     16  C   UNL     1      36.980 -25.858 -13.859  0.00  0.00    +0.031 C 
ATOM     17  C   UNL     1      37.465 -24.985 -12.885  0.00  0.00    +0.140 C 
ENDBRANCH   2  12
BRANCH   3  19
ATOM     18  N   UNL     1      34.463 -19.903 -21.113  0.00  0.00    +0.388 N 
ATOM     19  C   UNL     1      34.286 -22.128 -19.210  0.00  0.00    +0.019 C 
ATOM     20  C   UNL     1      33.114 -21.167 -19.467  0.00  0.00    -0.018 C 
ATOM     21  C   UNL     1      35.614 -21.432 -19.545  0.00  0.00    -0.018 C 
ATOM     22  C   UNL     1      33.179 -20.578 -20.879  0.00  0.00    -0.077 C 
ATOM     23  C   UNL     1      35.588 -20.833 -20.954  0.00  0.00    -0.077 C 
ATOM     24  H   UNL     1      34.562 -19.165 -20.416  0.00  0.00    -0.080 HD
BRANCH  18  25
ATOM     25  C   UNL     1      34.485 -19.297 -22.445  0.00  0.00    -0.055 C 
BRANCH  25  26
ATOM     26  C   UNL     1      35.611 -18.278 -22.543  0.00  0.00    +0.077 C 
BRANCH  26  28
ATOM     27  O   UNL     1      34.885 -17.665 -25.394  0.00  0.00    -0.252 OA
ATOM     28  N   UNL     1      35.152 -17.050 -23.132  0.00  0.00    -0.243 N 
ATOM     29  N   UNL     1      34.395 -15.515 -24.609  0.00  0.00    -0.266 N 
ATOM     30  C   UNL     1      34.886 -15.860 -22.341  0.00  0.00    +0.085 C 
ATOM     31  C   UNL     1      34.490 -14.803 -23.360  0.00  0.00    +0.082 C 
ATOM     32  C   UNL     1      34.821 -16.847 -24.485  0.00  0.00    +0.311 C 
ATOM     33  H   UNL     1      34.070 -15.115 -25.449  0.00  0.00    +0.157 HD
ENDBRANCH  26  28
ENDBRANCH  25  26
ENDBRANCH  18  25
ENDBRANCH   3  19
TORSDOF 5
ENDMDL
MODEL 2
REMARK VINA RESULT:     -12.4      6.325     10.214
REMARK  Name = 60149
REMARK  5 active torsions:
REMARK  status: ('A' for Active; 'I' for Inactive)
REMARK    1  A    between atoms: N_2  and  C_12
REMARK    2  A    between atoms: C_3  and  C_19
REMARK    3  A    between atoms: N_18  and  C_25
REMARK    4  A    between atoms: C_25  and  C_26
REMARK    5  A    between atoms: C_26  and  N_28
REMARK                            x       y       z     vdW  Elec       q    Type
REMARK                         _______ _______ _______ _____ _____    ______ ____
ROOT
ATOM      1 CL   UNL     1      33.356 -14.835 -27.315  0.00  0.00    -0.082 Cl
ATOM      2  N   UNL     1      34.803 -16.838 -22.021  0.00  0.00    -0.265 N 
ATOM      3  C   UNL     1      34.043 -14.758 -22.055  0.00  0.00    -0.006 C 
ATOM      4  C   UNL     1      34.040 -15.248 -23.388  0.00  0.00    +0.012 C 
ATOM      5  C   UNL     1      34.515 -15.754 -21.236  0.00  0.00    +0.065 C 
ATOM      6  C   UNL     1      34.522 -16.558 -23.339  0.00  0.00    +0.055 C 
ATOM      7  C   UNL     1      33.674 -14.705 -24.636  0.00  0.00    +0.012 C 
ATOM      8  C   UNL     1      34.656 -17.355 -24.482  0.00  0.00    +0.016 C 
ATOM      9  C   UNL     1      33.804 -15.491 -25.786  0.00  0.00    +0.058 C 
ATOM     10  C   UNL     1      34.287 -16.796 -25.708  0.00  0.00    +0.013 C 
ENDROOT
BRANCH   2  12
ATOM     11  F   UNL     1      36.784 -21.606 -20.094  0.00  0.00    -0.204 F 
ATOM     12  C   UNL     1      35.305 -18.047 -21.532  0.00  0.00    +0.056 C 
ATOM     13  C   UNL     1      34.427 -19.071 -21.212  0.00  0.00    +0.017 C 
ATOM     14  C   UNL     1      36.675 -18.203 -21.376  0.00  0.00    +0.017 C 
ATOM     15  C   UNL     1      34.928 -20.278 -20.723  0.00  0.00    +0.031 C 
ATOM     16  C   UNL     1      37.176 -19.410 -20.887  0.00  0.00    +0.031 C 
ATOM     17  C   UNL     1      36.303 -20.448 -20.561  0.00  0.00    +0.140 C 
ENDBRANCH   2  12
BRANCH   3  19
ATOM     18  N   UNL     1      31.628 -11.239 -21.290  0.00  0.00    +0.388 N 
ATOM     19  C   UNL     1      33.606 -13.382 -21.605  0.00  0.00    +0.019 C 
ATOM     20  C   UNL     1      33.164 -12.488 -22.775  0.00  0.00    -0.018 C 
ATOM     21  C   UNL     1      32.500 -13.429 -20.539  0.00  0.00    -0.018 C 
ATOM     22  C   UNL     1      32.706 -11.114 -22.281  0.00  0.00    -0.077 C 
ATOM     23  C   UNL     1      32.065 -12.021 -20.127  0.00  0.00    -0.077 C 
ATOM     24  H   UNL     1      30.853 -11.735 -21.730  0.00  0.00    -0.080 HD
BRANCH  18  25
ATOM     25  C   UNL     1      31.163  -9.916 -20.872  0.00  0.00    -0.055 C 
BRANCH  25  26
ATOM     26  C   UNL     1      32.347  -8.991 -20.632  0.00  0.00    +0.077 C 
BRANCH  26  28
ATOM     27  O   UNL     1      32.884  -6.405 -19.198  0.00  0.00    -0.252 OA
ATOM     28  N   UNL     1      32.041  -7.642 -21.022  0.00  0.00    -0.243 N 
ATOM     29  N   UNL     1      31.890  -5.386 -21.056  0.00  0.00    -0.266 N 
ATOM     30  C   UNL     1      31.445  -7.320 -22.308  0.00  0.00    +0.085 C 
ATOM     31  C   UNL     1      31.242  -5.814 -22.270  0.00  0.00    +0.082 C 
ATOM     32  C   UNL     1      32.338  -6.475 -20.292  0.00  0.00    +0.311 C 
ATOM     33  H   UNL     1      32.004  -4.443 -20.795  0.00  0.00    +0.157 HD
ENDBRANCH  26  28
ENDBRANCH  25  26
ENDBRANCH  18  25
ENDBRANCH   3  19
TORSDOF 5
ENDMDL
MODEL 3
REMARK VINA RESULT:     -11.4      7.289     13.727
REMARK  Name = 60149
REMARK  5 active torsions:
REMARK  status: ('A' for Active; 'I' for Inactive)
REMARK    1  A    between atoms: N_2  and  C_12
REMARK    2  A    between atoms: C_3  and  C_19
REMARK    3  A    between atoms: N_18  and  C_25
REMARK    4  A    between atoms: C_25  and  C_26
REMARK    5  A    between atoms: C_26  and  N_28
REMARK                            x       y       z     vdW  Elec       q    Type
REMARK                         _______ _______ _______ _____ _____    ______ ____
ROOT
ATOM      1 CL   UNL     1      31.430 -10.781 -17.578  0.00  0.00    -0.082 Cl
ATOM      2  N   UNL     1      32.828  -9.176 -23.019  0.00  0.00    -0.265 N 
ATOM      3  C   UNL     1      32.794 -11.363 -22.672  0.00  0.00    -0.006 C 
ATOM      4  C   UNL     1      32.454 -10.720 -21.452  0.00  0.00    +0.012 C 
ATOM      5  C   UNL     1      33.018 -10.393 -23.616  0.00  0.00    +0.065 C 
ATOM      6  C   UNL     1      32.482  -9.346 -21.697  0.00  0.00    +0.055 C 
ATOM      7  C   UNL     1      32.125 -11.173 -20.159  0.00  0.00    +0.012 C 
ATOM      8  C   UNL     1      32.195  -8.397 -20.709  0.00  0.00    +0.016 C 
ATOM      9  C   UNL     1      31.836 -10.235 -19.161  0.00  0.00    +0.058 C 
ATOM     10  C   UNL     1      31.871  -8.869 -19.434  0.00  0.00    +0.013 C 
ENDROOT
BRANCH   2  12
ATOM     11  F   UNL     1      33.375  -4.343 -25.610  0.00  0.00    -0.204 F 
ATOM     12  C   UNL     1      32.967  -7.951 -23.676  0.00  0.00    +0.056 C 
ATOM     13  C   UNL     1      31.833  -7.227 -24.017  0.00  0.00    +0.017 C 
ATOM     14  C   UNL     1      34.236  -7.478 -23.976  0.00  0.00    +0.017 C 
ATOM     15  C   UNL     1      31.972  -6.004 -24.674  0.00  0.00    +0.031 C 
ATOM     16  C   UNL     1      34.374  -6.255 -24.634  0.00  0.00    +0.031 C 
ATOM     17  C   UNL     1      33.242  -5.517 -24.982  0.00  0.00    +0.140 C 
ENDBRANCH   2  12
BRANCH   3  19
ATOM     18  N   UNL     1      34.393 -15.338 -23.340  0.00  0.00    +0.388 N 
ATOM     19  C   UNL     1      32.895 -12.855 -22.900  0.00  0.00    +0.019 C 
ATOM     20  C   UNL     1      33.532 -13.206 -24.255  0.00  0.00    -0.018 C 
ATOM     21  C   UNL     1      33.643 -13.579 -21.770  0.00  0.00    -0.018 C 
ATOM     22  C   UNL     1      33.640 -14.721 -24.441  0.00  0.00    -0.077 C 
ATOM     23  C   UNL     1      33.748 -15.081 -22.046  0.00  0.00    -0.077 C 
ATOM     24  H   UNL     1      35.321 -14.916 -23.319  0.00  0.00    -0.080 HD
BRANCH  18  25
ATOM     25  C   UNL     1      34.537 -16.777 -23.562  0.00  0.00    -0.055 C 
BRANCH  25  26
ATOM     26  C   UNL     1      35.869 -17.266 -23.015  0.00  0.00    +0.077 C 
BRANCH  26  28
ATOM     27  O   UNL     1      37.872 -18.668 -21.266  0.00  0.00    -0.252 OA
ATOM     28  N   UNL     1      35.686 -18.359 -22.098  0.00  0.00    -0.243 N 
ATOM     29  N   UNL     1      36.058 -19.958 -20.543  0.00  0.00    -0.266 N 
ATOM     30  C   UNL     1      34.379 -18.929 -21.820  0.00  0.00    +0.085 C 
ATOM     31  C   UNL     1      34.658 -20.078 -20.863  0.00  0.00    +0.082 C 
ATOM     32  C   UNL     1      36.683 -18.956 -21.303  0.00  0.00    +0.311 C 
ATOM     33  H   UNL     1      36.520 -20.512 -19.873  0.00  0.00    +0.157 HD
ENDBRANCH  26  28
ENDBRANCH  25  26
ENDBRANCH  18  25
ENDBRANCH   3  19
TORSDOF 5
ENDMDL
