MODEL 1
REMARK VINA RESULT:     -13.4      0.000      0.000
REMARK  Name = 448841
REMARK  3 active torsions:
REMARK  status: ('A' for Active; 'I' for Inactive)
REMARK    1  A    between atoms: C_1  and  C_17
REMARK    2  A    between atoms: C_9  and  C_13
REMARK    3  A    between atoms: C_18  and  C_20
REMARK                            x       y       z     vdW  Elec       q    Type
REMARK                         _______ _______ _______ _____ _____    ______ ____
ROOT
ATOM      1  C   UNL     1      34.905 -16.661 -22.039  0.00  0.00    -0.022 C 
ATOM      2  C   UNL     1      34.052 -15.991 -21.163  0.00  0.00    -0.004 C 
ATOM      3  C   UNL     1      35.251 -16.081 -23.256  0.00  0.00    -0.004 C 
ATOM      4  C   UNL     1      33.533 -14.728 -21.493  0.00  0.00    -0.000 C 
ATOM      5  C   UNL     1      34.744 -14.827 -23.600  0.00  0.00    -0.000 C 
ATOM      6  C   UNL     1      33.885 -14.137 -22.731  0.00  0.00    +0.000 C 
ATOM      7  C   UNL     1      32.672 -14.039 -20.624  0.00  0.00    +0.000 C 
ATOM      8  C   UNL     1      33.366 -12.875 -23.061  0.00  0.00    +0.003 C 
ATOM      9  C   UNL     1      32.513 -12.203 -22.185  0.00  0.00    +0.031 C 
ATOM     10  C   UNL     1      32.167 -12.785 -20.968  0.00  0.00    +0.003 C 
ENDROOT
BRANCH   9  13
ATOM     11  N   UNL     1      32.727  -9.999 -23.308  0.00  0.00    -0.343 N 
ATOM     12  N   UNL     1      30.780 -10.540 -22.134  0.00  0.00    -0.285 NA
ATOM     13  C   UNL     1      31.985 -10.897 -22.542  0.00  0.00    +0.117 C 
ATOM     14  H   UNL     1      32.350  -9.119 -23.537  0.00  0.00    +0.144 HD
ATOM     15  H   UNL     1      33.629 -10.245 -23.618  0.00  0.00    +0.144 HD
ATOM     16  H   UNL     1      30.421  -9.655 -22.376  0.00  0.00    +0.188 HD
ENDBRANCH   9  13
BRANCH   1  17
ATOM     17  C   UNL     1      35.445 -18.000 -21.673  0.00  0.00    +0.027 C 
ATOM     18  C   UNL     1      34.565 -19.205 -21.800  0.00  0.00    +0.027 C 
ATOM     19  C   UNL     1      35.706 -19.003 -22.754  0.00  0.00    +0.009 C 
BRANCH  18  20
ATOM     20  C   UNL     1      34.652 -20.278 -20.778  0.00  0.00    -0.022 C 
ATOM     21  C   UNL     1      33.488 -20.854 -20.262  0.00  0.00    -0.004 C 
ATOM     22  C   UNL     1      35.899 -20.719 -20.324  0.00  0.00    -0.004 C 
ATOM     23  C   UNL     1      33.569 -21.862 -19.300  0.00  0.00    -0.000 C 
ATOM     24  C   UNL     1      35.981 -21.726 -19.363  0.00  0.00    -0.000 C 
ATOM     25  C   UNL     1      34.816 -22.297 -18.851  0.00  0.00    -0.000 C 
ENDBRANCH  18  20
ENDBRANCH   1  17
TORSDOF 3
ENDMDL
MODEL 2
REMARK VINA RESULT:     -13.1      5.724      9.547
REMARK  Name = 448841
REMARK  3 active torsions:
REMARK  status: ('A' for Active; 'I' for Inactive)
REMARK    1  A    between atoms: C_1  and  C_17
REMARK    2  A    between atoms: C_9  and  C_13
REMARK    3  A    between atoms: C_18  and  C_20
REMARK                            x       y       z     vdW  Elec       q    Type
REMARK                         _______ _______ _______ _____ _____    ______ ____
ROOT
ATOM      1  C   UNL     1      35.671 -21.015 -20.022  0.00  0.00    -0.022 C 
ATOM      2  C   UNL     1      36.590 -21.287 -19.009  0.00  0.00    -0.004 C 
ATOM      3  C   UNL     1      34.363 -21.479 -19.919  0.00  0.00    -0.004 C 
ATOM      4  C   UNL     1      36.212 -22.028 -17.878  0.00  0.00    -0.000 C 
ATOM      5  C   UNL     1      33.970 -22.217 -18.801  0.00  0.00    -0.000 C 
ATOM      6  C   UNL     1      34.882 -22.500 -17.772  0.00  0.00    +0.000 C 
ATOM      7  C   UNL     1      37.125 -22.313 -16.849  0.00  0.00    +0.000 C 
ATOM      8  C   UNL     1      34.503 -23.241 -16.642  0.00  0.00    +0.003 C 
ATOM      9  C   UNL     1      35.423 -23.514 -15.628  0.00  0.00    +0.031 C 
ATOM     10  C   UNL     1      36.731 -23.050 -15.732  0.00  0.00    +0.003 C 
ENDROOT
BRANCH   9  13
ATOM     11  N   UNL     1      34.022 -23.820 -13.601  0.00  0.00    -0.343 N 
ATOM     12  N   UNL     1      35.593 -25.442 -14.203  0.00  0.00    -0.285 NA
ATOM     13  C   UNL     1      35.015 -24.282 -14.463  0.00  0.00    +0.117 C 
ATOM     14  H   UNL     1      33.762 -24.356 -12.817  0.00  0.00    +0.144 HD
ATOM     15  H   UNL     1      33.582 -22.957 -13.775  0.00  0.00    +0.144 HD
ATOM     16  H   UNL     1      35.318 -25.963 -13.415  0.00  0.00    +0.188 HD
ENDBRANCH   9  13
BRANCH   1  17
ATOM     17  C   UNL     1      36.089 -20.228 -21.215  0.00  0.00    +0.027 C 
ATOM     18  C   UNL     1      35.660 -18.799 -21.337  0.00  0.00    +0.027 C 
ATOM     19  C   UNL     1      37.095 -19.131 -21.051  0.00  0.00    +0.009 C 
BRANCH  18  20
ATOM     20  C   UNL     1      35.289 -18.263 -22.671  0.00  0.00    -0.022 C 
ATOM     21  C   UNL     1      34.883 -19.131 -23.689  0.00  0.00    -0.004 C 
ATOM     22  C   UNL     1      35.345 -16.889 -22.918  0.00  0.00    -0.004 C 
ATOM     23  C   UNL     1      34.536 -18.628 -24.944  0.00  0.00    -0.000 C 
ATOM     24  C   UNL     1      34.999 -16.385 -24.172  0.00  0.00    -0.000 C 
ATOM     25  C   UNL     1      34.594 -17.256 -25.185  0.00  0.00    -0.000 C 
ENDBRANCH  18  20
ENDBRANCH   1  17
TORSDOF 3
ENDMDL
MODEL 3
REMARK VINA RESULT:     -12.7      3.666      5.886
REMARK  Name = 448841
REMARK  3 active torsions:
REMARK  status: ('A' for Active; 'I' for Inactive)
REMARK    1  A    between atoms: C_1  and  C_17
REMARK    2  A    between atoms: C_9  and  C_13
REMARK    3  A    between atoms: C_18  and  C_20
REMARK                            x       y       z     vdW  Elec       q    Type
REMARK                         _______ _______ _______ _____ _____    ______ ____
ROOT
ATOM      1  C   UNL     1      32.271 -12.302 -21.566  0.00  0.00    -0.022 C 
ATOM      2  C   UNL     1      32.268 -11.278 -22.512  0.00  0.00    -0.004 C 
ATOM      3  C   UNL     1      32.148 -12.001 -20.212  0.00  0.00    -0.004 C 
ATOM      4  C   UNL     1      32.141  -9.936 -22.116  0.00  0.00    -0.000 C 
ATOM      5  C   UNL     1      32.021 -10.673 -19.801  0.00  0.00    -0.000 C 
ATOM      6  C   UNL     1      32.016  -9.629 -20.740  0.00  0.00    +0.000 C 
ATOM      7  C   UNL     1      32.137  -8.892 -23.055  0.00  0.00    +0.000 C 
ATOM      8  C   UNL     1      31.890  -8.289 -20.344  0.00  0.00    +0.003 C 
ATOM      9  C   UNL     1      31.886  -7.263 -21.291  0.00  0.00    +0.031 C 
ATOM     10  C   UNL     1      32.010  -7.565 -22.644  0.00  0.00    +0.003 C 
ENDROOT
BRANCH   9  13
ATOM     11  N   UNL     1      31.022  -4.957 -21.611  0.00  0.00    -0.343 N 
ATOM     12  N   UNL     1      32.338  -5.475 -19.750  0.00  0.00    -0.285 NA
ATOM     13  C   UNL     1      31.754  -5.880 -20.864  0.00  0.00    +0.117 C 
ATOM     14  H   UNL     1      30.946  -4.025 -21.304  0.00  0.00    +0.144 HD
ATOM     15  H   UNL     1      30.582  -5.238 -22.446  0.00  0.00    +0.144 HD
ATOM     16  H   UNL     1      32.249  -4.538 -19.460  0.00  0.00    +0.188 HD
ENDBRANCH   9  13
BRANCH   1  17
ATOM     17  C   UNL     1      32.407 -13.720 -22.003  0.00  0.00    +0.027 C 
ATOM     18  C   UNL     1      33.761 -14.357 -22.010  0.00  0.00    +0.027 C 
ATOM     19  C   UNL     1      32.742 -14.768 -20.988  0.00  0.00    +0.009 C 
BRANCH  18  20
ATOM     20  C   UNL     1      34.116 -15.297 -23.103  0.00  0.00    -0.022 C 
ATOM     21  C   UNL     1      33.678 -15.055 -24.408  0.00  0.00    -0.004 C 
ATOM     22  C   UNL     1      34.889 -16.430 -22.834  0.00  0.00    -0.004 C 
ATOM     23  C   UNL     1      34.009 -15.940 -25.435  0.00  0.00    -0.000 C 
ATOM     24  C   UNL     1      35.219 -17.315 -23.860  0.00  0.00    -0.000 C 
ATOM     25  C   UNL     1      34.779 -17.069 -25.161  0.00  0.00    -0.000 C 
ENDBRANCH  18  20
ENDBRANCH   1  17
TORSDOF 3
ENDMDL
MODEL 4
REMARK VINA RESULT:     -12.6      5.717      9.268
REMARK  Name = 448841
REMARK  3 active torsions:
REMARK  status: ('A' for Active; 'I' for Inactive)
REMARK    1  A    between atoms: C_1  and  C_17
REMARK    2  A    between atoms: C_9  and  C_13
REMARK    3  A    between atoms: C_18  and  C_20
REMARK                            x       y       z     vdW  Elec       q    Type
REMARK                         _______ _______ _______ _____ _____    ______ ____
ROOT
ATOM      1  C   UNL     1      35.953 -21.000 -19.945  0.00  0.00    -0.022 C 
ATOM      2  C   UNL     1      34.660 -21.466 -19.714  0.00  0.00    -0.004 C 
ATOM      3  C   UNL     1      36.955 -21.228 -19.006  0.00  0.00    -0.004 C 
ATOM      4  C   UNL     1      34.349 -22.167 -18.537  0.00  0.00    -0.000 C 
ATOM      5  C   UNL     1      36.664 -21.923 -17.830  0.00  0.00    -0.000 C 
ATOM      6  C   UNL     1      35.368 -22.400 -17.581  0.00  0.00    +0.000 C 
ATOM      7  C   UNL     1      33.052 -22.643 -18.287  0.00  0.00    +0.000 C 
ATOM      8  C   UNL     1      35.058 -23.100 -16.405  0.00  0.00    +0.003 C 
ATOM      9  C   UNL     1      33.764 -23.567 -16.172  0.00  0.00    +0.031 C 
ATOM     10  C   UNL     1      32.763 -23.338 -17.113  0.00  0.00    +0.003 C 
ENDROOT
BRANCH   9  13
ATOM     11  N   UNL     1      34.464 -24.902 -14.200  0.00  0.00    -0.343 N 
ATOM     12  N   UNL     1      32.209 -24.383 -14.532  0.00  0.00    -0.285 NA
ATOM     13  C   UNL     1      33.460 -24.291 -14.949  0.00  0.00    +0.117 C 
ATOM     14  H   UNL     1      34.235 -25.388 -13.375  0.00  0.00    +0.144 HD
ATOM     15  H   UNL     1      35.401 -24.847 -14.496  0.00  0.00    +0.144 HD
ATOM     16  H   UNL     1      32.002 -24.873 -13.703  0.00  0.00    +0.188 HD
ENDBRANCH   9  13
BRANCH   1  17
ATOM     17  C   UNL     1      36.264 -20.258 -21.199  0.00  0.00    +0.027 C 
ATOM     18  C   UNL     1      35.809 -18.839 -21.341  0.00  0.00    +0.027 C 
ATOM     19  C   UNL     1      37.267 -19.146 -21.160  0.00  0.00    +0.009 C 
BRANCH  18  20
ATOM     20  C   UNL     1      35.325 -18.361 -22.660  0.00  0.00    -0.022 C 
ATOM     21  C   UNL     1      34.856 -19.272 -23.611  0.00  0.00    -0.004 C 
ATOM     22  C   UNL     1      35.337 -16.996 -22.962  0.00  0.00    -0.004 C 
ATOM     23  C   UNL     1      34.404 -18.824 -24.852  0.00  0.00    -0.000 C 
ATOM     24  C   UNL     1      34.885 -16.546 -24.203  0.00  0.00    -0.000 C 
ATOM     25  C   UNL     1      34.419 -17.461 -25.147  0.00  0.00    -0.000 C 
ENDBRANCH  18  20
ENDBRANCH   1  17
TORSDOF 3
ENDMDL
MODEL 5
REMARK VINA RESULT:     -12.6      5.731      9.263
REMARK  Name = 448841
REMARK  3 active torsions:
REMARK  status: ('A' for Active; 'I' for Inactive)
REMARK    1  A    between atoms: C_1  and  C_17
REMARK    2  A    between atoms: C_9  and  C_13
REMARK    3  A    between atoms: C_18  and  C_20
REMARK                            x       y       z     vdW  Elec       q    Type
REMARK                         _______ _______ _______ _____ _____    ______ ____
ROOT
ATOM      1  C   UNL     1      35.947 -20.971 -19.973  0.00  0.00    -0.022 C 
ATOM      2  C   UNL     1      34.655 -21.441 -19.741  0.00  0.00    -0.004 C 
ATOM      3  C   UNL     1      36.950 -21.195 -19.033  0.00  0.00    -0.004 C 
ATOM      4  C   UNL     1      34.348 -22.143 -18.565  0.00  0.00    -0.000 C 
ATOM      5  C   UNL     1      36.662 -21.891 -17.858  0.00  0.00    -0.000 C 
ATOM      6  C   UNL     1      35.366 -22.372 -17.608  0.00  0.00    +0.000 C 
ATOM      7  C   UNL     1      33.052 -22.623 -18.315  0.00  0.00    +0.000 C 
ATOM      8  C   UNL     1      35.060 -23.073 -16.432  0.00  0.00    +0.003 C 
ATOM      9  C   UNL     1      33.767 -23.545 -16.200  0.00  0.00    +0.031 C 
ATOM     10  C   UNL     1      32.765 -23.320 -17.140  0.00  0.00    +0.003 C 
ENDROOT
BRANCH   9  13
ATOM     11  N   UNL     1      34.477 -24.826 -14.195  0.00  0.00    -0.343 N 
ATOM     12  N   UNL     1      32.210 -24.416 -14.590  0.00  0.00    -0.285 NA
ATOM     13  C   UNL     1      33.465 -24.270 -14.977  0.00  0.00    +0.117 C 
ATOM     14  H   UNL     1      34.250 -25.313 -13.371  0.00  0.00    +0.144 HD
ATOM     15  H   UNL     1      35.418 -24.730 -14.468  0.00  0.00    +0.144 HD
ATOM     16  H   UNL     1      32.005 -24.907 -13.762  0.00  0.00    +0.188 HD
ENDBRANCH   9  13
BRANCH   1  17
ATOM     17  C   UNL     1      36.256 -20.227 -21.226  0.00  0.00    +0.027 C 
ATOM     18  C   UNL     1      35.766 -18.821 -21.383  0.00  0.00    +0.027 C 
ATOM     19  C   UNL     1      37.229 -19.090 -21.180  0.00  0.00    +0.009 C 
BRANCH  18  20
ATOM     20  C   UNL     1      35.288 -18.362 -22.711  0.00  0.00    -0.022 C 
ATOM     21  C   UNL     1      35.335 -17.006 -23.046  0.00  0.00    -0.004 C 
ATOM     22  C   UNL     1      34.786 -19.283 -23.635  0.00  0.00    -0.004 C 
ATOM     23  C   UNL     1      34.884 -16.574 -24.293  0.00  0.00    -0.000 C 
ATOM     24  C   UNL     1      34.334 -18.852 -24.882  0.00  0.00    -0.000 C 
ATOM     25  C   UNL     1      34.383 -17.497 -25.211  0.00  0.00    -0.000 C 
ENDBRANCH  18  20
ENDBRANCH   1  17
TORSDOF 3
ENDMDL
MODEL 6
REMARK VINA RESULT:     -12.6      2.459      3.435
REMARK  Name = 448841
REMARK  3 active torsions:
REMARK  status: ('A' for Active; 'I' for Inactive)
REMARK    1  A    between atoms: C_1  and  C_17
REMARK    2  A    between atoms: C_9  and  C_13
REMARK    3  A    between atoms: C_18  and  C_20
REMARK                            x       y       z     vdW  Elec       q    Type
REMARK                         _______ _______ _______ _____ _____    ______ ____
ROOT
ATOM      1  C   UNL     1      35.224 -18.167 -22.198  0.00  0.00    -0.022 C 
ATOM      2  C   UNL     1      35.018 -16.789 -22.150  0.00  0.00    -0.004 C 
ATOM      3  C   UNL     1      35.031 -18.860 -23.390  0.00  0.00    -0.004 C 
ATOM      4  C   UNL     1      34.617 -16.083 -23.296  0.00  0.00    -0.000 C 
ATOM      5  C   UNL     1      34.632 -18.174 -24.539  0.00  0.00    -0.000 C 
ATOM      6  C   UNL     1      34.421 -16.786 -24.509  0.00  0.00    +0.000 C 
ATOM      7  C   UNL     1      34.405 -14.695 -23.265  0.00  0.00    +0.000 C 
ATOM      8  C   UNL     1      34.020 -16.081 -25.655  0.00  0.00    +0.003 C 
ATOM      9  C   UNL     1      33.814 -14.702 -25.607  0.00  0.00    +0.031 C 
ATOM     10  C   UNL     1      34.007 -14.010 -24.414  0.00  0.00    +0.003 C 
ENDROOT
BRANCH   9  13
ATOM     11  N   UNL     1      32.080 -13.571 -26.978  0.00  0.00    -0.343 N 
ATOM     12  N   UNL     1      34.281 -13.721 -27.751  0.00  0.00    -0.285 NA
ATOM     13  C   UNL     1      33.400 -13.986 -26.802  0.00  0.00    +0.117 C 
ATOM     14  H   UNL     1      31.821 -13.088 -27.796  0.00  0.00    +0.144 HD
ATOM     15  H   UNL     1      31.408 -13.762 -26.284  0.00  0.00    +0.144 HD
ATOM     16  H   UNL     1      34.001 -13.236 -28.561  0.00  0.00    +0.188 HD
ENDBRANCH   9  13
BRANCH   1  17
ATOM     17  C   UNL     1      35.649 -18.900 -20.973  0.00  0.00    +0.027 C 
ATOM     18  C   UNL     1      35.812 -20.387 -21.029  0.00  0.00    +0.027 C 
ATOM     19  C   UNL     1      37.019 -19.501 -20.920  0.00  0.00    +0.009 C 
BRANCH  18  20
ATOM     20  C   UNL     1      35.404 -21.207 -19.862  0.00  0.00    -0.022 C 
ATOM     21  C   UNL     1      36.336 -21.538 -18.874  0.00  0.00    -0.004 C 
ATOM     22  C   UNL     1      34.085 -21.656 -19.743  0.00  0.00    -0.004 C 
ATOM     23  C   UNL     1      35.953 -22.311 -17.777  0.00  0.00    -0.000 C 
ATOM     24  C   UNL     1      33.702 -22.429 -18.647  0.00  0.00    -0.000 C 
ATOM     25  C   UNL     1      34.636 -22.756 -17.664  0.00  0.00    -0.000 C 
ENDBRANCH  18  20
ENDBRANCH   1  17
TORSDOF 3
ENDMDL
MODEL 7
REMARK VINA RESULT:     -12.5      5.153      8.874
REMARK  Name = 448841
REMARK  3 active torsions:
REMARK  status: ('A' for Active; 'I' for Inactive)
REMARK    1  A    between atoms: C_1  and  C_17
REMARK    2  A    between atoms: C_9  and  C_13
REMARK    3  A    between atoms: C_18  and  C_20
REMARK                            x       y       z     vdW  Elec       q    Type
REMARK                         _______ _______ _______ _____ _____    ______ ____
ROOT
ATOM      1  C   UNL     1      34.856 -19.834 -21.646  0.00  0.00    -0.022 C 
ATOM      2  C   UNL     1      33.917 -20.562 -20.917  0.00  0.00    -0.004 C 
ATOM      3  C   UNL     1      36.190 -19.820 -21.248  0.00  0.00    -0.004 C 
ATOM      4  C   UNL     1      34.300 -21.288 -19.777  0.00  0.00    -0.000 C 
ATOM      5  C   UNL     1      36.588 -20.536 -20.118  0.00  0.00    -0.000 C 
ATOM      6  C   UNL     1      35.656 -21.275 -19.371  0.00  0.00    +0.000 C 
ATOM      7  C   UNL     1      33.368 -22.026 -19.030  0.00  0.00    +0.000 C 
ATOM      8  C   UNL     1      36.040 -21.999 -18.232  0.00  0.00    +0.003 C 
ATOM      9  C   UNL     1      35.101 -22.729 -17.502  0.00  0.00    +0.031 C 
ATOM     10  C   UNL     1      33.767 -22.741 -17.901  0.00  0.00    +0.003 C 
ENDROOT
BRANCH   9  13
ATOM     11  N   UNL     1      34.580 -24.046 -15.463  0.00  0.00    -0.343 N 
ATOM     12  N   UNL     1      36.800 -23.617 -16.053  0.00  0.00    -0.285 NA
ATOM     13  C   UNL     1      35.514 -23.475 -16.325  0.00  0.00    +0.117 C 
ATOM     14  H   UNL     1      34.882 -24.547 -14.671  0.00  0.00    +0.144 HD
ATOM     15  H   UNL     1      33.617 -23.949 -15.646  0.00  0.00    +0.144 HD
ATOM     16  H   UNL     1      37.081 -24.122 -15.257  0.00  0.00    +0.188 HD
ENDBRANCH   9  13
BRANCH   1  17
ATOM     17  C   UNL     1      34.431 -19.069 -22.852  0.00  0.00    +0.027 C 
ATOM     18  C   UNL     1      35.367 -18.065 -23.449  0.00  0.00    +0.027 C 
ATOM     19  C   UNL     1      35.091 -19.353 -24.167  0.00  0.00    +0.009 C 
BRANCH  18  20
ATOM     20  C   UNL     1      34.820 -16.797 -23.993  0.00  0.00    -0.022 C 
ATOM     21  C   UNL     1      34.907 -15.616 -23.250  0.00  0.00    -0.004 C 
ATOM     22  C   UNL     1      34.214 -16.775 -25.253  0.00  0.00    -0.004 C 
ATOM     23  C   UNL     1      34.391 -14.425 -23.760  0.00  0.00    -0.000 C 
ATOM     24  C   UNL     1      33.698 -15.584 -25.764  0.00  0.00    -0.000 C 
ATOM     25  C   UNL     1      33.786 -14.409 -25.017  0.00  0.00    -0.000 C 
ENDBRANCH  18  20
ENDBRANCH   1  17
TORSDOF 3
ENDMDL
MODEL 8
REMARK VINA RESULT:     -12.1      2.659      4.913
REMARK  Name = 448841
REMARK  3 active torsions:
REMARK  status: ('A' for Active; 'I' for Inactive)
REMARK    1  A    between atoms: C_1  and  C_17
REMARK    2  A    between atoms: C_9  and  C_13
REMARK    3  A    between atoms: C_18  and  C_20
REMARK                            x       y       z     vdW  Elec       q    Type
REMARK                         _______ _______ _______ _____ _____    ______ ____
ROOT
ATOM      1  C   UNL     1      32.581 -12.676 -21.831  0.00  0.00    -0.022 C 
ATOM      2  C   UNL     1      32.239 -11.992 -20.665  0.00  0.00    -0.004 C 
ATOM      3  C   UNL     1      32.795 -11.973 -23.014  0.00  0.00    -0.004 C 
ATOM      4  C   UNL     1      32.106 -10.594 -20.666  0.00  0.00    -0.000 C 
ATOM      5  C   UNL     1      32.667 -10.583 -23.033  0.00  0.00    -0.000 C 
ATOM      6  C   UNL     1      32.323  -9.879 -21.868  0.00  0.00    +0.000 C 
ATOM      7  C   UNL     1      31.761  -9.890 -19.501  0.00  0.00    +0.000 C 
ATOM      8  C   UNL     1      32.190  -8.482 -21.870  0.00  0.00    +0.003 C 
ATOM      9  C   UNL     1      31.848  -7.797 -20.702  0.00  0.00    +0.031 C 
ATOM     10  C   UNL     1      31.634  -8.501 -19.521  0.00  0.00    +0.003 C 
ENDROOT
BRANCH   9  13
ATOM     11  N   UNL     1      30.992  -5.700 -21.720  0.00  0.00    -0.343 N 
ATOM     12  N   UNL     1      32.289  -5.623 -19.777  0.00  0.00    -0.285 NA
ATOM     13  C   UNL     1      31.715  -6.350 -20.720  0.00  0.00    +0.117 C 
ATOM     14  H   UNL     1      30.915  -4.719 -21.713  0.00  0.00    +0.144 HD
ATOM     15  H   UNL     1      30.560  -6.223 -22.433  0.00  0.00    +0.144 HD
ATOM     16  H   UNL     1      32.199  -4.643 -19.788  0.00  0.00    +0.188 HD
ENDBRANCH   9  13
BRANCH   1  17
ATOM     17  C   UNL     1      32.718 -14.159 -21.813  0.00  0.00    +0.027 C 
ATOM     18  C   UNL     1      33.949 -14.774 -21.224  0.00  0.00    +0.027 C 
ATOM     19  C   UNL     1      32.636 -14.884 -20.505  0.00  0.00    +0.009 C 
BRANCH  18  20
ATOM     20  C   UNL     1      34.533 -15.981 -21.860  0.00  0.00    -0.022 C 
ATOM     21  C   UNL     1      34.593 -16.083 -23.253  0.00  0.00    -0.004 C 
ATOM     22  C   UNL     1      35.027 -17.023 -21.071  0.00  0.00    -0.004 C 
ATOM     23  C   UNL     1      35.140 -17.219 -23.852  0.00  0.00    -0.000 C 
ATOM     24  C   UNL     1      35.574 -18.159 -21.668  0.00  0.00    -0.000 C 
ATOM     25  C   UNL     1      35.630 -18.256 -23.059  0.00  0.00    -0.000 C 
ENDBRANCH  18  20
ENDBRANCH   1  17
TORSDOF 3
ENDMDL
MODEL 9
REMARK VINA RESULT:     -12.1      4.949      8.889
REMARK  Name = 448841
REMARK  3 active torsions:
REMARK  status: ('A' for Active; 'I' for Inactive)
REMARK    1  A    between atoms: C_1  and  C_17
REMARK    2  A    between atoms: C_9  and  C_13
REMARK    3  A    between atoms: C_18  and  C_20
REMARK                            x       y       z     vdW  Elec       q    Type
REMARK                         _______ _______ _______ _____ _____    ______ ____
ROOT
ATOM      1  C   UNL     1      34.498 -19.801 -21.601  0.00  0.00    -0.022 C 
ATOM      2  C   UNL     1      35.579 -20.241 -20.839  0.00  0.00    -0.004 C 
ATOM      3  C   UNL     1      33.203 -20.183 -21.260  0.00  0.00    -0.004 C 
ATOM      4  C   UNL     1      35.381 -21.071 -19.723  0.00  0.00    -0.000 C 
ATOM      5  C   UNL     1      32.987 -21.008 -20.154  0.00  0.00    -0.000 C 
ATOM      6  C   UNL     1      34.064 -21.460 -19.375  0.00  0.00    +0.000 C 
ATOM      7  C   UNL     1      36.458 -21.524 -18.945  0.00  0.00    +0.000 C 
ATOM      8  C   UNL     1      33.865 -22.289 -18.260  0.00  0.00    +0.003 C 
ATOM      9  C   UNL     1      34.947 -22.729 -17.497  0.00  0.00    +0.031 C 
ATOM     10  C   UNL     1      36.241 -22.347 -17.839  0.00  0.00    +0.003 C 
ENDROOT
BRANCH   9  13
ATOM     11  N   UNL     1      33.448 -23.771 -15.814  0.00  0.00    -0.343 N 
ATOM     12  N   UNL     1      35.744 -24.208 -15.778  0.00  0.00    -0.285 NA
ATOM     13  C   UNL     1      34.724 -23.587 -16.345  0.00  0.00    +0.117 C 
ATOM     14  H   UNL     1      33.320 -24.356 -15.033  0.00  0.00    +0.144 HD
ATOM     15  H   UNL     1      32.676 -23.314 -16.219  0.00  0.00    +0.144 HD
ATOM     16  H   UNL     1      35.594 -24.790 -14.998  0.00  0.00    +0.188 HD
ENDBRANCH   9  13
BRANCH   1  17
ATOM     17  C   UNL     1      34.727 -18.923 -22.781  0.00  0.00    +0.027 C 
ATOM     18  C   UNL     1      35.261 -17.540 -22.572  0.00  0.00    +0.027 C 
ATOM     19  C   UNL     1      36.131 -18.597 -23.188  0.00  0.00    +0.009 C 
BRANCH  18  20
ATOM     20  C   UNL     1      34.755 -16.430 -23.418  0.00  0.00    -0.022 C 
ATOM     21  C   UNL     1      34.763 -15.118 -22.935  0.00  0.00    -0.004 C 
ATOM     22  C   UNL     1      34.266 -16.690 -24.702  0.00  0.00    -0.004 C 
ATOM     23  C   UNL     1      34.285 -14.075 -23.729  0.00  0.00    -0.000 C 
ATOM     24  C   UNL     1      33.788 -15.647 -25.495  0.00  0.00    -0.000 C 
ATOM     25  C   UNL     1      33.798 -14.340 -25.009  0.00  0.00    -0.000 C 
ENDBRANCH  18  20
ENDBRANCH   1  17
TORSDOF 3
ENDMDL
