MODEL 1
REMARK VINA RESULT:     -14.6      0.000      0.000
REMARK  Name = 115237
REMARK  5 active torsions:
REMARK  status: ('A' for Active; 'I' for Inactive)
REMARK    1  A    between atoms: N_1  and  C_18
REMARK    2  A    between atoms: C_2  and  C_11
REMARK    3  A    between atoms: C_18  and  C_19
REMARK    4  A    between atoms: C_19  and  C_23
REMARK    5  A    between atoms: C_25  and  O_32
REMARK                            x       y       z     vdW  Elec       q    Type
REMARK                         _______ _______ _______ _____ _____    ______ ____
ROOT
ATOM      1  N   UNL     1      34.705 -20.502 -20.516  0.00  0.00    +0.387 N 
ATOM      2  C   UNL     1      34.427 -22.605 -18.491  0.00  0.00    +0.039 C 
ATOM      3  C   UNL     1      35.769 -21.915 -18.785  0.00  0.00    -0.017 C 
ATOM      4  C   UNL     1      33.265 -21.676 -18.881  0.00  0.00    -0.017 C 
ATOM      5  C   UNL     1      35.827 -21.407 -20.227  0.00  0.00    -0.077 C 
ATOM      6  C   UNL     1      33.414 -21.176 -20.320  0.00  0.00    -0.077 C 
ATOM      7  H   UNL     1      34.755 -19.721 -19.861  0.00  0.00    -0.080 HD
ENDROOT
BRANCH   2  11
ATOM      8  F   UNL     1      30.629 -24.401 -13.240  0.00  0.00    -0.204 F 
ATOM      9  O   UNL     1      35.006 -23.784 -15.136  0.00  0.00    -0.354 OA
ATOM     10  N   UNL     1      35.440 -23.353 -16.383  0.00  0.00    -0.081 NA
ATOM     11  C   UNL     1      34.324 -23.101 -17.066  0.00  0.00    +0.100 A 
ATOM     12  C   UNL     1      33.159 -23.347 -16.326  0.00  0.00    +0.054 A 
ATOM     13  C   UNL     1      33.645 -23.780 -15.104  0.00  0.00    +0.179 A 
ATOM     14  C   UNL     1      31.772 -23.265 -16.517  0.00  0.00    +0.007 C 
ATOM     15  C   UNL     1      32.843 -24.149 -14.028  0.00  0.00    +0.070 C 
ATOM     16  C   UNL     1      30.934 -23.628 -15.453  0.00  0.00    +0.030 C 
ATOM     17  C   UNL     1      31.463 -24.062 -14.233  0.00  0.00    +0.143 C 
ENDBRANCH   2  11
BRANCH   1  18
ATOM     18  C   UNL     1      34.808 -19.980 -21.879  0.00  0.00    -0.076 C 
BRANCH  18  19
ATOM     19  C   UNL     1      35.548 -18.649 -21.869  0.00  0.00    -0.007 C 
BRANCH  19  23
ATOM     20  O   UNL     1      34.966 -15.970 -21.391  0.00  0.00    -0.274 OA
ATOM     21  N   UNL     1      34.420 -15.471 -23.600  0.00  0.00    -0.235 N 
ATOM     22  N   UNL     1      34.350 -17.217 -25.196  0.00  0.00    -0.397 NA
ATOM     23  C   UNL     1      35.036 -17.745 -22.953  0.00  0.00    +0.123 C 
ATOM     24  C   UNL     1      34.153 -14.074 -23.248  0.00  0.00    +0.100 C 
ATOM     25  C   UNL     1      33.760 -15.010 -25.973  0.00  0.00    +0.177 C 
ATOM     26  C   UNL     1      34.148 -13.120 -24.427  0.00  0.00    +0.025 C 
ATOM     27  C   UNL     1      33.227 -13.674 -25.493  0.00  0.00    +0.040 C 
ATOM     28  C   UNL     1      34.180 -15.974 -24.868  0.00  0.00    +0.192 C 
ATOM     29  C   UNL     1      34.814 -16.318 -22.561  0.00  0.00    +0.237 C 
ATOM     30  C   UNL     1      34.779 -18.092 -24.229  0.00  0.00    +0.097 C 
ATOM     31  C   UNL     1      34.917 -19.503 -24.738  0.00  0.00    +0.062 C 
BRANCH  25  32
ATOM     32  O   UNL     1      32.762 -15.643 -26.762  0.00  0.00    -0.376 OA
ATOM     33  H   UNL     1      33.000 -15.576 -27.699  0.00  0.00    +0.211 HD
ENDBRANCH  25  32
ENDBRANCH  19  23
ENDBRANCH  18  19
ENDBRANCH   1  18
TORSDOF 5
ENDMDL
MODEL 2
REMARK VINA RESULT:     -14.5      3.329     10.467
REMARK  Name = 115237
REMARK  5 active torsions:
REMARK  status: ('A' for Active; 'I' for Inactive)
REMARK    1  A    between atoms: N_1  and  C_18
REMARK    2  A    between atoms: C_2  and  C_11
REMARK    3  A    between atoms: C_18  and  C_19
REMARK    4  A    between atoms: C_19  and  C_23
REMARK    5  A    between atoms: C_25  and  O_32
REMARK                            x       y       z     vdW  Elec       q    Type
REMARK                         _______ _______ _______ _____ _____    ______ ____
ROOT
ATOM      1  N   UNL     1      35.962 -19.716 -20.445  0.00  0.00    +0.387 N 
ATOM      2  C   UNL     1      35.450 -18.689 -23.145  0.00  0.00    +0.039 C 
ATOM      3  C   UNL     1      34.326 -19.204 -22.231  0.00  0.00    -0.017 C 
ATOM      4  C   UNL     1      36.640 -18.216 -22.293  0.00  0.00    -0.017 C 
ATOM      5  C   UNL     1      34.849 -20.250 -21.243  0.00  0.00    -0.077 C 
ATOM      6  C   UNL     1      37.079 -19.297 -21.303  0.00  0.00    -0.077 C 
ATOM      7  H   UNL     1      35.624 -18.893 -19.945  0.00  0.00    -0.080 HD
ENDROOT
BRANCH   2  11
ATOM      8  F   UNL     1      33.565 -12.350 -24.362  0.00  0.00    -0.204 F 
ATOM      9  O   UNL     1      34.364 -16.797 -26.012  0.00  0.00    -0.354 OA
ATOM     10  N   UNL     1      34.794 -17.967 -25.397  0.00  0.00    -0.081 NA
ATOM     11  C   UNL     1      34.974 -17.636 -24.119  0.00  0.00    +0.100 A 
ATOM     12  C   UNL     1      34.683 -16.291 -23.853  0.00  0.00    +0.054 A 
ATOM     13  C   UNL     1      34.299 -15.798 -25.089  0.00  0.00    +0.179 A 
ATOM     14  C   UNL     1      34.691 -15.427 -22.748  0.00  0.00    +0.007 C 
ATOM     15  C   UNL     1      33.913 -14.482 -25.323  0.00  0.00    +0.070 C 
ATOM     16  C   UNL     1      34.306 -14.093 -22.948  0.00  0.00    +0.030 C 
ATOM     17  C   UNL     1      33.926 -13.633 -24.212  0.00  0.00    +0.143 C 
ENDBRANCH   2  11
BRANCH   1  18
ATOM     18  C   UNL     1      36.411 -20.707 -19.468  0.00  0.00    -0.076 C 
BRANCH  18  19
ATOM     19  C   UNL     1      35.609 -21.991 -19.626  0.00  0.00    -0.007 C 
BRANCH  19  23
ATOM     20  O   UNL     1      32.867 -22.314 -19.276  0.00  0.00    -0.274 OA
ATOM     21  N   UNL     1      33.019 -23.085 -17.082  0.00  0.00    -0.235 N 
ATOM     22  N   UNL     1      35.128 -23.107 -16.010  0.00  0.00    -0.397 NA
ATOM     23  C   UNL     1      35.024 -22.422 -18.312  0.00  0.00    +0.123 C 
ATOM     24  C   UNL     1      31.564 -23.235 -17.004  0.00  0.00    +0.100 C 
ATOM     25  C   UNL     1      33.234 -23.825 -14.698  0.00  0.00    +0.177 C 
ATOM     26  C   UNL     1      31.085 -24.135 -15.882  0.00  0.00    +0.025 C 
ATOM     27  C   UNL     1      31.729 -23.680 -14.590  0.00  0.00    +0.040 C 
ATOM     28  C   UNL     1      33.844 -23.288 -15.989  0.00  0.00    +0.192 C 
ATOM     29  C   UNL     1      33.539 -22.602 -18.286  0.00  0.00    +0.237 C 
ATOM     30  C   UNL     1      35.706 -22.674 -17.178  0.00  0.00    +0.097 C 
ATOM     31  C   UNL     1      37.195 -22.488 -17.059  0.00  0.00    +0.062 C 
BRANCH  25  32
ATOM     32  O   UNL     1      33.839 -23.149 -13.604  0.00  0.00    -0.376 OA
ATOM     33  H   UNL     1      33.339 -23.334 -12.794  0.00  0.00    +0.211 HD
ENDBRANCH  25  32
ENDBRANCH  19  23
ENDBRANCH  18  19
ENDBRANCH   1  18
TORSDOF 5
ENDMDL
MODEL 3
REMARK VINA RESULT:     -14.4      1.380      1.725
REMARK  Name = 115237
REMARK  5 active torsions:
REMARK  status: ('A' for Active; 'I' for Inactive)
REMARK    1  A    between atoms: N_1  and  C_18
REMARK    2  A    between atoms: C_2  and  C_11
REMARK    3  A    between atoms: C_18  and  C_19
REMARK    4  A    between atoms: C_19  and  C_23
REMARK    5  A    between atoms: C_25  and  O_32
REMARK                            x       y       z     vdW  Elec       q    Type
REMARK                         _______ _______ _______ _____ _____    ______ ____
ROOT
ATOM      1  N   UNL     1      35.052 -20.162 -20.575  0.00  0.00    +0.387 N 
ATOM      2  C   UNL     1      33.757 -22.271 -19.001  0.00  0.00    +0.039 C 
ATOM      3  C   UNL     1      35.234 -21.890 -18.813  0.00  0.00    -0.017 C 
ATOM      4  C   UNL     1      32.979 -21.076 -19.579  0.00  0.00    -0.017 C 
ATOM      5  C   UNL     1      35.828 -21.317 -20.101  0.00  0.00    -0.077 C 
ATOM      6  C   UNL     1      33.655 -20.533 -20.840  0.00  0.00    -0.077 C 
ATOM      7  H   UNL     1      35.056 -19.457 -19.838  0.00  0.00    -0.080 HD
ENDROOT
BRANCH   2  11
ATOM      8  F   UNL     1      34.453 -24.745 -12.786  0.00  0.00    -0.204 F 
ATOM      9  O   UNL     1      31.558 -23.454 -16.404  0.00  0.00    -0.354 OA
ATOM     10  N   UNL     1      31.804 -22.928 -17.666  0.00  0.00    -0.081 NA
ATOM     11  C   UNL     1      33.129 -22.820 -17.739  0.00  0.00    +0.100 A 
ATOM     12  C   UNL     1      33.782 -23.253 -16.576  0.00  0.00    +0.054 A 
ATOM     13  C   UNL     1      32.739 -23.647 -15.755  0.00  0.00    +0.179 A 
ATOM     14  C   UNL     1      35.099 -23.365 -16.106  0.00  0.00    +0.007 C 
ATOM     15  C   UNL     1      32.902 -24.156 -14.470  0.00  0.00    +0.070 C 
ATOM     16  C   UNL     1      35.300 -23.876 -14.816  0.00  0.00    +0.030 C 
ATOM     17  C   UNL     1      34.220 -24.262 -14.015  0.00  0.00    +0.143 C 
ENDBRANCH   2  11
BRANCH   1  18
ATOM     18  C   UNL     1      35.666 -19.592 -21.774  0.00  0.00    -0.076 C 
BRANCH  18  19
ATOM     19  C   UNL     1      35.790 -18.082 -21.624  0.00  0.00    -0.007 C 
BRANCH  19  23
ATOM     20  O   UNL     1      35.040 -15.405 -21.492  0.00  0.00    -0.274 OA
ATOM     21  N   UNL     1      34.363 -15.261 -23.717  0.00  0.00    -0.235 N 
ATOM     22  N   UNL     1      34.348 -17.217 -25.048  0.00  0.00    -0.397 NA
ATOM     23  C   UNL     1      35.167 -17.375 -22.794  0.00  0.00    +0.123 C 
ATOM     24  C   UNL     1      34.014 -13.848 -23.548  0.00  0.00    +0.100 C 
ATOM     25  C   UNL     1      33.568 -15.186 -26.092  0.00  0.00    +0.177 C 
ATOM     26  C   UNL     1      33.888 -13.074 -24.846  0.00  0.00    +0.025 C 
ATOM     27  C   UNL     1      32.964 -13.832 -25.774  0.00  0.00    +0.040 C 
ATOM     28  C   UNL     1      34.104 -15.953 -24.888  0.00  0.00    +0.192 C 
ATOM     29  C   UNL     1      34.862 -15.925 -22.593  0.00  0.00    +0.237 C 
ATOM     30  C   UNL     1      34.880 -17.917 -23.994  0.00  0.00    +0.097 C 
ATOM     31  C   UNL     1      35.096 -19.373 -24.308  0.00  0.00    +0.062 C 
BRANCH  25  32
ATOM     32  O   UNL     1      32.584 -15.987 -26.730  0.00  0.00    -0.376 OA
ATOM     33  H   UNL     1      32.889 -16.228 -27.618  0.00  0.00    +0.211 HD
ENDBRANCH  25  32
ENDBRANCH  19  23
ENDBRANCH  18  19
ENDBRANCH   1  18
TORSDOF 5
ENDMDL
MODEL 4
REMARK VINA RESULT:     -14.3      1.331      2.078
REMARK  Name = 115237
REMARK  5 active torsions:
REMARK  status: ('A' for Active; 'I' for Inactive)
REMARK    1  A    between atoms: N_1  and  C_18
REMARK    2  A    between atoms: C_2  and  C_11
REMARK    3  A    between atoms: C_18  and  C_19
REMARK    4  A    between atoms: C_19  and  C_23
REMARK    5  A    between atoms: C_25  and  O_32
REMARK                            x       y       z     vdW  Elec       q    Type
REMARK                         _______ _______ _______ _____ _____    ______ ____
ROOT
ATOM      1  N   UNL     1      34.310 -19.967 -21.004  0.00  0.00    +0.387 N 
ATOM      2  C   UNL     1      34.307 -22.192 -19.093  0.00  0.00    +0.039 C 
ATOM      3  C   UNL     1      35.588 -21.432 -19.472  0.00  0.00    -0.017 C 
ATOM      4  C   UNL     1      33.080 -21.291 -19.312  0.00  0.00    -0.017 C 
ATOM      5  C   UNL     1      35.486 -20.840 -20.880  0.00  0.00    -0.077 C 
ATOM      6  C   UNL     1      33.069 -20.704 -20.726  0.00  0.00    -0.077 C 
ATOM      7  H   UNL     1      34.396 -19.223 -20.311  0.00  0.00    -0.080 HD
ENDROOT
BRANCH   2  11
ATOM      8  F   UNL     1      31.112 -24.555 -13.667  0.00  0.00    -0.204 F 
ATOM      9  O   UNL     1      35.255 -23.507 -15.875  0.00  0.00    -0.354 OA
ATOM     10  N   UNL     1      35.548 -22.977 -17.125  0.00  0.00    -0.081 NA
ATOM     11  C   UNL     1      34.363 -22.772 -17.698  0.00  0.00    +0.100 A 
ATOM     12  C   UNL     1      33.287 -23.145 -16.880  0.00  0.00    +0.054 A 
ATOM     13  C   UNL     1      33.905 -23.607 -15.731  0.00  0.00    +0.179 A 
ATOM     14  C   UNL     1      31.885 -23.157 -16.952  0.00  0.00    +0.007 C 
ATOM     15  C   UNL     1      33.227 -24.094 -14.618  0.00  0.00    +0.070 C 
ATOM     16  C   UNL     1      31.171 -23.640 -15.847  0.00  0.00    +0.030 C 
ATOM     17  C   UNL     1      31.832 -24.100 -14.703  0.00  0.00    +0.143 C 
ENDBRANCH   2  11
BRANCH   1  18
ATOM     18  C   UNL     1      34.259 -19.364 -22.336  0.00  0.00    -0.076 C 
BRANCH  18  19
ATOM     19  C   UNL     1      35.440 -18.422 -22.524  0.00  0.00    -0.007 C 
BRANCH  19  23
ATOM     20  O   UNL     1      34.986 -17.762 -25.189  0.00  0.00    -0.274 OA
ATOM     21  N   UNL     1      34.209 -15.610 -24.747  0.00  0.00    -0.235 N 
ATOM     22  N   UNL     1      34.280 -14.788 -22.529  0.00  0.00    -0.397 NA
ATOM     23  C   UNL     1      34.974 -17.055 -22.932  0.00  0.00    +0.123 C 
ATOM     24  C   UNL     1      33.990 -15.366 -26.175  0.00  0.00    +0.100 C 
ATOM     25  C   UNL     1      33.465 -13.275 -24.223  0.00  0.00    +0.177 C 
ATOM     26  C   UNL     1      33.062 -14.206 -26.478  0.00  0.00    +0.025 C 
ATOM     27  C   UNL     1      33.539 -12.992 -25.711  0.00  0.00    +0.040 C 
ATOM     28  C   UNL     1      34.038 -14.621 -23.792  0.00  0.00    +0.192 C 
ATOM     29  C   UNL     1      34.724 -16.860 -24.394  0.00  0.00    +0.237 C 
ATOM     30  C   UNL     1      34.747 -16.010 -22.112  0.00  0.00    +0.097 C 
ATOM     31  C   UNL     1      35.002 -16.062 -20.629  0.00  0.00    +0.062 C 
BRANCH  25  32
ATOM     32  O   UNL     1      34.162 -12.250 -23.528  0.00  0.00    -0.376 OA
ATOM     33  H   UNL     1      34.742 -11.778 -24.144  0.00  0.00    +0.211 HD
ENDBRANCH  25  32
ENDBRANCH  19  23
ENDBRANCH  18  19
ENDBRANCH   1  18
TORSDOF 5
ENDMDL
MODEL 5
REMARK VINA RESULT:     -14.0      3.948     11.038
REMARK  Name = 115237
REMARK  5 active torsions:
REMARK  status: ('A' for Active; 'I' for Inactive)
REMARK    1  A    between atoms: N_1  and  C_18
REMARK    2  A    between atoms: C_2  and  C_11
REMARK    3  A    between atoms: C_18  and  C_19
REMARK    4  A    between atoms: C_19  and  C_23
REMARK    5  A    between atoms: C_25  and  O_32
REMARK                            x       y       z     vdW  Elec       q    Type
REMARK                         _______ _______ _______ _____ _____    ______ ____
ROOT
ATOM      1  N   UNL     1      34.634 -22.159 -19.445  0.00  0.00    +0.387 N 
ATOM      2  C   UNL     1      34.828 -19.605 -20.875  0.00  0.00    +0.039 C 
ATOM      3  C   UNL     1      36.038 -20.532 -20.673  0.00  0.00    -0.017 C 
ATOM      4  C   UNL     1      33.528 -20.425 -20.821  0.00  0.00    -0.017 C 
ATOM      5  C   UNL     1      35.881 -21.382 -19.410  0.00  0.00    -0.077 C 
ATOM      6  C   UNL     1      33.462 -21.279 -19.553  0.00  0.00    -0.077 C 
ATOM      7  H   UNL     1      34.657 -22.754 -20.273  0.00  0.00    -0.080 HD
ENDROOT
BRANCH   2  11
ATOM      8  F   UNL     1      34.749 -13.562 -23.824  0.00  0.00    -0.204 F 
ATOM      9  O   UNL     1      35.206 -18.334 -24.224  0.00  0.00    -0.354 OA
ATOM     10  N   UNL     1      35.159 -19.365 -23.295  0.00  0.00    -0.081 NA
ATOM     11  C   UNL     1      34.938 -18.766 -22.127  0.00  0.00    +0.100 A 
ATOM     12  C   UNL     1      34.836 -17.371 -22.236  0.00  0.00    +0.054 A 
ATOM     13  C   UNL     1      35.014 -17.144 -23.590  0.00  0.00    +0.179 A 
ATOM     14  C   UNL     1      34.621 -16.277 -21.384  0.00  0.00    +0.007 C 
ATOM     15  C   UNL     1      34.996 -15.885 -24.183  0.00  0.00    +0.070 C 
ATOM     16  C   UNL     1      34.595 -14.994 -21.948  0.00  0.00    +0.030 C 
ATOM     17  C   UNL     1      34.780 -14.805 -23.322  0.00  0.00    +0.143 C 
ENDBRANCH   2  11
BRANCH   1  18
ATOM     18  C   UNL     1      34.528 -23.009 -18.259  0.00  0.00    -0.076 C 
BRANCH  18  19
ATOM     19  C   UNL     1      35.074 -22.272 -17.043  0.00  0.00    -0.007 C 
BRANCH  19  23
ATOM     20  O   UNL     1      37.816 -22.705 -16.846  0.00  0.00    -0.274 OA
ATOM     21  N   UNL     1      37.673 -24.165 -15.036  0.00  0.00    -0.235 N 
ATOM     22  N   UNL     1      35.541 -24.838 -14.259  0.00  0.00    -0.397 NA
ATOM     23  C   UNL     1      35.653 -23.236 -16.049  0.00  0.00    +0.123 C 
ATOM     24  C   UNL     1      39.130 -24.314 -15.005  0.00  0.00    +0.100 C 
ATOM     25  C   UNL     1      37.456 -25.797 -13.146  0.00  0.00    +0.177 C 
ATOM     26  C   UNL     1      39.677 -24.864 -13.702  0.00  0.00    +0.025 C 
ATOM     27  C   UNL     1      38.920 -26.127 -13.355  0.00  0.00    +0.040 C 
ATOM     28  C   UNL     1      36.836 -24.903 -14.216  0.00  0.00    +0.192 C 
ATOM     29  C   UNL     1      37.146 -23.329 -16.023  0.00  0.00    +0.237 C 
ATOM     30  C   UNL     1      34.962 -24.000 -15.180  0.00  0.00    +0.097 C 
ATOM     31  C   UNL     1      33.458 -24.033 -15.136  0.00  0.00    +0.062 C 
BRANCH  25  32
ATOM     32  O   UNL     1      36.716 -27.008 -13.093  0.00  0.00    -0.376 OA
ATOM     33  H   UNL     1      36.133 -26.998 -12.318  0.00  0.00    +0.211 HD
ENDBRANCH  25  32
ENDBRANCH  19  23
ENDBRANCH  18  19
ENDBRANCH   1  18
TORSDOF 5
ENDMDL
MODEL 6
REMARK VINA RESULT:     -13.9      3.692      6.421
REMARK  Name = 115237
REMARK  5 active torsions:
REMARK  status: ('A' for Active; 'I' for Inactive)
REMARK    1  A    between atoms: N_1  and  C_18
REMARK    2  A    between atoms: C_2  and  C_11
REMARK    3  A    between atoms: C_18  and  C_19
REMARK    4  A    between atoms: C_19  and  C_23
REMARK    5  A    between atoms: C_25  and  O_32
REMARK                            x       y       z     vdW  Elec       q    Type
REMARK                         _______ _______ _______ _____ _____    ______ ____
ROOT
ATOM      1  N   UNL     1      34.353 -15.596 -23.100  0.00  0.00    +0.387 N 
ATOM      2  C   UNL     1      35.967 -17.693 -21.835  0.00  0.00    +0.039 C 
ATOM      3  C   UNL     1      35.127 -16.695 -21.022  0.00  0.00    -0.017 C 
ATOM      4  C   UNL     1      35.375 -17.844 -23.247  0.00  0.00    -0.017 C 
ATOM      5  C   UNL     1      34.951 -15.375 -21.776  0.00  0.00    -0.077 C 
ATOM      6  C   UNL     1      35.190 -16.483 -23.920  0.00  0.00    -0.077 C 
ATOM      7  H   UNL     1      33.450 -16.052 -22.965  0.00  0.00    -0.080 HD
ENDROOT
BRANCH   2  11
ATOM      8  F   UNL     1      33.255 -23.193 -19.075  0.00  0.00    -0.204 F 
ATOM      9  O   UNL     1      37.188 -20.671 -20.217  0.00  0.00    -0.354 OA
ATOM     10  N   UNL     1      37.372 -19.448 -20.851  0.00  0.00    -0.081 NA
ATOM     11  C   UNL     1      36.143 -19.019 -21.131  0.00  0.00    +0.100 A 
ATOM     12  C   UNL     1      35.142 -19.906 -20.710  0.00  0.00    +0.054 A 
ATOM     13  C   UNL     1      35.856 -20.942 -20.135  0.00  0.00    +0.179 A 
ATOM     14  C   UNL     1      33.741 -19.977 -20.737  0.00  0.00    +0.007 C 
ATOM     15  C   UNL     1      35.278 -22.075 -19.569  0.00  0.00    +0.070 C 
ATOM     16  C   UNL     1      33.124 -21.104 -20.174  0.00  0.00    +0.030 C 
ATOM     17  C   UNL     1      33.881 -22.132 -19.602  0.00  0.00    +0.143 C 
ENDBRANCH   2  11
BRANCH   1  18
ATOM     18  C   UNL     1      34.137 -14.320 -23.783  0.00  0.00    -0.076 C 
BRANCH  18  19
ATOM     19  C   UNL     1      32.679 -13.902 -23.653  0.00  0.00    -0.007 C 
BRANCH  19  23
ATOM     20  O   UNL     1      32.971 -11.238 -24.403  0.00  0.00    -0.274 OA
ATOM     21  N   UNL     1      32.439 -10.366 -22.308  0.00  0.00    -0.235 N 
ATOM     22  N   UNL     1      32.104 -11.845 -20.492  0.00  0.00    -0.397 NA
ATOM     23  C   UNL     1      32.530 -12.781 -22.665  0.00  0.00    +0.123 C 
ATOM     24  C   UNL     1      32.601  -8.997 -22.806  0.00  0.00    +0.100 C 
ATOM     25  C   UNL     1      31.945  -9.485 -20.015  0.00  0.00    +0.177 C 
ATOM     26  C   UNL     1      31.952  -7.934 -21.941  0.00  0.00    +0.025 C 
ATOM     27  C   UNL     1      32.409  -8.129 -20.511  0.00  0.00    +0.040 C 
ATOM     28  C   UNL     1      32.195 -10.644 -20.974  0.00  0.00    +0.192 C 
ATOM     29  C   UNL     1      32.665 -11.399 -23.222  0.00  0.00    +0.237 C 
ATOM     30  C   UNL     1      32.273 -12.905 -21.348  0.00  0.00    +0.097 C 
ATOM     31  C   UNL     1      32.161 -14.238 -20.658  0.00  0.00    +0.062 C 
BRANCH  25  32
ATOM     32  O   UNL     1      32.601  -9.771 -18.788  0.00  0.00    -0.376 OA
ATOM     33  H   UNL     1      32.640 -10.731 -18.659  0.00  0.00    +0.211 HD
ENDBRANCH  25  32
ENDBRANCH  19  23
ENDBRANCH  18  19
ENDBRANCH   1  18
TORSDOF 5
ENDMDL
MODEL 7
REMARK VINA RESULT:     -13.8      3.571     10.972
REMARK  Name = 115237
REMARK  5 active torsions:
REMARK  status: ('A' for Active; 'I' for Inactive)
REMARK    1  A    between atoms: N_1  and  C_18
REMARK    2  A    between atoms: C_2  and  C_11
REMARK    3  A    between atoms: C_18  and  C_19
REMARK    4  A    between atoms: C_19  and  C_23
REMARK    5  A    between atoms: C_25  and  O_32
REMARK                            x       y       z     vdW  Elec       q    Type
REMARK                         _______ _______ _______ _____ _____    ______ ____
ROOT
ATOM      1  N   UNL     1      34.398 -22.055 -18.779  0.00  0.00    +0.387 N 
ATOM      2  C   UNL     1      34.871 -20.192 -20.995  0.00  0.00    +0.039 C 
ATOM      3  C   UNL     1      33.500 -20.335 -20.315  0.00  0.00    -0.017 C 
ATOM      4  C   UNL     1      35.983 -20.617 -20.021  0.00  0.00    -0.017 C 
ATOM      5  C   UNL     1      33.317 -21.733 -19.722  0.00  0.00    -0.077 C 
ATOM      6  C   UNL     1      35.710 -22.005 -19.439  0.00  0.00    -0.077 C 
ATOM      7  H   UNL     1      34.391 -21.351 -18.040  0.00  0.00    -0.080 HD
ENDROOT
BRANCH   2  11
ATOM      8  F   UNL     1      34.529 -15.978 -26.225  0.00  0.00    -0.204 F 
ATOM      9  O   UNL     1      35.679 -16.737 -21.616  0.00  0.00    -0.354 OA
ATOM     10  N   UNL     1      35.600 -17.857 -20.798  0.00  0.00    -0.081 NA
ATOM     11  C   UNL     1      35.096 -18.814 -21.574  0.00  0.00    +0.100 A 
ATOM     12  C   UNL     1      34.834 -18.380 -22.882  0.00  0.00    +0.054 A 
ATOM     13  C   UNL     1      35.221 -17.051 -22.859  0.00  0.00    +0.179 A 
ATOM     14  C   UNL     1      34.325 -18.922 -24.072  0.00  0.00    +0.007 C 
ATOM     15  C   UNL     1      35.142 -16.193 -23.952  0.00  0.00    +0.070 C 
ATOM     16  C   UNL     1      34.233 -18.085 -25.193  0.00  0.00    +0.030 C 
ATOM     17  C   UNL     1      34.634 -16.746 -25.131  0.00  0.00    +0.143 C 
ENDBRANCH   2  11
BRANCH   1  18
ATOM     18  C   UNL     1      34.178 -23.370 -18.178  0.00  0.00    -0.076 C 
BRANCH  18  19
ATOM     19  C   UNL     1      33.125 -23.269 -17.082  0.00  0.00    -0.007 C 
BRANCH  19  23
ATOM     20  O   UNL     1      35.856 -23.019 -16.605  0.00  0.00    -0.274 OA
ATOM     21  N   UNL     1      35.725 -23.531 -14.336  0.00  0.00    -0.235 N 
ATOM     22  N   UNL     1      33.648 -24.201 -13.421  0.00  0.00    -0.397 NA
ATOM     23  C   UNL     1      33.724 -23.562 -15.737  0.00  0.00    +0.123 C 
ATOM     24  C   UNL     1      37.172 -23.360 -14.185  0.00  0.00    +0.100 C 
ATOM     25  C   UNL     1      35.539 -24.174 -11.921  0.00  0.00    +0.177 C 
ATOM     26  C   UNL     1      37.635 -23.161 -12.755  0.00  0.00    +0.025 C 
ATOM     27  C   UNL     1      37.052 -24.266 -11.900  0.00  0.00    +0.040 C 
ATOM     28  C   UNL     1      34.921 -23.984 -13.302  0.00  0.00    +0.192 C 
ATOM     29  C   UNL     1      35.198 -23.337 -15.615  0.00  0.00    +0.237 C 
ATOM     30  C   UNL     1      33.061 -23.987 -14.643  0.00  0.00    +0.097 C 
ATOM     31  C   UNL     1      31.587 -24.294 -14.646  0.00  0.00    +0.062 C 
BRANCH  25  32
ATOM     32  O   UNL     1      35.001 -25.359 -11.351  0.00  0.00    -0.376 OA
ATOM     33  H   UNL     1      34.928 -25.252 -10.390  0.00  0.00    +0.211 HD
ENDBRANCH  25  32
ENDBRANCH  19  23
ENDBRANCH  18  19
ENDBRANCH   1  18
TORSDOF 5
ENDMDL
MODEL 8
REMARK VINA RESULT:     -13.8      2.303      3.171
REMARK  Name = 115237
REMARK  5 active torsions:
REMARK  status: ('A' for Active; 'I' for Inactive)
REMARK    1  A    between atoms: N_1  and  C_18
REMARK    2  A    between atoms: C_2  and  C_11
REMARK    3  A    between atoms: C_18  and  C_19
REMARK    4  A    between atoms: C_19  and  C_23
REMARK    5  A    between atoms: C_25  and  O_32
REMARK                            x       y       z     vdW  Elec       q    Type
REMARK                         _______ _______ _______ _____ _____    ______ ____
ROOT
ATOM      1  N   UNL     1      34.288 -19.892 -21.092  0.00  0.00    +0.387 N 
ATOM      2  C   UNL     1      34.312 -22.121 -19.186  0.00  0.00    +0.039 C 
ATOM      3  C   UNL     1      35.573 -21.309 -19.522  0.00  0.00    -0.017 C 
ATOM      4  C   UNL     1      33.058 -21.268 -19.444  0.00  0.00    -0.017 C 
ATOM      5  C   UNL     1      35.494 -20.718 -20.931  0.00  0.00    -0.077 C 
ATOM      6  C   UNL     1      33.070 -20.678 -20.856  0.00  0.00    -0.077 C 
ATOM      7  H   UNL     1      34.322 -19.147 -20.395  0.00  0.00    -0.080 HD
ENDROOT
BRANCH   2  11
ATOM      8  F   UNL     1      37.738 -23.511 -13.569  0.00  0.00    -0.204 F 
ATOM      9  O   UNL     1      33.598 -23.669 -16.012  0.00  0.00    -0.354 OA
ATOM     10  N   UNL     1      33.236 -23.236 -17.282  0.00  0.00    -0.081 NA
ATOM     11  C   UNL     1      34.345 -22.703 -17.791  0.00  0.00    +0.100 A 
ATOM     12  C   UNL     1      35.436 -22.761 -16.912  0.00  0.00    +0.054 A 
ATOM     13  C   UNL     1      34.911 -23.385 -15.794  0.00  0.00    +0.179 A 
ATOM     14  C   UNL     1      36.786 -22.376 -16.907  0.00  0.00    +0.007 C 
ATOM     15  C   UNL     1      35.635 -23.663 -14.639  0.00  0.00    +0.070 C 
ATOM     16  C   UNL     1      37.545 -22.642 -15.759  0.00  0.00    +0.030 C 
ATOM     17  C   UNL     1      36.978 -23.274 -14.648  0.00  0.00    +0.143 C 
ENDBRANCH   2  11
BRANCH   1  18
ATOM     18  C   UNL     1      34.258 -19.288 -22.424  0.00  0.00    -0.076 C 
BRANCH  18  19
ATOM     19  C   UNL     1      35.438 -18.341 -22.591  0.00  0.00    -0.007 C 
BRANCH  19  23
ATOM     20  O   UNL     1      34.965 -17.670 -25.250  0.00  0.00    -0.274 OA
ATOM     21  N   UNL     1      34.199 -15.517 -24.795  0.00  0.00    -0.235 N 
ATOM     22  N   UNL     1      34.290 -14.704 -22.575  0.00  0.00    -0.397 NA
ATOM     23  C   UNL     1      34.973 -16.971 -22.991  0.00  0.00    +0.123 C 
ATOM     24  C   UNL     1      33.969 -15.268 -26.220  0.00  0.00    +0.100 C 
ATOM     25  C   UNL     1      33.466 -13.182 -24.257  0.00  0.00    +0.177 C 
ATOM     26  C   UNL     1      33.041 -14.104 -26.512  0.00  0.00    +0.025 C 
ATOM     27  C   UNL     1      33.528 -12.894 -25.744  0.00  0.00    +0.040 C 
ATOM     28  C   UNL     1      34.038 -14.531 -23.835  0.00  0.00    +0.192 C 
ATOM     29  C   UNL     1      34.712 -16.770 -24.450  0.00  0.00    +0.237 C 
ATOM     30  C   UNL     1      34.757 -15.928 -22.165  0.00  0.00    +0.097 C 
ATOM     31  C   UNL     1      35.024 -15.987 -20.685  0.00  0.00    +0.062 C 
BRANCH  25  32
ATOM     32  O   UNL     1      34.171 -12.162 -23.563  0.00  0.00    -0.376 OA
ATOM     33  H   UNL     1      35.105 -12.181 -23.823  0.00  0.00    +0.211 HD
ENDBRANCH  25  32
ENDBRANCH  19  23
ENDBRANCH  18  19
ENDBRANCH   1  18
TORSDOF 5
ENDMDL
MODEL 9
REMARK VINA RESULT:     -13.8      3.016      5.231
REMARK  Name = 115237
REMARK  5 active torsions:
REMARK  status: ('A' for Active; 'I' for Inactive)
REMARK    1  A    between atoms: N_1  and  C_18
REMARK    2  A    between atoms: C_2  and  C_11
REMARK    3  A    between atoms: C_18  and  C_19
REMARK    4  A    between atoms: C_19  and  C_23
REMARK    5  A    between atoms: C_25  and  O_32
REMARK                            x       y       z     vdW  Elec       q    Type
REMARK                         _______ _______ _______ _____ _____    ______ ____
ROOT
ATOM      1  N   UNL     1      35.450 -16.466 -23.425  0.00  0.00    +0.387 N 
ATOM      2  C   UNL     1      34.946 -18.743 -21.646  0.00  0.00    +0.039 C 
ATOM      3  C   UNL     1      35.426 -18.919 -23.096  0.00  0.00    -0.017 C 
ATOM      4  C   UNL     1      35.370 -17.361 -21.120  0.00  0.00    -0.017 C 
ATOM      5  C   UNL     1      34.982 -17.747 -23.974  0.00  0.00    -0.077 C 
ATOM      6  C   UNL     1      34.928 -16.246 -22.069  0.00  0.00    -0.077 C 
ATOM      7  H   UNL     1      36.468 -16.502 -23.369  0.00  0.00    -0.080 HD
ENDROOT
BRANCH   2  11
ATOM      8  F   UNL     1      33.369 -23.863 -17.581  0.00  0.00    -0.204 F 
ATOM      9  O   UNL     1      36.752 -21.177 -19.699  0.00  0.00    -0.354 OA
ATOM     10  N   UNL     1      36.688 -20.092 -20.563  0.00  0.00    -0.081 NA
ATOM     11  C   UNL     1      35.387 -19.873 -20.743  0.00  0.00    +0.100 A 
ATOM     12  C   UNL     1      34.575 -20.769 -20.033  0.00  0.00    +0.054 A 
ATOM     13  C   UNL     1      35.490 -21.580 -19.384  0.00  0.00    +0.179 A 
ATOM     14  C   UNL     1      33.204 -21.006 -19.851  0.00  0.00    +0.007 C 
ATOM     15  C   UNL     1      35.145 -22.637 -18.546  0.00  0.00    +0.070 C 
ATOM     16  C   UNL     1      32.821 -22.063 -19.013  0.00  0.00    +0.030 C 
ATOM     17  C   UNL     1      33.776 -22.861 -18.374  0.00  0.00    +0.143 C 
ENDBRANCH   2  11
BRANCH   1  18
ATOM     18  C   UNL     1      35.067 -15.363 -24.306  0.00  0.00    -0.076 C 
BRANCH  18  19
ATOM     19  C   UNL     1      33.571 -15.104 -24.192  0.00  0.00    -0.007 C 
BRANCH  19  23
ATOM     20  O   UNL     1      32.272 -14.407 -21.831  0.00  0.00    -0.274 OA
ATOM     21  N   UNL     1      32.473 -12.107 -22.146  0.00  0.00    -0.235 N 
ATOM     22  N   UNL     1      33.383 -11.294 -24.174  0.00  0.00    -0.397 NA
ATOM     23  C   UNL     1      33.301 -13.672 -23.830  0.00  0.00    +0.123 C 
ATOM     24  C   UNL     1      31.791 -11.845 -20.876  0.00  0.00    +0.100 C 
ATOM     25  C   UNL     1      32.640  -9.644 -22.577  0.00  0.00    +0.177 C 
ATOM     26  C   UNL     1      32.004 -10.448 -20.327  0.00  0.00    +0.025 C 
ATOM     27  C   UNL     1      31.685  -9.447 -21.416  0.00  0.00    +0.040 C 
ATOM     28  C   UNL     1      32.832 -11.092 -23.017  0.00  0.00    +0.192 C 
ATOM     29  C   UNL     1      32.639 -13.447 -22.507  0.00  0.00    +0.237 C 
ATOM     30  C   UNL     1      33.613 -12.589 -24.568  0.00  0.00    +0.097 C 
ATOM     31  C   UNL     1      34.239 -12.681 -25.935  0.00  0.00    +0.062 C 
BRANCH  25  32
ATOM     32  O   UNL     1      32.167  -8.898 -23.690  0.00  0.00    -0.376 OA
ATOM     33  H   UNL     1      31.796  -8.058 -23.381  0.00  0.00    +0.211 HD
ENDBRANCH  25  32
ENDBRANCH  19  23
ENDBRANCH  18  19
ENDBRANCH   1  18
TORSDOF 5
ENDMDL
