MODEL 1
REMARK VINA RESULT:     -12.7      0.000      0.000
REMARK  Name = 4565
REMARK  4 active torsions:
REMARK  status: ('A' for Active; 'I' for Inactive)
REMARK    1  A    between atoms: N_5  and  C_15
REMARK    2  A    between atoms: C_6  and  O_21
REMARK    3  A    between atoms: O_21  and  C_22
REMARK    4  A    between atoms: C_22  and  C_23
REMARK                            x       y       z     vdW  Elec       q    Type
REMARK                         _______ _______ _______ _____ _____    ______ ____
ROOT
ATOM      1  N   UNL     1      34.481 -15.799 -23.397  0.00  0.00    -0.293 NA
ATOM      2  N   UNL     1      33.284 -13.040 -25.515  0.00  0.00    -0.266 NA
ATOM      3  N   UNL     1      34.438 -16.317 -25.782  0.00  0.00    -0.316 NA
ATOM      4  N   UNL     1      33.644 -14.487 -27.171  0.00  0.00    -0.296 N 
ATOM      5  N   UNL     1      35.156 -17.890 -24.206  0.00  0.00    -0.238 N 
ATOM      6  C   UNL     1      34.011 -14.552 -23.617  0.00  0.00    +0.288 C 
ATOM      7  C   UNL     1      33.750 -14.177 -24.919  0.00  0.00    +0.215 C 
ATOM      8  C   UNL     1      33.967 -15.061 -25.968  0.00  0.00    +0.196 C 
ATOM      9  C   UNL     1      34.663 -16.594 -24.479  0.00  0.00    +0.207 C 
ATOM     10  C   UNL     1      33.238 -13.274 -26.864  0.00  0.00    +0.164 C 
ATOM     11  H   UNL     1      33.027 -12.206 -25.059  0.00  0.00    +0.126 HD
ATOM     12  H   UNL     1      33.704 -14.893 -28.066  0.00  0.00    +0.150 HD
ATOM     13  H   UNL     1      35.279 -18.446 -25.010  0.00  0.00    +0.166 HD
ENDROOT
BRANCH   5  15
ATOM     14 CL   UNL     1      33.722 -20.857 -20.273  0.00  0.00    -0.082 Cl
ATOM     15  C   UNL     1      35.505 -18.542 -23.010  0.00  0.00    +0.059 C 
ATOM     16  C   UNL     1      34.552 -19.290 -22.314  0.00  0.00    +0.027 C 
ATOM     17  C   UNL     1      36.807 -18.446 -22.512  0.00  0.00    +0.015 C 
ATOM     18  C   UNL     1      34.899 -19.937 -21.128  0.00  0.00    +0.059 C 
ATOM     19  C   UNL     1      37.154 -19.093 -21.326  0.00  0.00    +0.002 C 
ATOM     20  C   UNL     1      36.199 -19.839 -20.634  0.00  0.00    +0.011 C 
ENDBRANCH   5  15
BRANCH   6  21
ATOM     21  O   UNL     1      33.814 -13.719 -22.542  0.00  0.00    -0.453 OA
BRANCH  21  22
ATOM     22  C   UNL     1      32.629 -13.907 -21.791  0.00  0.00    +0.208 C 
BRANCH  22  23
ATOM     23  C   UNL     1      31.965 -12.547 -21.587  0.00  0.00    +0.044 C 
ATOM     24  C   UNL     1      32.239 -12.017 -20.173  0.00  0.00    +0.004 C 
ATOM     25  C   UNL     1      32.441 -11.546 -22.648  0.00  0.00    +0.004 C 
ATOM     26  C   UNL     1      31.629 -10.633 -19.962  0.00  0.00    +0.000 C 
ATOM     27  C   UNL     1      31.831 -10.163 -22.432  0.00  0.00    +0.000 C 
ATOM     28  C   UNL     1      32.098  -9.643 -21.022  0.00  0.00    +0.000 C 
ENDBRANCH  22  23
ENDBRANCH  21  22
ENDBRANCH   6  21
TORSDOF 4
ENDMDL
MODEL 2
REMARK VINA RESULT:     -11.9      8.184     11.358
REMARK  Name = 4565
REMARK  4 active torsions:
REMARK  status: ('A' for Active; 'I' for Inactive)
REMARK    1  A    between atoms: N_5  and  C_15
REMARK    2  A    between atoms: C_6  and  O_21
REMARK    3  A    between atoms: O_21  and  C_22
REMARK    4  A    between atoms: C_22  and  C_23
REMARK                            x       y       z     vdW  Elec       q    Type
REMARK                         _______ _______ _______ _____ _____    ______ ____
ROOT
ATOM      1  N   UNL     1      32.777 -23.474 -16.059  0.00  0.00    -0.293 NA
ATOM      2  N   UNL     1      29.349 -22.871 -17.247  0.00  0.00    -0.266 NA
ATOM      3  N   UNL     1      31.042 -24.405 -14.617  0.00  0.00    -0.316 NA
ATOM      4  N   UNL     1      28.781 -24.000 -15.410  0.00  0.00    -0.296 N 
ATOM      5  N   UNL     1      33.313 -24.640 -14.100  0.00  0.00    -0.238 N 
ATOM      6  C   UNL     1      31.857 -22.985 -16.919  0.00  0.00    +0.288 C 
ATOM      7  C   UNL     1      30.525 -23.201 -16.636  0.00  0.00    +0.215 C 
ATOM      8  C   UNL     1      30.146 -23.901 -15.498  0.00  0.00    +0.196 C 
ATOM      9  C   UNL     1      32.318 -24.145 -14.975  0.00  0.00    +0.207 C 
ATOM     10  C   UNL     1      28.333 -23.372 -16.476  0.00  0.00    +0.164 C 
ATOM     11  H   UNL     1      29.248 -22.367 -18.087  0.00  0.00    +0.126 HD
ATOM     12  H   UNL     1      28.254 -24.443 -14.707  0.00  0.00    +0.150 HD
ATOM     13  H   UNL     1      32.951 -25.124 -13.322  0.00  0.00    +0.166 HD
ENDROOT
BRANCH   5  15
ATOM     14 CL   UNL     1      37.637 -22.834 -12.011  0.00  0.00    -0.082 Cl
ATOM     15  C   UNL     1      34.717 -24.577 -14.124  0.00  0.00    +0.059 C 
ATOM     16  C   UNL     1      35.403 -23.824 -13.167  0.00  0.00    +0.027 C 
ATOM     17  C   UNL     1      35.434 -25.268 -15.105  0.00  0.00    +0.015 C 
ATOM     18  C   UNL     1      36.796 -23.763 -13.192  0.00  0.00    +0.059 C 
ATOM     19  C   UNL     1      36.827 -25.206 -15.128  0.00  0.00    +0.002 C 
ATOM     20  C   UNL     1      37.508 -24.454 -14.171  0.00  0.00    +0.011 C 
ENDBRANCH   5  15
BRANCH   6  21
ATOM     21  O   UNL     1      32.288 -22.299 -18.029  0.00  0.00    -0.453 OA
BRANCH  21  22
ATOM     22  C   UNL     1      33.506 -22.721 -18.614  0.00  0.00    +0.208 C 
BRANCH  22  23
ATOM     23  C   UNL     1      34.207 -21.500 -19.206  0.00  0.00    +0.044 C 
ATOM     24  C   UNL     1      35.620 -21.865 -19.682  0.00  0.00    +0.004 C 
ATOM     25  C   UNL     1      33.381 -20.905 -20.355  0.00  0.00    +0.004 C 
ATOM     26  C   UNL     1      36.323 -20.673 -20.327  0.00  0.00    +0.000 C 
ATOM     27  C   UNL     1      34.089 -19.715 -20.999  0.00  0.00    +0.000 C 
ATOM     28  C   UNL     1      35.496 -20.079 -21.462  0.00  0.00    +0.000 C 
ENDBRANCH  22  23
ENDBRANCH  21  22
ENDBRANCH   6  21
TORSDOF 4
ENDMDL
MODEL 3
REMARK VINA RESULT:     -11.6      8.040     12.666
REMARK  Name = 4565
REMARK  4 active torsions:
REMARK  status: ('A' for Active; 'I' for Inactive)
REMARK    1  A    between atoms: N_5  and  C_15
REMARK    2  A    between atoms: C_6  and  O_21
REMARK    3  A    between atoms: O_21  and  C_22
REMARK    4  A    between atoms: C_22  and  C_23
REMARK                            x       y       z     vdW  Elec       q    Type
REMARK                         _______ _______ _______ _____ _____    ______ ____
ROOT
ATOM      1  N   UNL     1      33.973 -23.184 -16.404  0.00  0.00    -0.293 NA
ATOM      2  N   UNL     1      32.425 -24.901 -13.544  0.00  0.00    -0.266 NA
ATOM      3  N   UNL     1      31.569 -23.536 -16.633  0.00  0.00    -0.316 NA
ATOM      4  N   UNL     1      30.556 -24.672 -14.738  0.00  0.00    -0.296 N 
ATOM      5  N   UNL     1      32.809 -22.467 -18.305  0.00  0.00    -0.238 N 
ATOM      6  C   UNL     1      33.987 -23.782 -15.193  0.00  0.00    +0.288 C 
ATOM      7  C   UNL     1      32.794 -24.261 -14.692  0.00  0.00    +0.215 C 
ATOM      8  C   UNL     1      31.618 -24.130 -15.417  0.00  0.00    +0.196 C 
ATOM      9  C   UNL     1      32.780 -23.099 -17.041  0.00  0.00    +0.207 C 
ATOM     10  C   UNL     1      31.075 -25.127 -13.618  0.00  0.00    +0.164 C 
ATOM     11  H   UNL     1      33.018 -25.155 -12.800  0.00  0.00    +0.126 HD
ATOM     12  H   UNL     1      29.615 -24.712 -15.026  0.00  0.00    +0.150 HD
ATOM     13  H   UNL     1      31.928 -22.419 -18.745  0.00  0.00    +0.166 HD
ENDROOT
BRANCH   5  15
ATOM     14 CL   UNL     1      34.224 -19.343 -22.122  0.00  0.00    -0.082 Cl
ATOM     15  C   UNL     1      33.849 -21.893 -19.058  0.00  0.00    +0.059 C 
ATOM     16  C   UNL     1      33.556 -21.006 -20.097  0.00  0.00    +0.027 C 
ATOM     17  C   UNL     1      35.179 -22.208 -18.771  0.00  0.00    +0.015 C 
ATOM     18  C   UNL     1      34.588 -20.437 -20.843  0.00  0.00    +0.059 C 
ATOM     19  C   UNL     1      36.211 -21.638 -19.517  0.00  0.00    +0.002 C 
ATOM     20  C   UNL     1      35.915 -20.752 -20.553  0.00  0.00    +0.011 C 
ENDBRANCH   5  15
BRANCH   6  21
ATOM     21  O   UNL     1      35.180 -23.885 -14.519  0.00  0.00    -0.453 OA
BRANCH  21  22
ATOM     22  C   UNL     1      36.351 -23.515 -15.224  0.00  0.00    +0.208 C 
BRANCH  22  23
ATOM     23  C   UNL     1      37.427 -24.566 -14.958  0.00  0.00    +0.044 C 
ATOM     24  C   UNL     1      38.768 -24.133 -15.569  0.00  0.00    +0.004 C 
ATOM     25  C   UNL     1      37.571 -24.825 -13.453  0.00  0.00    +0.004 C 
ATOM     26  C   UNL     1      39.875 -25.143 -15.270  0.00  0.00    +0.000 C 
ATOM     27  C   UNL     1      38.680 -25.833 -13.159  0.00  0.00    +0.000 C 
ATOM     28  C   UNL     1      40.009 -25.405 -13.774  0.00  0.00    +0.000 C 
ENDBRANCH  22  23
ENDBRANCH  21  22
ENDBRANCH   6  21
TORSDOF 4
ENDMDL
MODEL 4
REMARK VINA RESULT:     -11.5      8.219     11.251
REMARK  Name = 4565
REMARK  4 active torsions:
REMARK  status: ('A' for Active; 'I' for Inactive)
REMARK    1  A    between atoms: N_5  and  C_15
REMARK    2  A    between atoms: C_6  and  O_21
REMARK    3  A    between atoms: O_21  and  C_22
REMARK    4  A    between atoms: C_22  and  C_23
REMARK                            x       y       z     vdW  Elec       q    Type
REMARK                         _______ _______ _______ _____ _____    ______ ____
ROOT
ATOM      1  N   UNL     1      35.234 -23.269 -16.681  0.00  0.00    -0.293 NA
ATOM      2  N   UNL     1      32.984 -22.035 -19.315  0.00  0.00    -0.266 NA
ATOM      3  N   UNL     1      36.321 -21.838 -18.333  0.00  0.00    -0.316 NA
ATOM      4  N   UNL     1      34.825 -21.029 -20.069  0.00  0.00    -0.296 N 
ATOM      5  N   UNL     1      37.516 -22.762 -16.546  0.00  0.00    -0.238 N 
ATOM      6  C   UNL     1      34.041 -23.152 -17.303  0.00  0.00    +0.288 C 
ATOM      7  C   UNL     1      33.977 -22.378 -18.444  0.00  0.00    +0.215 C 
ATOM      8  C   UNL     1      35.110 -21.741 -18.932  0.00  0.00    +0.196 C 
ATOM      9  C   UNL     1      36.286 -22.613 -17.227  0.00  0.00    +0.207 C 
ATOM     10  C   UNL     1      33.540 -21.226 -20.272  0.00  0.00    +0.164 C 
ATOM     11  H   UNL     1      32.041 -22.316 -19.267  0.00  0.00    +0.126 HD
ATOM     12  H   UNL     1      35.444 -20.490 -20.612  0.00  0.00    +0.150 HD
ATOM     13  H   UNL     1      38.263 -22.275 -16.964  0.00  0.00    +0.166 HD
ENDROOT
BRANCH   5  15
ATOM     14 CL   UNL     1      40.546 -26.272 -14.350  0.00  0.00    -0.082 Cl
ATOM     15  C   UNL     1      37.882 -23.470 -15.387  0.00  0.00    +0.059 C 
ATOM     16  C   UNL     1      38.913 -24.412 -15.436  0.00  0.00    +0.027 C 
ATOM     17  C   UNL     1      37.216 -23.235 -14.182  0.00  0.00    +0.015 C 
ATOM     18  C   UNL     1      39.275 -25.113 -14.287  0.00  0.00    +0.059 C 
ATOM     19  C   UNL     1      37.579 -23.936 -13.032  0.00  0.00    +0.002 C 
ATOM     20  C   UNL     1      38.609 -24.876 -13.085  0.00  0.00    +0.011 C 
ENDBRANCH   5  15
BRANCH   6  21
ATOM     21  O   UNL     1      32.952 -23.803 -16.776  0.00  0.00    -0.453 OA
BRANCH  21  22
ATOM     22  C   UNL     1      32.593 -23.483 -15.445  0.00  0.00    +0.208 C 
BRANCH  22  23
ATOM     23  C   UNL     1      31.070 -23.493 -15.338  0.00  0.00    +0.044 C 
ATOM     24  C   UNL     1      30.437 -22.810 -16.559  0.00  0.00    +0.004 C 
ATOM     25  C   UNL     1      30.547 -24.927 -15.183  0.00  0.00    +0.004 C 
ATOM     26  C   UNL     1      28.911 -22.854 -16.501  0.00  0.00    +0.000 C 
ATOM     27  C   UNL     1      29.021 -24.968 -15.129  0.00  0.00    +0.000 C 
ATOM     28  C   UNL     1      28.395 -24.280 -16.338  0.00  0.00    +0.000 C 
ENDBRANCH  22  23
ENDBRANCH  21  22
ENDBRANCH   6  21
TORSDOF 4
ENDMDL
MODEL 5
REMARK VINA RESULT:     -11.3      8.733     12.495
REMARK  Name = 4565
REMARK  4 active torsions:
REMARK  status: ('A' for Active; 'I' for Inactive)
REMARK    1  A    between atoms: N_5  and  C_15
REMARK    2  A    between atoms: C_6  and  O_21
REMARK    3  A    between atoms: O_21  and  C_22
REMARK    4  A    between atoms: C_22  and  C_23
REMARK                            x       y       z     vdW  Elec       q    Type
REMARK                         _______ _______ _______ _____ _____    ______ ____
ROOT
ATOM      1  N   UNL     1      35.506 -23.784 -15.880  0.00  0.00    -0.293 NA
ATOM      2  N   UNL     1      36.599 -25.568 -12.855  0.00  0.00    -0.266 NA
ATOM      3  N   UNL     1      37.860 -23.460 -15.326  0.00  0.00    -0.316 NA
ATOM      4  N   UNL     1      38.572 -24.643 -13.325  0.00  0.00    -0.296 N 
ATOM      5  N   UNL     1      36.898 -22.441 -17.200  0.00  0.00    -0.238 N 
ATOM      6  C   UNL     1      35.321 -24.587 -14.810  0.00  0.00    +0.288 C 
ATOM      7  C   UNL     1      36.403 -24.833 -13.990  0.00  0.00    +0.215 C 
ATOM      8  C   UNL     1      37.642 -24.269 -14.262  0.00  0.00    +0.196 C 
ATOM      9  C   UNL     1      36.748 -23.277 -16.070  0.00  0.00    +0.207 C 
ATOM     10  C   UNL     1      37.913 -25.423 -12.495  0.00  0.00    +0.164 C 
ATOM     11  H   UNL     1      35.921 -26.103 -12.382  0.00  0.00    +0.126 HD
ATOM     12  H   UNL     1      39.521 -24.385 -13.284  0.00  0.00    +0.150 HD
ATOM     13  H   UNL     1      37.811 -22.087 -17.313  0.00  0.00    +0.166 HD
ENDROOT
BRANCH   5  15
ATOM     14 CL   UNL     1      36.074 -19.681 -21.446  0.00  0.00    -0.082 Cl
ATOM     15  C   UNL     1      36.000 -22.016 -18.195  0.00  0.00    +0.059 C 
ATOM     16  C   UNL     1      36.431 -21.158 -19.210  0.00  0.00    +0.027 C 
ATOM     17  C   UNL     1      34.672 -22.450 -18.173  0.00  0.00    +0.015 C 
ATOM     18  C   UNL     1      35.539 -20.738 -20.196  0.00  0.00    +0.059 C 
ATOM     19  C   UNL     1      33.781 -22.029 -19.160  0.00  0.00    +0.002 C 
ATOM     20  C   UNL     1      34.215 -21.173 -20.172  0.00  0.00    +0.011 C 
ENDBRANCH   5  15
BRANCH   6  21
ATOM     21  O   UNL     1      34.074 -25.118 -14.588  0.00  0.00    -0.453 OA
BRANCH  21  22
ATOM     22  C   UNL     1      33.080 -24.240 -14.095  0.00  0.00    +0.208 C 
BRANCH  22  23
ATOM     23  C   UNL     1      31.848 -24.350 -14.992  0.00  0.00    +0.044 C 
ATOM     24  C   UNL     1      30.671 -24.968 -14.223  0.00  0.00    +0.004 C 
ATOM     25  C   UNL     1      31.468 -22.977 -15.562  0.00  0.00    +0.004 C 
ATOM     26  C   UNL     1      29.412 -25.040 -15.084  0.00  0.00    +0.000 C 
ATOM     27  C   UNL     1      30.207 -23.053 -16.420  0.00  0.00    +0.000 C 
ATOM     28  C   UNL     1      29.042 -23.675 -15.655  0.00  0.00    +0.000 C 
ENDBRANCH  22  23
ENDBRANCH  21  22
ENDBRANCH   6  21
TORSDOF 4
ENDMDL
MODEL 6
REMARK VINA RESULT:     -11.2      8.575     12.073
REMARK  Name = 4565
REMARK  4 active torsions:
REMARK  status: ('A' for Active; 'I' for Inactive)
REMARK    1  A    between atoms: N_5  and  C_15
REMARK    2  A    between atoms: C_6  and  O_21
REMARK    3  A    between atoms: O_21  and  C_22
REMARK    4  A    between atoms: C_22  and  C_23
REMARK                            x       y       z     vdW  Elec       q    Type
REMARK                         _______ _______ _______ _____ _____    ______ ____
ROOT
ATOM      1  N   UNL     1      34.963 -23.666 -15.531  0.00  0.00    -0.293 NA
ATOM      2  N   UNL     1      38.628 -23.893 -15.739  0.00  0.00    -0.266 NA
ATOM      3  N   UNL     1      35.982 -25.005 -13.764  0.00  0.00    -0.316 NA
ATOM      4  N   UNL     1      38.404 -25.149 -13.911  0.00  0.00    -0.296 N 
ATOM      5  N   UNL     1      33.666 -24.692 -13.873  0.00  0.00    -0.238 N 
ATOM      6  C   UNL     1      36.167 -23.402 -16.083  0.00  0.00    +0.288 C 
ATOM      7  C   UNL     1      37.287 -23.937 -15.481  0.00  0.00    +0.215 C 
ATOM      8  C   UNL     1      37.173 -24.722 -14.342  0.00  0.00    +0.196 C 
ATOM      9  C   UNL     1      34.945 -24.440 -14.419  0.00  0.00    +0.207 C 
ATOM     10  C   UNL     1      39.255 -24.633 -14.772  0.00  0.00    +0.164 C 
ATOM     11  H   UNL     1      39.064 -23.417 -16.483  0.00  0.00    +0.126 HD
ATOM     12  H   UNL     1      38.605 -25.715 -13.131  0.00  0.00    +0.150 HD
ATOM     13  H   UNL     1      33.682 -25.257 -13.067  0.00  0.00    +0.166 HD
ENDROOT
BRANCH   5  15
ATOM     14 CL   UNL     1      28.761 -25.970 -14.671  0.00  0.00    -0.082 Cl
ATOM     15  C   UNL     1      32.372 -24.294 -14.257  0.00  0.00    +0.059 C 
ATOM     16  C   UNL     1      31.328 -25.221 -14.273  0.00  0.00    +0.027 C 
ATOM     17  C   UNL     1      32.127 -22.968 -14.624  0.00  0.00    +0.015 C 
ATOM     18  C   UNL     1      30.046 -24.825 -14.653  0.00  0.00    +0.059 C 
ATOM     19  C   UNL     1      30.844 -22.572 -15.003  0.00  0.00    +0.002 C 
ATOM     20  C   UNL     1      29.803 -23.501 -15.018  0.00  0.00    +0.011 C 
ENDBRANCH   5  15
BRANCH   6  21
ATOM     21  O   UNL     1      36.221 -22.620 -17.211  0.00  0.00    -0.453 OA
BRANCH  21  22
ATOM     22  C   UNL     1      35.147 -22.733 -18.125  0.00  0.00    +0.208 C 
BRANCH  22  23
ATOM     23  C   UNL     1      35.089 -21.459 -18.965  0.00  0.00    +0.044 C 
ATOM     24  C   UNL     1      36.348 -21.327 -19.835  0.00  0.00    +0.004 C 
ATOM     25  C   UNL     1      33.823 -21.437 -19.831  0.00  0.00    +0.004 C 
ATOM     26  C   UNL     1      36.290 -20.087 -20.725  0.00  0.00    +0.000 C 
ATOM     27  C   UNL     1      33.770 -20.198 -20.722  0.00  0.00    +0.000 C 
ATOM     28  C   UNL     1      35.026 -20.065 -21.577  0.00  0.00    +0.000 C 
ENDBRANCH  22  23
ENDBRANCH  21  22
ENDBRANCH   6  21
TORSDOF 4
ENDMDL
MODEL 7
REMARK VINA RESULT:     -11.1      8.069     11.535
REMARK  Name = 4565
REMARK  4 active torsions:
REMARK  status: ('A' for Active; 'I' for Inactive)
REMARK    1  A    between atoms: N_5  and  C_15
REMARK    2  A    between atoms: C_6  and  O_21
REMARK    3  A    between atoms: O_21  and  C_22
REMARK    4  A    between atoms: C_22  and  C_23
REMARK                            x       y       z     vdW  Elec       q    Type
REMARK                         _______ _______ _______ _____ _____    ______ ____
ROOT
ATOM      1  N   UNL     1      33.408 -23.666 -16.201  0.00  0.00    -0.293 NA
ATOM      2  N   UNL     1      37.015 -23.002 -16.478  0.00  0.00    -0.266 NA
ATOM      3  N   UNL     1      34.578 -23.599 -14.061  0.00  0.00    -0.316 NA
ATOM      4  N   UNL     1      36.961 -23.160 -14.255  0.00  0.00    -0.296 N 
ATOM      5  N   UNL     1      32.276 -24.003 -14.179  0.00  0.00    -0.238 N 
ATOM      6  C   UNL     1      34.549 -23.417 -16.880  0.00  0.00    +0.288 C 
ATOM      7  C   UNL     1      35.713 -23.257 -16.156  0.00  0.00    +0.215 C 
ATOM      8  C   UNL     1      35.704 -23.350 -14.771  0.00  0.00    +0.196 C 
ATOM      9  C   UNL     1      33.492 -23.740 -14.851  0.00  0.00    +0.207 C 
ATOM     10  C   UNL     1      37.724 -22.953 -15.307  0.00  0.00    +0.164 C 
ATOM     11  H   UNL     1      37.379 -22.877 -17.385  0.00  0.00    +0.126 HD
ATOM     12  H   UNL     1      37.231 -23.175 -13.309  0.00  0.00    +0.150 HD
ATOM     13  H   UNL     1      32.367 -24.051 -13.199  0.00  0.00    +0.166 HD
ENDROOT
BRANCH   5  15
ATOM     14 CL   UNL     1      28.077 -22.070 -16.404  0.00  0.00    -0.082 Cl
ATOM     15  C   UNL     1      30.962 -24.208 -14.636  0.00  0.00    +0.059 C 
ATOM     16  C   UNL     1      30.252 -23.159 -15.225  0.00  0.00    +0.027 C 
ATOM     17  C   UNL     1      30.361 -25.463 -14.503  0.00  0.00    +0.015 C 
ATOM     18  C   UNL     1      28.949 -23.364 -15.679  0.00  0.00    +0.059 C 
ATOM     19  C   UNL     1      29.059 -25.667 -14.958  0.00  0.00    +0.002 C 
ATOM     20  C   UNL     1      28.352 -24.618 -15.545  0.00  0.00    +0.011 C 
ENDBRANCH   5  15
BRANCH   6  21
ATOM     21  O   UNL     1      34.500 -23.334 -18.250  0.00  0.00    -0.453 OA
BRANCH  21  22
ATOM     22  C   UNL     1      33.640 -22.357 -18.806  0.00  0.00    +0.208 C 
BRANCH  22  23
ATOM     23  C   UNL     1      34.371 -21.665 -19.955  0.00  0.00    +0.044 C 
ATOM     24  C   UNL     1      33.579 -20.444 -20.444  0.00  0.00    +0.004 C 
ATOM     25  C   UNL     1      35.789 -21.262 -19.530  0.00  0.00    +0.004 C 
ATOM     26  C   UNL     1      34.316 -19.705 -21.558  0.00  0.00    +0.000 C 
ATOM     27  C   UNL     1      36.522 -20.520 -20.646  0.00  0.00    +0.000 C 
ATOM     28  C   UNL     1      35.727 -19.313 -21.136  0.00  0.00    +0.000 C 
ENDBRANCH  22  23
ENDBRANCH  21  22
ENDBRANCH   6  21
TORSDOF 4
ENDMDL
MODEL 8
REMARK VINA RESULT:     -11.1      8.082     11.465
REMARK  Name = 4565
REMARK  4 active torsions:
REMARK  status: ('A' for Active; 'I' for Inactive)
REMARK    1  A    between atoms: N_5  and  C_15
REMARK    2  A    between atoms: C_6  and  O_21
REMARK    3  A    between atoms: O_21  and  C_22
REMARK    4  A    between atoms: C_22  and  C_23
REMARK                            x       y       z     vdW  Elec       q    Type
REMARK                         _______ _______ _______ _____ _____    ______ ____
ROOT
ATOM      1  N   UNL     1      35.403 -23.342 -16.591  0.00  0.00    -0.293 NA
ATOM      2  N   UNL     1      33.903 -21.740 -19.543  0.00  0.00    -0.266 NA
ATOM      3  N   UNL     1      36.941 -21.924 -17.847  0.00  0.00    -0.316 NA
ATOM      4  N   UNL     1      35.940 -20.871 -19.796  0.00  0.00    -0.296 N 
ATOM      5  N   UNL     1      37.630 -23.065 -15.924  0.00  0.00    -0.238 N 
ATOM      6  C   UNL     1      34.391 -23.074 -17.446  0.00  0.00    +0.288 C 
ATOM      7  C   UNL     1      34.646 -22.229 -18.507  0.00  0.00    +0.215 C 
ATOM      8  C   UNL     1      35.907 -21.676 -18.685  0.00  0.00    +0.196 C 
ATOM      9  C   UNL     1      36.599 -22.758 -16.842  0.00  0.00    +0.207 C 
ATOM     10  C   UNL     1      34.721 -20.931 -20.287  0.00  0.00    +0.164 C 
ATOM     11  H   UNL     1      32.954 -21.932 -19.723  0.00  0.00    +0.126 HD
ATOM     12  H   UNL     1      36.706 -20.361 -20.146  0.00  0.00    +0.150 HD
ATOM     13  H   UNL     1      38.488 -22.628 -16.130  0.00  0.00    +0.166 HD
ENDROOT
BRANCH   5  15
ATOM     14 CL   UNL     1      35.771 -24.115 -11.259  0.00  0.00    -0.082 Cl
ATOM     15  C   UNL     1      37.670 -23.875 -14.774  0.00  0.00    +0.059 C 
ATOM     16  C   UNL     1      36.802 -23.624 -13.709  0.00  0.00    +0.027 C 
ATOM     17  C   UNL     1      38.579 -24.933 -14.693  0.00  0.00    +0.015 C 
ATOM     18  C   UNL     1      36.842 -24.427 -12.570  0.00  0.00    +0.059 C 
ATOM     19  C   UNL     1      38.618 -25.737 -13.554  0.00  0.00    +0.002 C 
ATOM     20  C   UNL     1      37.749 -25.483 -12.491  0.00  0.00    +0.011 C 
ENDBRANCH   5  15
BRANCH   6  21
ATOM     21  O   UNL     1      33.165 -23.649 -17.222  0.00  0.00    -0.453 OA
BRANCH  21  22
ATOM     22  C   UNL     1      32.058 -22.776 -17.097  0.00  0.00    +0.208 C 
BRANCH  22  23
ATOM     23  C   UNL     1      31.257 -23.182 -15.862  0.00  0.00    +0.044 C 
ATOM     24  C   UNL     1      30.735 -24.619 -16.003  0.00  0.00    +0.004 C 
ATOM     25  C   UNL     1      32.105 -23.032 -14.592  0.00  0.00    +0.004 C 
ATOM     26  C   UNL     1      29.975 -25.068 -14.756  0.00  0.00    +0.000 C 
ATOM     27  C   UNL     1      31.342 -23.484 -13.348  0.00  0.00    +0.000 C 
ATOM     28  C   UNL     1      30.818 -24.909 -13.496  0.00  0.00    +0.000 C 
ENDBRANCH  22  23
ENDBRANCH  21  22
ENDBRANCH   6  21
TORSDOF 4
ENDMDL
MODEL 9
REMARK VINA RESULT:     -11.0      9.218     12.832
REMARK  Name = 4565
REMARK  4 active torsions:
REMARK  status: ('A' for Active; 'I' for Inactive)
REMARK    1  A    between atoms: N_5  and  C_15
REMARK    2  A    between atoms: C_6  and  O_21
REMARK    3  A    between atoms: O_21  and  C_22
REMARK    4  A    between atoms: C_22  and  C_23
REMARK                            x       y       z     vdW  Elec       q    Type
REMARK                         _______ _______ _______ _____ _____    ______ ____
ROOT
ATOM      1  N   UNL     1      34.576 -23.653 -15.056  0.00  0.00    -0.293 NA
ATOM      2  N   UNL     1      35.243 -25.022 -11.708  0.00  0.00    -0.266 NA
ATOM      3  N   UNL     1      36.935 -23.660 -14.432  0.00  0.00    -0.316 NA
ATOM      4  N   UNL     1      37.364 -24.566 -12.218  0.00  0.00    -0.296 N 
ATOM      5  N   UNL     1      36.226 -22.844 -16.508  0.00  0.00    -0.238 N 
ATOM      6  C   UNL     1      34.219 -24.201 -13.874  0.00  0.00    +0.288 C 
ATOM      7  C   UNL     1      35.215 -24.484 -12.963  0.00  0.00    +0.215 C 
ATOM      8  C   UNL     1      36.544 -24.209 -13.258  0.00  0.00    +0.196 C 
ATOM      9  C   UNL     1      35.895 -23.419 -15.259  0.00  0.00    +0.207 C 
ATOM     10  C   UNL     1      36.552 -25.051 -11.304  0.00  0.00    +0.164 C 
ATOM     11  H   UNL     1      34.466 -25.332 -11.189  0.00  0.00    +0.126 HD
ATOM     12  H   UNL     1      38.344 -24.480 -12.168  0.00  0.00    +0.150 HD
ATOM     13  H   UNL     1      37.191 -22.686 -16.628  0.00  0.00    +0.166 HD
ENDROOT
BRANCH   5  15
ATOM     14 CL   UNL     1      35.927 -20.320 -20.964  0.00  0.00    -0.082 Cl
ATOM     15  C   UNL     1      35.447 -22.454 -17.612  0.00  0.00    +0.059 C 
ATOM     16  C   UNL     1      36.007 -21.671 -18.624  0.00  0.00    +0.027 C 
ATOM     17  C   UNL     1      34.109 -22.848 -17.701  0.00  0.00    +0.015 C 
ATOM     18  C   UNL     1      35.234 -21.284 -19.718  0.00  0.00    +0.059 C 
ATOM     19  C   UNL     1      33.337 -22.462 -18.796  0.00  0.00    +0.002 C 
ATOM     20  C   UNL     1      33.899 -21.679 -19.805  0.00  0.00    +0.011 C 
ENDBRANCH   5  15
BRANCH   6  21
ATOM     21  O   UNL     1      32.889 -24.451 -13.635  0.00  0.00    -0.453 OA
BRANCH  21  22
ATOM     22  C   UNL     1      32.064 -23.335 -13.360  0.00  0.00    +0.208 C 
BRANCH  22  23
ATOM     23  C   UNL     1      30.717 -23.547 -14.046  0.00  0.00    +0.044 C 
ATOM     24  C   UNL     1      30.667 -22.798 -15.385  0.00  0.00    +0.004 C 
ATOM     25  C   UNL     1      30.440 -25.043 -14.247  0.00  0.00    +0.004 C 
ATOM     26  C   UNL     1      29.348 -23.038 -16.116  0.00  0.00    +0.000 C 
ATOM     27  C   UNL     1      29.122 -25.279 -14.981  0.00  0.00    +0.000 C 
ATOM     28  C   UNL     1      29.072 -24.526 -16.307  0.00  0.00    +0.000 C 
ENDBRANCH  22  23
ENDBRANCH  21  22
ENDBRANCH   6  21
TORSDOF 4
ENDMDL
