MODEL 1
REMARK VINA RESULT:     -13.2      0.000      0.000
REMARK  Name = 448942
REMARK  8 active torsions:
REMARK  status: ('A' for Active; 'I' for Inactive)
REMARK    1  A    between atoms: C_2  and  C_20
REMARK    2  A    between atoms: C_3  and  C_6
REMARK    3  A    between atoms: C_7  and  C_13
REMARK    4  A    between atoms: N_19  and  C_22
REMARK    5  A    between atoms: C_22  and  C_23
REMARK    6  A    between atoms: C_22  and  C_29
REMARK    7  A    between atoms: C_29  and  C_31
REMARK    8  A    between atoms: C_31  and  O_32
REMARK                            x       y       z     vdW  Elec       q    Type
REMARK                         _______ _______ _______ _____ _____    ______ ____
ROOT
ATOM      1  S   UNL     1      32.726 -23.623 -16.626  0.00  0.00    -0.082 S 
ATOM      2  C   UNL     1      34.419 -23.631 -16.655  0.00  0.00    +0.083 C 
ATOM      3  C   UNL     1      33.959 -22.230 -18.399  0.00  0.00    +0.007 C 
ATOM      4  C   UNL     1      34.971 -22.867 -17.624  0.00  0.00    +0.012 C 
ATOM      5  C   UNL     1      32.693 -22.555 -17.964  0.00  0.00    +0.036 C 
ENDROOT
BRANCH   3   6
ATOM      6  C   UNL     1      34.151 -21.342 -19.514  0.00  0.00    +0.001 C 
ATOM      7  C   UNL     1      34.521 -19.622 -21.676  0.00  0.00    +0.000 C 
ATOM      8  C   UNL     1      35.439 -21.057 -19.962  0.00  0.00    +0.000 C 
ATOM      9  C   UNL     1      33.046 -20.770 -20.145  0.00  0.00    +0.000 C 
ATOM     10  C   UNL     1      35.625 -20.195 -21.044  0.00  0.00    +0.000 C 
ATOM     11  C   UNL     1      33.233 -19.908 -21.226  0.00  0.00    +0.000 C 
BRANCH   7  13
ATOM     12  N   UNL     1      35.084 -16.999 -24.961  0.00  0.00    -0.242 NA
ATOM     13  C   UNL     1      34.714 -18.728 -22.796  0.00  0.00    +0.003 C 
ATOM     14  C   UNL     1      35.148 -17.425 -22.582  0.00  0.00    +0.021 C 
ATOM     15  C   UNL     1      34.464 -19.167 -24.092  0.00  0.00    +0.021 C 
ATOM     16  C   UNL     1      35.317 -16.607 -23.688  0.00  0.00    +0.099 C 
ATOM     17  C   UNL     1      34.663 -18.272 -25.130  0.00  0.00    +0.099 C 
ENDBRANCH   7  13
ENDBRANCH   3   6
BRANCH   2  20
ATOM     18  O   UNL     1      35.096 -25.676 -15.670  0.00  0.00    -0.270 OA
ATOM     19  N   UNL     1      35.786 -23.733 -14.658  0.00  0.00    -0.298 N 
ATOM     20  C   UNL     1      35.119 -24.444 -15.652  0.00  0.00    +0.252 C 
ATOM     21  H   UNL     1      35.774 -22.749 -14.687  0.00  0.00    +0.150 HD
BRANCH  19  22
ATOM     22  C   UNL     1      36.494 -24.394 -13.584  0.00  0.00    +0.105 C 
BRANCH  22  23
ATOM     23  C   UNL     1      37.897 -24.758 -14.030  0.00  0.00    -0.004 C 
ATOM     24  C   UNL     1      38.405 -24.185 -15.181  0.00  0.00    -0.003 C 
ATOM     25  C   UNL     1      38.632 -25.653 -13.276  0.00  0.00    -0.003 C 
ATOM     26  C   UNL     1      39.696 -24.520 -15.593  0.00  0.00    -0.000 C 
ATOM     27  C   UNL     1      39.921 -25.989 -13.688  0.00  0.00    -0.000 C 
ATOM     28  C   UNL     1      40.453 -25.423 -14.847  0.00  0.00    -0.000 C 
ENDBRANCH  22  23
BRANCH  22  29
ATOM     29  C   UNL     1      36.458 -23.529 -12.312  0.00  0.00    +0.133 C 
BRANCH  29  31
ATOM     30  O   UNL     1      36.301 -24.135  -9.955  0.00  0.00    -0.250 OA
ATOM     31  C   UNL     1      35.906 -24.259 -11.106  0.00  0.00    +0.316 C 
BRANCH  31  32
ATOM     32  O   UNL     1      34.907 -25.114 -11.456  0.00  0.00    -0.480 OA
ATOM     33  H   UNL     1      34.017 -24.826 -11.435  0.00  0.00    +0.295 HD
ENDBRANCH  31  32
ENDBRANCH  29  31
ENDBRANCH  22  29
ENDBRANCH  19  22
ENDBRANCH   2  20
TORSDOF 8
ENDMDL
MODEL 2
REMARK VINA RESULT:     -12.8      2.856      4.436
REMARK  Name = 448942
REMARK  8 active torsions:
REMARK  status: ('A' for Active; 'I' for Inactive)
REMARK    1  A    between atoms: C_2  and  C_20
REMARK    2  A    between atoms: C_3  and  C_6
REMARK    3  A    between atoms: C_7  and  C_13
REMARK    4  A    between atoms: N_19  and  C_22
REMARK    5  A    between atoms: C_22  and  C_23
REMARK    6  A    between atoms: C_22  and  C_29
REMARK    7  A    between atoms: C_29  and  C_31
REMARK    8  A    between atoms: C_31  and  O_32
REMARK                            x       y       z     vdW  Elec       q    Type
REMARK                         _______ _______ _______ _____ _____    ______ ____
ROOT
ATOM      1  S   UNL     1      36.834 -21.294 -19.603  0.00  0.00    -0.082 S 
ATOM      2  C   UNL     1      35.150 -21.469 -19.621  0.00  0.00    +0.083 C 
ATOM      3  C   UNL     1      35.416 -19.661 -20.990  0.00  0.00    +0.007 C 
ATOM      4  C   UNL     1      34.496 -20.562 -20.379  0.00  0.00    +0.012 C 
ATOM      5  C   UNL     1      36.720 -19.945 -20.651  0.00  0.00    +0.036 C 
ENDROOT
BRANCH   3   6
ATOM      6  C   UNL     1      35.103 -18.562 -21.864  0.00  0.00    +0.001 C 
ATOM      7  C   UNL     1      34.494 -16.434 -23.559  0.00  0.00    +0.000 C 
ATOM      8  C   UNL     1      35.008 -17.270 -21.351  0.00  0.00    +0.000 C 
ATOM      9  C   UNL     1      34.894 -18.793 -23.223  0.00  0.00    +0.000 C 
ATOM     10  C   UNL     1      34.703 -16.205 -22.198  0.00  0.00    +0.000 C 
ATOM     11  C   UNL     1      34.589 -17.728 -24.070  0.00  0.00    +0.000 C 
BRANCH   7  13
ATOM     12  N   UNL     1      33.562 -13.196 -26.134  0.00  0.00    -0.242 NA
ATOM     13  C   UNL     1      34.177 -15.330 -24.437  0.00  0.00    +0.003 C 
ATOM     14  C   UNL     1      34.262 -14.023 -23.973  0.00  0.00    +0.021 C 
ATOM     15  C   UNL     1      33.784 -15.571 -25.750  0.00  0.00    +0.021 C 
ATOM     16  C   UNL     1      33.947 -12.999 -24.852  0.00  0.00    +0.099 C 
ATOM     17  C   UNL     1      33.490 -14.480 -26.550  0.00  0.00    +0.099 C 
ENDBRANCH   7  13
ENDBRANCH   3   6
BRANCH   2  20
ATOM     18  O   UNL     1      33.874 -23.446 -19.344  0.00  0.00    -0.270 OA
ATOM     19  N   UNL     1      34.817 -22.521 -17.465  0.00  0.00    -0.298 N 
ATOM     20  C   UNL     1      34.566 -22.563 -18.834  0.00  0.00    +0.252 C 
ATOM     21  H   UNL     1      35.376 -21.795 -17.105  0.00  0.00    +0.150 HD
BRANCH  19  22
ATOM     22  C   UNL     1      34.284 -23.512 -16.555  0.00  0.00    +0.105 C 
BRANCH  22  23
ATOM     23  C   UNL     1      35.374 -24.008 -15.626  0.00  0.00    -0.004 C 
ATOM     24  C   UNL     1      36.270 -23.098 -15.095  0.00  0.00    -0.003 C 
ATOM     25  C   UNL     1      35.446 -25.357 -15.332  0.00  0.00    -0.003 C 
ATOM     26  C   UNL     1      37.273 -23.554 -14.240  0.00  0.00    -0.000 C 
ATOM     27  C   UNL     1      36.449 -25.813 -14.478  0.00  0.00    -0.000 C 
ATOM     28  C   UNL     1      37.364 -24.911 -13.932  0.00  0.00    -0.000 C 
ENDBRANCH  22  23
BRANCH  22  29
ATOM     29  C   UNL     1      33.055 -22.950 -15.819  0.00  0.00    +0.133 C 
BRANCH  29  31
ATOM     30  O   UNL     1      30.934 -24.111 -16.140  0.00  0.00    -0.250 OA
ATOM     31  C   UNL     1      31.745 -23.271 -16.507  0.00  0.00    +0.316 C 
BRANCH  31  32
ATOM     32  O   UNL     1      31.573 -22.517 -17.625  0.00  0.00    -0.480 OA
ATOM     33  H   UNL     1      32.204 -22.556 -18.316  0.00  0.00    +0.295 HD
ENDBRANCH  31  32
ENDBRANCH  29  31
ENDBRANCH  22  29
ENDBRANCH  19  22
ENDBRANCH   2  20
TORSDOF 8
ENDMDL
MODEL 3
REMARK VINA RESULT:     -12.4      7.799     11.762
REMARK  Name = 448942
REMARK  8 active torsions:
REMARK  status: ('A' for Active; 'I' for Inactive)
REMARK    1  A    between atoms: C_2  and  C_20
REMARK    2  A    between atoms: C_3  and  C_6
REMARK    3  A    between atoms: C_7  and  C_13
REMARK    4  A    between atoms: N_19  and  C_22
REMARK    5  A    between atoms: C_22  and  C_23
REMARK    6  A    between atoms: C_22  and  C_29
REMARK    7  A    between atoms: C_29  and  C_31
REMARK    8  A    between atoms: C_31  and  O_32
REMARK                            x       y       z     vdW  Elec       q    Type
REMARK                         _______ _______ _______ _____ _____    ______ ____
ROOT
ATOM      1  S   UNL     1      32.890 -14.959 -21.083  0.00  0.00    -0.082 S 
ATOM      2  C   UNL     1      33.931 -14.601 -22.370  0.00  0.00    +0.083 C 
ATOM      3  C   UNL     1      32.912 -12.582 -22.058  0.00  0.00    +0.007 C 
ATOM      4  C   UNL     1      33.867 -13.326 -22.810  0.00  0.00    +0.012 C 
ATOM      5  C   UNL     1      32.307 -13.349 -21.088  0.00  0.00    +0.036 C 
ENDROOT
BRANCH   3   6
ATOM      6  C   UNL     1      32.562 -11.197 -22.228  0.00  0.00    +0.001 C 
ATOM      7  C   UNL     1      31.884  -8.513 -22.556  0.00  0.00    +0.000 C 
ATOM      8  C   UNL     1      32.865 -10.544 -23.421  0.00  0.00    +0.000 C 
ATOM      9  C   UNL     1      31.921 -10.510 -21.198  0.00  0.00    +0.000 C 
ATOM     10  C   UNL     1      32.527  -9.201 -23.586  0.00  0.00    +0.000 C 
ATOM     11  C   UNL     1      31.582  -9.167 -21.363  0.00  0.00    +0.000 C 
BRANCH   7  13
ATOM     12  N   UNL     1      30.856  -4.428 -23.055  0.00  0.00    -0.242 NA
ATOM     13  C   UNL     1      31.535  -7.120 -22.726  0.00  0.00    +0.003 C 
ATOM     14  C   UNL     1      31.219  -6.340 -21.620  0.00  0.00    +0.021 C 
ATOM     15  C   UNL     1      31.511  -6.555 -23.997  0.00  0.00    +0.021 C 
ATOM     16  C   UNL     1      30.890  -5.011 -21.835  0.00  0.00    +0.099 C 
ATOM     17  C   UNL     1      31.168  -5.218 -24.106  0.00  0.00    +0.099 C 
ENDBRANCH   7  13
ENDBRANCH   3   6
BRANCH   2  20
ATOM     18  O   UNL     1      35.796 -15.457 -23.553  0.00  0.00    -0.270 OA
ATOM     19  N   UNL     1      34.373 -16.973 -22.577  0.00  0.00    -0.298 N 
ATOM     20  C   UNL     1      34.788 -15.680 -22.879  0.00  0.00    +0.252 C 
ATOM     21  H   UNL     1      33.560 -17.099 -22.036  0.00  0.00    +0.150 HD
BRANCH  19  22
ATOM     22  C   UNL     1      35.096 -18.140 -23.036  0.00  0.00    +0.105 C 
BRANCH  22  23
ATOM     23  C   UNL     1      35.220 -19.151 -21.913  0.00  0.00    -0.004 C 
ATOM     24  C   UNL     1      36.464 -19.387 -21.355  0.00  0.00    -0.003 C 
ATOM     25  C   UNL     1      34.089 -19.813 -21.475  0.00  0.00    -0.003 C 
ATOM     26  C   UNL     1      36.579 -20.317 -20.322  0.00  0.00    -0.000 C 
ATOM     27  C   UNL     1      34.203 -20.743 -20.443  0.00  0.00    -0.000 C 
ATOM     28  C   UNL     1      35.449 -20.997 -19.867  0.00  0.00    -0.000 C 
ENDBRANCH  22  23
BRANCH  22  29
ATOM     29  C   UNL     1      34.440 -18.707 -24.306  0.00  0.00    +0.133 C 
BRANCH  29  31
ATOM     30  O   UNL     1      33.089 -17.373 -25.836  0.00  0.00    -0.250 OA
ATOM     31  C   UNL     1      34.182 -17.659 -25.368  0.00  0.00    +0.316 C 
BRANCH  31  32
ATOM     32  O   UNL     1      35.338 -17.070 -25.776  0.00  0.00    -0.480 OA
ATOM     33  H   UNL     1      35.844 -16.565 -25.171  0.00  0.00    +0.295 HD
ENDBRANCH  31  32
ENDBRANCH  29  31
ENDBRANCH  22  29
ENDBRANCH  19  22
ENDBRANCH   2  20
TORSDOF 8
ENDMDL
MODEL 4
REMARK VINA RESULT:     -11.9      5.985     12.279
REMARK  Name = 448942
REMARK  8 active torsions:
REMARK  status: ('A' for Active; 'I' for Inactive)
REMARK    1  A    between atoms: C_2  and  C_20
REMARK    2  A    between atoms: C_3  and  C_6
REMARK    3  A    between atoms: C_7  and  C_13
REMARK    4  A    between atoms: N_19  and  C_22
REMARK    5  A    between atoms: C_22  and  C_23
REMARK    6  A    between atoms: C_22  and  C_29
REMARK    7  A    between atoms: C_29  and  C_31
REMARK    8  A    between atoms: C_31  and  O_32
REMARK                            x       y       z     vdW  Elec       q    Type
REMARK                         _______ _______ _______ _____ _____    ______ ____
ROOT
ATOM      1  S   UNL     1      34.859 -18.162 -24.743  0.00  0.00    -0.082 S 
ATOM      2  C   UNL     1      34.647 -17.024 -23.508  0.00  0.00    +0.083 C 
ATOM      3  C   UNL     1      34.925 -18.938 -22.294  0.00  0.00    +0.007 C 
ATOM      4  C   UNL     1      34.698 -17.532 -22.257  0.00  0.00    +0.012 C 
ATOM      5  C   UNL     1      35.031 -19.411 -23.583  0.00  0.00    +0.036 C 
ENDROOT
BRANCH   3   6
ATOM      6  C   UNL     1      35.040 -19.828 -21.171  0.00  0.00    +0.001 C 
ATOM      7  C   UNL     1      35.265 -21.552 -18.991  0.00  0.00    +0.000 C 
ATOM      8  C   UNL     1      33.899 -20.418 -20.630  0.00  0.00    +0.000 C 
ATOM      9  C   UNL     1      36.294 -20.098 -20.624  0.00  0.00    +0.000 C 
ATOM     10  C   UNL     1      34.010 -21.280 -19.539  0.00  0.00    +0.000 C 
ATOM     11  C   UNL     1      36.405 -20.961 -19.533  0.00  0.00    +0.000 C 
BRANCH   7  13
ATOM     12  N   UNL     1      35.606 -24.173 -15.674  0.00  0.00    -0.242 NA
ATOM     13  C   UNL     1      35.380 -22.445 -17.860  0.00  0.00    +0.003 C 
ATOM     14  C   UNL     1      36.549 -22.469 -17.107  0.00  0.00    +0.021 C 
ATOM     15  C   UNL     1      34.324 -23.285 -17.521  0.00  0.00    +0.021 C 
ATOM     16  C   UNL     1      36.611 -23.343 -16.033  0.00  0.00    +0.099 C 
ATOM     17  C   UNL     1      34.486 -24.122 -16.429  0.00  0.00    +0.099 C 
ENDBRANCH   7  13
ENDBRANCH   3   6
BRANCH   2  20
ATOM     18  O   UNL     1      35.366 -14.838 -24.069  0.00  0.00    -0.270 OA
ATOM     19  N   UNL     1      33.104 -15.230 -24.024  0.00  0.00    -0.298 N 
ATOM     20  C   UNL     1      34.433 -15.623 -23.895  0.00  0.00    +0.252 C 
ATOM     21  H   UNL     1      32.393 -15.895 -23.874  0.00  0.00    +0.150 HD
BRANCH  19  22
ATOM     22  C   UNL     1      32.733 -13.874 -24.370  0.00  0.00    +0.105 C 
BRANCH  22  23
ATOM     23  C   UNL     1      32.540 -13.049 -23.112  0.00  0.00    -0.004 C 
ATOM     24  C   UNL     1      32.472 -11.672 -23.216  0.00  0.00    -0.003 C 
ATOM     25  C   UNL     1      32.438 -13.694 -21.893  0.00  0.00    -0.003 C 
ATOM     26  C   UNL     1      32.295 -10.913 -22.059  0.00  0.00    -0.000 C 
ATOM     27  C   UNL     1      32.261 -12.935 -20.737  0.00  0.00    -0.000 C 
ATOM     28  C   UNL     1      32.191 -11.544 -20.820  0.00  0.00    -0.000 C 
ENDBRANCH  22  23
BRANCH  22  29
ATOM     29  C   UNL     1      33.759 -13.276 -25.347  0.00  0.00    +0.133 C 
BRANCH  29  31
ATOM     30  O   UNL     1      33.069 -13.005 -27.671  0.00  0.00    -0.250 OA
ATOM     31  C   UNL     1      33.540 -13.703 -26.783  0.00  0.00    +0.316 C 
BRANCH  31  32
ATOM     32  O   UNL     1      33.912 -14.996 -26.980  0.00  0.00    -0.480 OA
ATOM     33  H   UNL     1      34.819 -15.214 -27.065  0.00  0.00    +0.295 HD
ENDBRANCH  31  32
ENDBRANCH  29  31
ENDBRANCH  22  29
ENDBRANCH  19  22
ENDBRANCH   2  20
TORSDOF 8
ENDMDL
MODEL 5
REMARK VINA RESULT:     -11.8      2.246      3.455
REMARK  Name = 448942
REMARK  8 active torsions:
REMARK  status: ('A' for Active; 'I' for Inactive)
REMARK    1  A    between atoms: C_2  and  C_20
REMARK    2  A    between atoms: C_3  and  C_6
REMARK    3  A    between atoms: C_7  and  C_13
REMARK    4  A    between atoms: N_19  and  C_22
REMARK    5  A    between atoms: C_22  and  C_23
REMARK    6  A    between atoms: C_22  and  C_29
REMARK    7  A    between atoms: C_29  and  C_31
REMARK    8  A    between atoms: C_31  and  O_32
REMARK                            x       y       z     vdW  Elec       q    Type
REMARK                         _______ _______ _______ _____ _____    ______ ____
ROOT
ATOM      1  S   UNL     1      34.994 -23.203 -17.396  0.00  0.00    -0.082 S 
ATOM      2  C   UNL     1      36.467 -22.377 -17.272  0.00  0.00    +0.083 C 
ATOM      3  C   UNL     1      35.554 -21.369 -19.106  0.00  0.00    +0.007 C 
ATOM      4  C   UNL     1      36.666 -21.433 -18.217  0.00  0.00    +0.012 C 
ATOM      5  C   UNL     1      34.575 -22.278 -18.775  0.00  0.00    +0.036 C 
ENDROOT
BRANCH   3   6
ATOM      6  C   UNL     1      35.397 -20.493 -20.236  0.00  0.00    +0.001 C 
ATOM      7  C   UNL     1      35.093 -18.795 -22.426  0.00  0.00    +0.000 C 
ATOM      8  C   UNL     1      34.150 -20.357 -20.843  0.00  0.00    +0.000 C 
ATOM      9  C   UNL     1      36.493 -19.781 -20.722  0.00  0.00    +0.000 C 
ATOM     10  C   UNL     1      33.997 -19.508 -21.939  0.00  0.00    +0.000 C 
ATOM     11  C   UNL     1      36.340 -18.932 -21.818  0.00  0.00    +0.000 C 
BRANCH   7  13
ATOM     12  N   UNL     1      34.628 -16.215 -25.760  0.00  0.00    -0.242 NA
ATOM     13  C   UNL     1      34.935 -17.916 -23.563  0.00  0.00    +0.003 C 
ATOM     14  C   UNL     1      35.395 -16.605 -23.501  0.00  0.00    +0.021 C 
ATOM     15  C   UNL     1      34.322 -18.377 -24.723  0.00  0.00    +0.021 C 
ATOM     16  C   UNL     1      35.220 -15.802 -24.617  0.00  0.00    +0.099 C 
ATOM     17  C   UNL     1      34.194 -17.495 -25.784  0.00  0.00    +0.099 C 
ENDBRANCH   7  13
ENDBRANCH   3   6
BRANCH   2  20
ATOM     18  O   UNL     1      38.262 -21.998 -15.773  0.00  0.00    -0.270 OA
ATOM     19  N   UNL     1      37.180 -24.020 -15.641  0.00  0.00    -0.298 N 
ATOM     20  C   UNL     1      37.372 -22.749 -16.176  0.00  0.00    +0.252 C 
ATOM     21  H   UNL     1      36.455 -24.583 -15.997  0.00  0.00    +0.150 HD
BRANCH  19  22
ATOM     22  C   UNL     1      38.012 -24.540 -14.578  0.00  0.00    +0.105 C 
BRANCH  22  23
ATOM     23  C   UNL     1      37.295 -24.420 -13.247  0.00  0.00    -0.004 C 
ATOM     24  C   UNL     1      37.976 -23.901 -12.162  0.00  0.00    -0.003 C 
ATOM     25  C   UNL     1      35.979 -24.832 -13.152  0.00  0.00    -0.003 C 
ATOM     26  C   UNL     1      37.317 -23.790 -10.937  0.00  0.00    -0.000 C 
ATOM     27  C   UNL     1      35.321 -24.722 -11.928  0.00  0.00    -0.000 C 
ATOM     28  C   UNL     1      35.990 -24.202 -10.820  0.00  0.00    -0.000 C 
ENDBRANCH  22  23
BRANCH  22  29
ATOM     29  C   UNL     1      38.462 -25.974 -14.908  0.00  0.00    +0.133 C 
BRANCH  29  31
ATOM     30  O   UNL     1      40.533 -25.820 -16.187  0.00  0.00    -0.250 OA
ATOM     31  C   UNL     1      39.952 -26.096 -15.146  0.00  0.00    +0.316 C 
BRANCH  31  32
ATOM     32  O   UNL     1      40.592 -26.585 -14.050  0.00  0.00    -0.480 OA
ATOM     33  H   UNL     1      40.366 -27.429 -13.715  0.00  0.00    +0.295 HD
ENDBRANCH  31  32
ENDBRANCH  29  31
ENDBRANCH  22  29
ENDBRANCH  19  22
ENDBRANCH   2  20
TORSDOF 8
ENDMDL
MODEL 6
REMARK VINA RESULT:     -11.5     10.132     15.903
REMARK  Name = 448942
REMARK  8 active torsions:
REMARK  status: ('A' for Active; 'I' for Inactive)
REMARK    1  A    between atoms: C_2  and  C_20
REMARK    2  A    between atoms: C_3  and  C_6
REMARK    3  A    between atoms: C_7  and  C_13
REMARK    4  A    between atoms: N_19  and  C_22
REMARK    5  A    between atoms: C_22  and  C_23
REMARK    6  A    between atoms: C_22  and  C_29
REMARK    7  A    between atoms: C_29  and  C_31
REMARK    8  A    between atoms: C_31  and  O_32
REMARK                            x       y       z     vdW  Elec       q    Type
REMARK                         _______ _______ _______ _____ _____    ______ ____
ROOT
ATOM      1  S   UNL     1      31.267 -10.046 -21.064  0.00  0.00    -0.082 S 
ATOM      2  C   UNL     1      32.008  -9.673 -22.540  0.00  0.00    +0.083 C 
ATOM      3  C   UNL     1      32.548 -11.881 -22.326  0.00  0.00    +0.007 C 
ATOM      4  C   UNL     1      32.656 -10.705 -23.123  0.00  0.00    +0.012 C 
ATOM      5  C   UNL     1      31.820 -11.663 -21.178  0.00  0.00    +0.036 C 
ENDROOT
BRANCH   3   6
ATOM      6  C   UNL     1      33.103 -13.177 -22.612  0.00  0.00    +0.001 C 
ATOM      7  C   UNL     1      34.179 -15.689 -23.165  0.00  0.00    +0.000 C 
ATOM      8  C   UNL     1      33.246 -13.597 -23.933  0.00  0.00    +0.000 C 
ATOM      9  C   UNL     1      33.498 -14.010 -21.566  0.00  0.00    +0.000 C 
ATOM     10  C   UNL     1      33.783 -14.853 -24.210  0.00  0.00    +0.000 C 
ATOM     11  C   UNL     1      34.036 -15.267 -21.843  0.00  0.00    +0.000 C 
BRANCH   7  13
ATOM     12  N   UNL     1      35.808 -19.513 -24.007  0.00  0.00    -0.242 NA
ATOM     13  C   UNL     1      34.735 -16.992 -23.452  0.00  0.00    +0.003 C 
ATOM     14  C   UNL     1      34.339 -17.684 -24.591  0.00  0.00    +0.021 C 
ATOM     15  C   UNL     1      35.668 -17.560 -22.590  0.00  0.00    +0.021 C 
ATOM     16  C   UNL     1      34.900 -18.930 -24.822  0.00  0.00    +0.099 C 
ATOM     17  C   UNL     1      36.169 -18.811 -22.910  0.00  0.00    +0.099 C 
ENDBRANCH   7  13
ENDBRANCH   3   6
BRANCH   2  20
ATOM     18  O   UNL     1      31.150  -8.006 -23.988  0.00  0.00    -0.270 OA
ATOM     19  N   UNL     1      32.672  -7.348 -22.399  0.00  0.00    -0.298 N 
ATOM     20  C   UNL     1      31.884  -8.298 -23.042  0.00  0.00    +0.252 C 
ATOM     21  H   UNL     1      33.243  -7.631 -21.648  0.00  0.00    +0.150 HD
BRANCH  19  22
ATOM     22  C   UNL     1      32.682  -5.958 -22.801  0.00  0.00    +0.105 C 
BRANCH  22  23
ATOM     23  C   UNL     1      33.404  -5.802 -24.125  0.00  0.00    -0.004 C 
ATOM     24  C   UNL     1      34.628  -6.421 -24.300  0.00  0.00    -0.003 C 
ATOM     25  C   UNL     1      32.821  -5.046 -25.125  0.00  0.00    -0.003 C 
ATOM     26  C   UNL     1      35.293  -6.278 -25.518  0.00  0.00    -0.000 C 
ATOM     27  C   UNL     1      33.486  -4.902 -26.342  0.00  0.00    -0.000 C 
ATOM     28  C   UNL     1      34.722  -5.518 -26.538  0.00  0.00    -0.000 C 
ENDBRANCH  22  23
BRANCH  22  29
ATOM     29  C   UNL     1      31.249  -5.398 -22.811  0.00  0.00    +0.133 C 
BRANCH  29  31
ATOM     30  O   UNL     1      29.546  -4.793 -21.173  0.00  0.00    -0.250 OA
ATOM     31  C   UNL     1      30.668  -5.209 -21.425  0.00  0.00    +0.316 C 
BRANCH  31  32
ATOM     32  O   UNL     1      31.568  -5.539 -20.461  0.00  0.00    -0.480 OA
ATOM     33  H   UNL     1      31.732  -6.439 -20.263  0.00  0.00    +0.295 HD
ENDBRANCH  31  32
ENDBRANCH  29  31
ENDBRANCH  22  29
ENDBRANCH  19  22
ENDBRANCH   2  20
TORSDOF 8
ENDMDL
MODEL 7
REMARK VINA RESULT:     -11.4     10.165     15.889
REMARK  Name = 448942
REMARK  8 active torsions:
REMARK  status: ('A' for Active; 'I' for Inactive)
REMARK    1  A    between atoms: C_2  and  C_20
REMARK    2  A    between atoms: C_3  and  C_6
REMARK    3  A    between atoms: C_7  and  C_13
REMARK    4  A    between atoms: N_19  and  C_22
REMARK    5  A    between atoms: C_22  and  C_23
REMARK    6  A    between atoms: C_22  and  C_29
REMARK    7  A    between atoms: C_29  and  C_31
REMARK    8  A    between atoms: C_31  and  O_32
REMARK                            x       y       z     vdW  Elec       q    Type
REMARK                         _______ _______ _______ _____ _____    ______ ____
ROOT
ATOM      1  S   UNL     1      31.206 -10.058 -21.141  0.00  0.00    -0.082 S 
ATOM      2  C   UNL     1      31.986  -9.676 -22.594  0.00  0.00    +0.083 C 
ATOM      3  C   UNL     1      32.515 -11.888 -22.383  0.00  0.00    +0.007 C 
ATOM      4  C   UNL     1      32.646 -10.705 -23.168  0.00  0.00    +0.012 C 
ATOM      5  C   UNL     1      31.758 -11.676 -21.253  0.00  0.00    +0.036 C 
ENDROOT
BRANCH   3   6
ATOM      6  C   UNL     1      33.074 -13.182 -22.665  0.00  0.00    +0.001 C 
ATOM      7  C   UNL     1      34.160 -15.691 -23.212  0.00  0.00    +0.000 C 
ATOM      8  C   UNL     1      33.472 -14.011 -21.618  0.00  0.00    +0.000 C 
ATOM      9  C   UNL     1      33.219 -13.604 -23.986  0.00  0.00    +0.000 C 
ATOM     10  C   UNL     1      34.015 -15.267 -21.891  0.00  0.00    +0.000 C 
ATOM     11  C   UNL     1      33.762 -14.860 -24.259  0.00  0.00    +0.000 C 
BRANCH   7  13
ATOM     12  N   UNL     1      35.813 -19.507 -24.043  0.00  0.00    -0.242 NA
ATOM     13  C   UNL     1      34.724 -16.992 -23.496  0.00  0.00    +0.003 C 
ATOM     14  C   UNL     1      34.317 -17.699 -24.622  0.00  0.00    +0.021 C 
ATOM     15  C   UNL     1      35.675 -17.542 -22.643  0.00  0.00    +0.021 C 
ATOM     16  C   UNL     1      34.887 -18.941 -24.849  0.00  0.00    +0.099 C 
ATOM     17  C   UNL     1      36.184 -18.791 -22.958  0.00  0.00    +0.099 C 
ENDBRANCH   7  13
ENDBRANCH   3   6
BRANCH   2  20
ATOM     18  O   UNL     1      31.158  -7.994 -24.041  0.00  0.00    -0.270 OA
ATOM     19  N   UNL     1      32.667  -7.357 -22.430  0.00  0.00    -0.298 N 
ATOM     20  C   UNL     1      31.878  -8.297 -23.088  0.00  0.00    +0.252 C 
ATOM     21  H   UNL     1      33.226  -7.650 -21.674  0.00  0.00    +0.150 HD
BRANCH  19  22
ATOM     22  C   UNL     1      32.691  -5.965 -22.823  0.00  0.00    +0.105 C 
BRANCH  22  23
ATOM     23  C   UNL     1      33.416  -5.808 -24.146  0.00  0.00    -0.004 C 
ATOM     24  C   UNL     1      32.835  -5.048 -25.144  0.00  0.00    -0.003 C 
ATOM     25  C   UNL     1      34.638  -6.430 -24.321  0.00  0.00    -0.003 C 
ATOM     26  C   UNL     1      33.501  -4.904 -26.361  0.00  0.00    -0.000 C 
ATOM     27  C   UNL     1      35.303  -6.286 -25.538  0.00  0.00    -0.000 C 
ATOM     28  C   UNL     1      34.734  -5.524 -26.559  0.00  0.00    -0.000 C 
ENDBRANCH  22  23
BRANCH  22  29
ATOM     29  C   UNL     1      31.265  -5.389 -22.830  0.00  0.00    +0.133 C 
BRANCH  29  31
ATOM     30  O   UNL     1      29.555  -4.810 -21.190  0.00  0.00    -0.250 OA
ATOM     31  C   UNL     1      30.682  -5.213 -21.443  0.00  0.00    +0.316 C 
BRANCH  31  32
ATOM     32  O   UNL     1      31.585  -5.536 -20.480  0.00  0.00    -0.480 OA
ATOM     33  H   UNL     1      32.330  -4.988 -20.334  0.00  0.00    +0.295 HD
ENDBRANCH  31  32
ENDBRANCH  29  31
ENDBRANCH  22  29
ENDBRANCH  19  22
ENDBRANCH   2  20
TORSDOF 8
ENDMDL
MODEL 8
REMARK VINA RESULT:     -11.2      8.938     14.847
REMARK  Name = 448942
REMARK  8 active torsions:
REMARK  status: ('A' for Active; 'I' for Inactive)
REMARK    1  A    between atoms: C_2  and  C_20
REMARK    2  A    between atoms: C_3  and  C_6
REMARK    3  A    between atoms: C_7  and  C_13
REMARK    4  A    between atoms: N_19  and  C_22
REMARK    5  A    between atoms: C_22  and  C_23
REMARK    6  A    between atoms: C_22  and  C_29
REMARK    7  A    between atoms: C_29  and  C_31
REMARK    8  A    between atoms: C_31  and  O_32
REMARK                            x       y       z     vdW  Elec       q    Type
REMARK                         _______ _______ _______ _____ _____    ______ ____
ROOT
ATOM      1  S   UNL     1      33.738 -11.643 -25.137  0.00  0.00    -0.082 S 
ATOM      2  C   UNL     1      33.407 -11.318 -23.509  0.00  0.00    +0.083 C 
ATOM      3  C   UNL     1      34.097 -13.492 -23.389  0.00  0.00    +0.007 C 
ATOM      4  C   UNL     1      33.627 -12.354 -22.670  0.00  0.00    +0.012 C 
ATOM      5  C   UNL     1      34.202 -13.243 -24.739  0.00  0.00    +0.036 C 
ENDROOT
BRANCH   3   6
ATOM      6  C   UNL     1      34.439 -14.780 -22.847  0.00  0.00    +0.001 C 
ATOM      7  C   UNL     1      35.101 -17.275 -21.795  0.00  0.00    +0.000 C 
ATOM      8  C   UNL     1      34.812 -15.816 -23.699  0.00  0.00    +0.000 C 
ATOM      9  C   UNL     1      34.395 -14.987 -21.468  0.00  0.00    +0.000 C 
ATOM     10  C   UNL     1      35.144 -17.065 -23.174  0.00  0.00    +0.000 C 
ATOM     11  C   UNL     1      34.727 -16.236 -20.943  0.00  0.00    +0.000 C 
BRANCH   7  13
ATOM     12  N   UNL     1      36.103 -21.073 -20.194  0.00  0.00    -0.242 NA
ATOM     13  C   UNL     1      35.443 -18.570 -21.250  0.00  0.00    +0.003 C 
ATOM     14  C   UNL     1      34.448 -19.510 -21.009  0.00  0.00    +0.021 C 
ATOM     15  C   UNL     1      36.768 -18.880 -20.963  0.00  0.00    +0.021 C 
ATOM     16  C   UNL     1      34.826 -20.736 -20.485  0.00  0.00    +0.099 C 
ATOM     17  C   UNL     1      37.043 -20.133 -20.441  0.00  0.00    +0.099 C 
ENDBRANCH   7  13
ENDBRANCH   3   6
BRANCH   2  20
ATOM     18  O   UNL     1      31.732  -9.669 -23.220  0.00  0.00    -0.270 OA
ATOM     19  N   UNL     1      33.905  -9.059 -22.790  0.00  0.00    -0.298 N 
ATOM     20  C   UNL     1      32.924  -9.975 -23.161  0.00  0.00    +0.252 C 
ATOM     21  H   UNL     1      34.844  -9.353 -22.758  0.00  0.00    +0.150 HD
BRANCH  19  22
ATOM     22  C   UNL     1      33.587  -7.689 -22.450  0.00  0.00    +0.105 C 
BRANCH  22  23
ATOM     23  C   UNL     1      33.667  -6.813 -23.685  0.00  0.00    -0.004 C 
ATOM     24  C   UNL     1      32.551  -6.095 -24.072  0.00  0.00    -0.003 C 
ATOM     25  C   UNL     1      34.852  -6.755 -24.393  0.00  0.00    -0.003 C 
ATOM     26  C   UNL     1      32.624  -5.289 -25.208  0.00  0.00    -0.000 C 
ATOM     27  C   UNL     1      34.926  -5.950 -25.529  0.00  0.00    -0.000 C 
ATOM     28  C   UNL     1      33.810  -5.217 -25.937  0.00  0.00    -0.000 C 
ENDBRANCH  22  23
BRANCH  22  29
ATOM     29  C   UNL     1      32.227  -7.621 -21.733  0.00  0.00    +0.133 C 
BRANCH  29  31
ATOM     30  O   UNL     1      31.876  -6.858 -19.443  0.00  0.00    -0.250 OA
ATOM     31  C   UNL     1      32.341  -7.677 -20.224  0.00  0.00    +0.316 C 
BRANCH  31  32
ATOM     32  O   UNL     1      33.062  -8.756 -19.819  0.00  0.00    -0.480 OA
ATOM     33  H   UNL     1      33.940  -8.873 -20.122  0.00  0.00    +0.295 HD
ENDBRANCH  31  32
ENDBRANCH  29  31
ENDBRANCH  22  29
ENDBRANCH  19  22
ENDBRANCH   2  20
TORSDOF 8
ENDMDL
MODEL 9
REMARK VINA RESULT:     -11.0      7.050     11.097
REMARK  Name = 448942
REMARK  8 active torsions:
REMARK  status: ('A' for Active; 'I' for Inactive)
REMARK    1  A    between atoms: C_2  and  C_20
REMARK    2  A    between atoms: C_3  and  C_6
REMARK    3  A    between atoms: C_7  and  C_13
REMARK    4  A    between atoms: N_19  and  C_22
REMARK    5  A    between atoms: C_22  and  C_23
REMARK    6  A    between atoms: C_22  and  C_29
REMARK    7  A    between atoms: C_29  and  C_31
REMARK    8  A    between atoms: C_31  and  O_32
REMARK                            x       y       z     vdW  Elec       q    Type
REMARK                         _______ _______ _______ _____ _____    ______ ____
ROOT
ATOM      1  S   UNL     1      33.715 -15.562 -24.150  0.00  0.00    -0.082 S 
ATOM      2  C   UNL     1      34.296 -15.442 -22.565  0.00  0.00    +0.083 C 
ATOM      3  C   UNL     1      33.392 -13.365 -22.856  0.00  0.00    +0.007 C 
ATOM      4  C   UNL     1      34.077 -14.248 -21.971  0.00  0.00    +0.012 C 
ATOM      5  C   UNL     1      33.135 -13.952 -24.075  0.00  0.00    +0.036 C 
ENDROOT
BRANCH   3   6
ATOM      6  C   UNL     1      32.985 -12.012 -22.588  0.00  0.00    +0.001 C 
ATOM      7  C   UNL     1      32.196  -9.390 -22.066  0.00  0.00    +0.000 C 
ATOM      8  C   UNL     1      33.403 -10.981 -23.426  0.00  0.00    +0.000 C 
ATOM      9  C   UNL     1      32.174 -11.736 -21.488  0.00  0.00    +0.000 C 
ATOM     10  C   UNL     1      33.009  -9.668 -23.166  0.00  0.00    +0.000 C 
ATOM     11  C   UNL     1      31.780 -10.423 -21.227  0.00  0.00    +0.000 C 
BRANCH   7  13
ATOM     12  N   UNL     1      31.003  -5.398 -21.271  0.00  0.00    -0.242 NA
ATOM     13  C   UNL     1      31.789  -8.029 -21.794  0.00  0.00    +0.003 C 
ATOM     14  C   UNL     1      31.168  -7.276 -22.784  0.00  0.00    +0.021 C 
ATOM     15  C   UNL     1      32.017  -7.467 -20.543  0.00  0.00    +0.021 C 
ATOM     16  C   UNL     1      30.797  -5.977 -22.476  0.00  0.00    +0.099 C 
ATOM     17  C   UNL     1      31.610  -6.160 -20.334  0.00  0.00    +0.099 C 
ENDBRANCH   7  13
ENDBRANCH   3   6
BRANCH   2  20
ATOM     18  O   UNL     1      35.375 -16.637 -20.827  0.00  0.00    -0.270 OA
ATOM     19  N   UNL     1      35.140 -17.694 -22.852  0.00  0.00    -0.298 N 
ATOM     20  C   UNL     1      34.967 -16.615 -21.990  0.00  0.00    +0.252 C 
ATOM     21  H   UNL     1      34.796 -17.628 -23.773  0.00  0.00    +0.150 HD
BRANCH  19  22
ATOM     22  C   UNL     1      35.811 -18.908 -22.440  0.00  0.00    +0.105 C 
BRANCH  22  23
ATOM     23  C   UNL     1      34.928 -19.696 -21.492  0.00  0.00    -0.004 C 
ATOM     24  C   UNL     1      35.516 -20.564 -20.591  0.00  0.00    -0.003 C 
ATOM     25  C   UNL     1      33.557 -19.527 -21.552  0.00  0.00    -0.003 C 
ATOM     26  C   UNL     1      34.704 -21.289 -19.718  0.00  0.00    -0.000 C 
ATOM     27  C   UNL     1      32.745 -20.252 -20.681  0.00  0.00    -0.000 C 
ATOM     28  C   UNL     1      33.319 -21.134 -19.764  0.00  0.00    -0.000 C 
ENDBRANCH  22  23
BRANCH  22  29
ATOM     29  C   UNL     1      36.261 -19.711 -23.673  0.00  0.00    +0.133 C 
BRANCH  29  31
ATOM     30  O   UNL     1      34.292 -19.068 -24.959  0.00  0.00    -0.250 OA
ATOM     31  C   UNL     1      35.171 -19.881 -24.710  0.00  0.00    +0.316 C 
BRANCH  31  32
ATOM     32  O   UNL     1      35.264 -21.085 -25.335  0.00  0.00    -0.480 OA
ATOM     33  H   UNL     1      34.511 -21.638 -25.398  0.00  0.00    +0.295 HD
ENDBRANCH  31  32
ENDBRANCH  29  31
ENDBRANCH  22  29
ENDBRANCH  19  22
ENDBRANCH   2  20
TORSDOF 8
ENDMDL
