MODEL 1
REMARK VINA RESULT:     -14.2      0.000      0.000
REMARK  Name = 5326869
REMARK  6 active torsions:
REMARK  status: ('A' for Active; 'I' for Inactive)
REMARK    1  A    between atoms: N_2  and  C_11
REMARK    2  A    between atoms: C_3  and  C_25
REMARK    3  A    between atoms: N_5  and  C_14
REMARK    4  A    between atoms: C_14  and  C_15
REMARK    5  A    between atoms: C_15  and  C_17
REMARK    6  A    between atoms: C_23  and  N_30
REMARK                            x       y       z     vdW  Elec       q    Type
REMARK                         _______ _______ _______ _____ _____    ______ ____
ROOT
ATOM      1  O   UNL     1      31.944 -13.549 -21.461  0.00  0.00    -0.270 OA
ATOM      2  N   UNL     1      33.333 -12.961 -23.265  0.00  0.00    -0.280 N 
ATOM      3  C   UNL     1      32.529 -12.715 -22.143  0.00  0.00    +0.250 C 
ATOM      4  H   UNL     1      33.728 -12.168 -23.694  0.00  0.00    +0.155 HD
ENDROOT
BRANCH   2  11
ATOM      5  N   UNL     1      35.124 -17.542 -23.190  0.00  0.00    -0.286 N 
ATOM      6  C   UNL     1      34.539 -16.403 -23.696  0.00  0.00    +0.053 C 
ATOM      7  C   UNL     1      34.249 -16.651 -25.039  0.00  0.00    +0.015 C 
ATOM      8  C   UNL     1      35.213 -18.499 -24.165  0.00  0.00    +0.065 C 
ATOM      9  C   UNL     1      34.248 -15.184 -23.072  0.00  0.00    +0.029 C 
ATOM     10  C   UNL     1      34.679 -17.978 -25.321  0.00  0.00    +0.017 C 
ATOM     11  C   UNL     1      33.642 -14.191 -23.847  0.00  0.00    +0.052 C 
ATOM     12  C   UNL     1      33.637 -15.635 -25.799  0.00  0.00    +0.003 C 
ATOM     13  C   UNL     1      33.340 -14.411 -25.189  0.00  0.00    +0.015 C 
BRANCH   5  14
ATOM     14  C   UNL     1      35.582 -17.720 -21.829  0.00  0.00    +0.100 C 
BRANCH  14  15
ATOM     15  C   UNL     1      36.289 -19.058 -21.592  0.00  0.00    +0.048 C 
BRANCH  15  17
ATOM     16  N   UNL     1      33.900 -21.887 -19.435  0.00  0.00    -0.242 NA
ATOM     17  C   UNL     1      35.448 -20.053 -20.832  0.00  0.00    -0.017 C 
ATOM     18  C   UNL     1      34.070 -19.984 -20.916  0.00  0.00    +0.016 C 
ATOM     19  C   UNL     1      36.067 -21.021 -20.064  0.00  0.00    +0.016 C 
ATOM     20  C   UNL     1      33.343 -20.922 -20.200  0.00  0.00    +0.099 C 
ATOM     21  C   UNL     1      35.250 -21.912 -19.386  0.00  0.00    +0.099 C 
ENDBRANCH  15  17
ENDBRANCH  14  15
ENDBRANCH   5  14
ENDBRANCH   2  11
BRANCH   3  25
ATOM     22  F   UNL     1      31.007  -9.293 -19.084  0.00  0.00    -0.204 F 
ATOM     23  C   UNL     1      32.682  -8.975 -22.298  0.00  0.00    +0.050 C 
ATOM     24  C   UNL     1      32.835 -10.318 -22.643  0.00  0.00    +0.019 C 
ATOM     25  C   UNL     1      32.366 -11.284 -21.778  0.00  0.00    +0.057 C 
ATOM     26  C   UNL     1      32.065  -8.629 -21.097  0.00  0.00    +0.044 C 
ATOM     27  C   UNL     1      31.752 -10.968 -20.583  0.00  0.00    +0.034 C 
ATOM     28  C   UNL     1      31.599  -9.625 -20.239  0.00  0.00    +0.142 C 
BRANCH  23  30
ATOM     29  O   UNL     1      33.999  -6.125 -25.096  0.00  0.00    -0.350 OA
ATOM     30  N   UNL     1      33.149  -7.975 -23.158  0.00  0.00    -0.303 N 
ATOM     31  C   UNL     1      34.485  -8.087 -23.754  0.00  0.00    +0.123 C 
ATOM     32  C   UNL     1      32.165  -7.237 -23.962  0.00  0.00    +0.123 C 
ATOM     33  C   UNL     1      34.958  -6.714 -24.219  0.00  0.00    +0.164 C 
ATOM     34  C   UNL     1      32.762  -5.910 -24.416  0.00  0.00    +0.164 C 
ENDBRANCH  23  30
ENDBRANCH   3  25
TORSDOF 6
ENDMDL
MODEL 2
REMARK VINA RESULT:     -13.7      4.615     11.716
REMARK  Name = 5326869
REMARK  6 active torsions:
REMARK  status: ('A' for Active; 'I' for Inactive)
REMARK    1  A    between atoms: N_2  and  C_11
REMARK    2  A    between atoms: C_3  and  C_25
REMARK    3  A    between atoms: N_5  and  C_14
REMARK    4  A    between atoms: C_14  and  C_15
REMARK    5  A    between atoms: C_15  and  C_17
REMARK    6  A    between atoms: C_23  and  N_30
REMARK                            x       y       z     vdW  Elec       q    Type
REMARK                         _______ _______ _______ _____ _____    ______ ____
ROOT
ATOM      1  O   UNL     1      32.774 -21.254 -20.610  0.00  0.00    -0.270 OA
ATOM      2  N   UNL     1      34.893 -20.248 -20.449  0.00  0.00    -0.280 N 
ATOM      3  C   UNL     1      33.854 -21.100 -20.050  0.00  0.00    +0.250 C 
ATOM      4  H   UNL     1      35.695 -20.250 -19.878  0.00  0.00    +0.155 HD
ENDROOT
BRANCH   2  11
ATOM      5  N   UNL     1      34.741 -15.834 -22.616  0.00  0.00    -0.286 N 
ATOM      6  C   UNL     1      34.842 -17.202 -22.501  0.00  0.00    +0.053 C 
ATOM      7  C   UNL     1      35.011 -17.712 -23.789  0.00  0.00    +0.015 C 
ATOM      8  C   UNL     1      34.839 -15.463 -23.930  0.00  0.00    +0.065 C 
ATOM      9  C   UNL     1      34.797 -18.019 -21.364  0.00  0.00    +0.029 C 
ATOM     10  C   UNL     1      35.007 -16.603 -24.681  0.00  0.00    +0.017 C 
ATOM     11  C   UNL     1      34.930 -19.398 -21.554  0.00  0.00    +0.052 C 
ATOM     12  C   UNL     1      35.143 -19.105 -23.955  0.00  0.00    +0.003 C 
ATOM     13  C   UNL     1      35.100 -19.934 -22.829  0.00  0.00    +0.015 C 
BRANCH   5  14
ATOM     14  C   UNL     1      34.558 -14.909 -21.519  0.00  0.00    +0.100 C 
BRANCH  14  15
ATOM     15  C   UNL     1      33.089 -14.578 -21.237  0.00  0.00    +0.048 C 
BRANCH  15  17
ATOM     16  N   UNL     1      31.990 -10.595 -22.374  0.00  0.00    -0.242 NA
ATOM     17  C   UNL     1      32.703 -13.176 -21.636  0.00  0.00    -0.017 C 
ATOM     18  C   UNL     1      33.102 -12.684 -22.865  0.00  0.00    +0.016 C 
ATOM     19  C   UNL     1      31.954 -12.402 -20.769  0.00  0.00    +0.016 C 
ATOM     20  C   UNL     1      32.721 -11.391 -23.186  0.00  0.00    +0.099 C 
ATOM     21  C   UNL     1      31.625 -11.122 -21.184  0.00  0.00    +0.099 C 
ENDBRANCH  15  17
ENDBRANCH  14  15
ENDBRANCH   5  14
ENDBRANCH   2  11
BRANCH   3  25
ATOM     22  F   UNL     1      36.890 -22.929 -16.761  0.00  0.00    -0.204 F 
ATOM     23  C   UNL     1      33.260 -23.102 -16.939  0.00  0.00    +0.050 C 
ATOM     24  C   UNL     1      33.026 -22.384 -18.112  0.00  0.00    +0.019 C 
ATOM     25  C   UNL     1      34.102 -21.867 -18.802  0.00  0.00    +0.057 C 
ATOM     26  C   UNL     1      34.564 -23.286 -16.483  0.00  0.00    +0.044 C 
ATOM     27  C   UNL     1      35.403 -22.035 -18.372  0.00  0.00    +0.034 C 
ATOM     28  C   UNL     1      35.637 -22.753 -17.199  0.00  0.00    +0.142 C 
BRANCH  23  30
ATOM     29  O   UNL     1      29.988 -24.459 -14.672  0.00  0.00    -0.350 OA
ATOM     30  N   UNL     1      32.186 -23.637 -16.221  0.00  0.00    -0.303 N 
ATOM     31  C   UNL     1      32.380 -24.084 -14.837  0.00  0.00    +0.123 C 
ATOM     32  C   UNL     1      30.833 -23.163 -16.541  0.00  0.00    +0.123 C 
ATOM     33  C   UNL     1      31.267 -25.051 -14.447  0.00  0.00    +0.164 C 
ATOM     34  C   UNL     1      29.803 -24.178 -16.060  0.00  0.00    +0.164 C 
ENDBRANCH  23  30
ENDBRANCH   3  25
TORSDOF 6
ENDMDL
MODEL 3
REMARK VINA RESULT:     -13.4      4.648     11.779
REMARK  Name = 5326869
REMARK  6 active torsions:
REMARK  status: ('A' for Active; 'I' for Inactive)
REMARK    1  A    between atoms: N_2  and  C_11
REMARK    2  A    between atoms: C_3  and  C_25
REMARK    3  A    between atoms: N_5  and  C_14
REMARK    4  A    between atoms: C_14  and  C_15
REMARK    5  A    between atoms: C_15  and  C_17
REMARK    6  A    between atoms: C_23  and  N_30
REMARK                            x       y       z     vdW  Elec       q    Type
REMARK                         _______ _______ _______ _____ _____    ______ ____
ROOT
ATOM      1  O   UNL     1      36.822 -20.905 -20.116  0.00  0.00    -0.270 OA
ATOM      2  N   UNL     1      34.623 -20.189 -20.540  0.00  0.00    -0.280 N 
ATOM      3  C   UNL     1      35.621 -20.909 -19.870  0.00  0.00    +0.250 C 
ATOM      4  H   UNL     1      33.704 -20.312 -20.207  0.00  0.00    +0.155 HD
ENDROOT
BRANCH   2  11
ATOM      5  N   UNL     1      34.775 -15.731 -22.615  0.00  0.00    -0.286 N 
ATOM      6  C   UNL     1      34.824 -17.104 -22.523  0.00  0.00    +0.053 C 
ATOM      7  C   UNL     1      35.074 -17.594 -23.806  0.00  0.00    +0.015 C 
ATOM      8  C   UNL     1      34.985 -15.338 -23.910  0.00  0.00    +0.065 C 
ATOM      9  C   UNL     1      34.668 -17.940 -21.411  0.00  0.00    +0.029 C 
ATOM     10  C   UNL     1      35.173 -16.468 -24.671  0.00  0.00    +0.017 C 
ATOM     11  C   UNL     1      34.771 -19.319 -21.621  0.00  0.00    +0.052 C 
ATOM     12  C   UNL     1      35.174 -18.987 -23.992  0.00  0.00    +0.003 C 
ATOM     13  C   UNL     1      35.020 -19.836 -22.890  0.00  0.00    +0.015 C 
BRANCH   5  14
ATOM     14  C   UNL     1      34.539 -14.822 -21.515  0.00  0.00    +0.100 C 
BRANCH  14  15
ATOM     15  C   UNL     1      33.056 -14.517 -21.281  0.00  0.00    +0.048 C 
BRANCH  15  17
ATOM     16  N   UNL     1      31.956 -10.511 -22.331  0.00  0.00    -0.242 NA
ATOM     17  C   UNL     1      32.668 -13.108 -21.651  0.00  0.00    -0.017 C 
ATOM     18  C   UNL     1      31.933 -12.348 -20.761  0.00  0.00    +0.016 C 
ATOM     19  C   UNL     1      33.054 -12.594 -22.875  0.00  0.00    +0.016 C 
ATOM     20  C   UNL     1      31.603 -11.059 -21.147  0.00  0.00    +0.099 C 
ATOM     21  C   UNL     1      32.674 -11.294 -23.166  0.00  0.00    +0.099 C 
ENDBRANCH  15  17
ENDBRANCH  14  15
ENDBRANCH   5  14
ENDBRANCH   2  11
BRANCH   3  25
ATOM     22  F   UNL     1      32.106 -23.428 -17.705  0.00  0.00    -0.204 F 
ATOM     23  C   UNL     1      35.585 -22.973 -16.743  0.00  0.00    +0.050 C 
ATOM     24  C   UNL     1      36.033 -22.153 -17.778  0.00  0.00    +0.019 C 
ATOM     25  C   UNL     1      35.144 -21.781 -18.765  0.00  0.00    +0.057 C 
ATOM     26  C   UNL     1      34.259 -23.403 -16.718  0.00  0.00    +0.044 C 
ATOM     27  C   UNL     1      33.827 -22.193 -18.764  0.00  0.00    +0.034 C 
ATOM     28  C   UNL     1      33.379 -23.013 -17.728  0.00  0.00    +0.142 C 
BRANCH  23  30
ATOM     29  O   UNL     1      38.254 -23.883 -13.623  0.00  0.00    -0.350 OA
ATOM     30  N   UNL     1      36.466 -23.364 -15.730  0.00  0.00    -0.303 N 
ATOM     31  C   UNL     1      37.915 -23.294 -15.952  0.00  0.00    +0.123 C 
ATOM     32  C   UNL     1      36.039 -23.194 -14.334  0.00  0.00    +0.123 C 
ATOM     33  C   UNL     1      38.633 -24.203 -14.961  0.00  0.00    +0.164 C 
ATOM     34  C   UNL     1      36.857 -24.108 -13.429  0.00  0.00    +0.164 C 
ENDBRANCH  23  30
ENDBRANCH   3  25
TORSDOF 6
ENDMDL
MODEL 4
REMARK VINA RESULT:     -13.3      4.628      8.936
REMARK  Name = 5326869
REMARK  6 active torsions:
REMARK  status: ('A' for Active; 'I' for Inactive)
REMARK    1  A    between atoms: N_2  and  C_11
REMARK    2  A    between atoms: C_3  and  C_25
REMARK    3  A    between atoms: N_5  and  C_14
REMARK    4  A    between atoms: C_14  and  C_15
REMARK    5  A    between atoms: C_15  and  C_17
REMARK    6  A    between atoms: C_23  and  N_30
REMARK                            x       y       z     vdW  Elec       q    Type
REMARK                         _______ _______ _______ _____ _____    ______ ____
ROOT
ATOM      1  O   UNL     1      36.529 -18.697 -20.457  0.00  0.00    -0.270 OA
ATOM      2  N   UNL     1      35.384 -20.741 -20.652  0.00  0.00    -0.280 N 
ATOM      3  C   UNL     1      35.842 -19.491 -21.090  0.00  0.00    +0.250 C 
ATOM      4  H   UNL     1      34.840 -21.251 -21.296  0.00  0.00    +0.155 HD
ENDROOT
BRANCH   2  11
ATOM      5  N   UNL     1      33.970 -23.267 -16.675  0.00  0.00    -0.286 N 
ATOM      6  C   UNL     1      34.807 -22.586 -17.529  0.00  0.00    +0.053 C 
ATOM      7  C   UNL     1      36.074 -22.574 -16.941  0.00  0.00    +0.015 C 
ATOM      8  C   UNL     1      34.663 -23.686 -15.570  0.00  0.00    +0.065 C 
ATOM      9  C   UNL     1      34.542 -21.984 -18.765  0.00  0.00    +0.029 C 
ATOM     10  C   UNL     1      35.968 -23.272 -15.706  0.00  0.00    +0.017 C 
ATOM     11  C   UNL     1      35.605 -21.352 -19.417  0.00  0.00    +0.052 C 
ATOM     12  C   UNL     1      37.130 -21.932 -17.619  0.00  0.00    +0.003 C 
ATOM     13  C   UNL     1      36.879 -21.326 -18.855  0.00  0.00    +0.015 C 
BRANCH   5  14
ATOM     14  C   UNL     1      32.562 -23.515 -16.897  0.00  0.00    +0.100 C 
BRANCH  14  15
ATOM     15  C   UNL     1      31.731 -23.513 -15.610  0.00  0.00    +0.048 C 
BRANCH  15  17
ATOM     16  N   UNL     1      27.509 -23.305 -16.314  0.00  0.00    -0.242 NA
ATOM     17  C   UNL     1      30.245 -23.440 -15.857  0.00  0.00    -0.017 C 
ATOM     18  C   UNL     1      29.529 -22.354 -15.389  0.00  0.00    +0.016 C 
ATOM     19  C   UNL     1      29.619 -24.460 -16.550  0.00  0.00    +0.016 C 
ATOM     20  C   UNL     1      28.167 -22.334 -15.643  0.00  0.00    +0.099 C 
ATOM     21  C   UNL     1      28.253 -24.345 -16.751  0.00  0.00    +0.099 C 
ENDBRANCH  15  17
ENDBRANCH  14  15
ENDBRANCH   5  14
ENDBRANCH   2  11
BRANCH   3  25
ATOM     22  F   UNL     1      34.925 -20.617 -25.703  0.00  0.00    -0.204 F 
ATOM     23  C   UNL     1      34.668 -17.421 -23.984  0.00  0.00    +0.050 C 
ATOM     24  C   UNL     1      35.070 -17.787 -22.699  0.00  0.00    +0.019 C 
ATOM     25  C   UNL     1      35.415 -19.100 -22.459  0.00  0.00    +0.057 C 
ATOM     26  C   UNL     1      34.619 -18.377 -24.998  0.00  0.00    +0.044 C 
ATOM     27  C   UNL     1      35.375 -20.065 -23.444  0.00  0.00    +0.034 C 
ATOM     28  C   UNL     1      34.973 -19.699 -24.729  0.00  0.00    +0.142 C 
BRANCH  23  30
ATOM     29  O   UNL     1      33.822 -13.420 -24.962  0.00  0.00    -0.350 OA
ATOM     30  N   UNL     1      34.313 -16.096 -24.254  0.00  0.00    -0.303 N 
ATOM     31  C   UNL     1      34.933 -15.002 -23.496  0.00  0.00    +0.123 C 
ATOM     32  C   UNL     1      33.901 -15.753 -25.622  0.00  0.00    +0.123 C 
ATOM     33  C   UNL     1      34.067 -13.751 -23.596  0.00  0.00    +0.164 C 
ATOM     34  C   UNL     1      33.091 -14.462 -25.609  0.00  0.00    +0.164 C 
ENDBRANCH  23  30
ENDBRANCH   3  25
TORSDOF 6
ENDMDL
MODEL 5
REMARK VINA RESULT:     -12.7      2.883     10.998
REMARK  Name = 5326869
REMARK  6 active torsions:
REMARK  status: ('A' for Active; 'I' for Inactive)
REMARK    1  A    between atoms: N_2  and  C_11
REMARK    2  A    between atoms: C_3  and  C_25
REMARK    3  A    between atoms: N_5  and  C_14
REMARK    4  A    between atoms: C_14  and  C_15
REMARK    5  A    between atoms: C_15  and  C_17
REMARK    6  A    between atoms: C_23  and  N_30
REMARK                            x       y       z     vdW  Elec       q    Type
REMARK                         _______ _______ _______ _____ _____    ______ ____
ROOT
ATOM      1  O   UNL     1      34.368 -11.313 -24.048  0.00  0.00    -0.270 OA
ATOM      2  N   UNL     1      32.688 -12.099 -22.604  0.00  0.00    -0.280 N 
ATOM      3  C   UNL     1      33.627 -12.200 -23.639  0.00  0.00    +0.250 C 
ATOM      4  H   UNL     1      32.174 -12.916 -22.407  0.00  0.00    +0.155 HD
ENDROOT
BRANCH   2  11
ATOM      5  N   UNL     1      31.982  -7.284 -21.882  0.00  0.00    -0.286 N 
ATOM      6  C   UNL     1      32.070  -8.625 -21.583  0.00  0.00    +0.053 C 
ATOM      7  C   UNL     1      31.790  -8.763 -20.223  0.00  0.00    +0.015 C 
ATOM      8  C   UNL     1      31.657  -6.572 -20.759  0.00  0.00    +0.065 C 
ATOM      9  C   UNL     1      32.374  -9.716 -22.407  0.00  0.00    +0.029 C 
ATOM     10  C   UNL     1      31.530  -7.459 -19.715  0.00  0.00    +0.017 C 
ATOM     11  C   UNL     1      32.391 -10.984 -21.819  0.00  0.00    +0.052 C 
ATOM     12  C   UNL     1      31.812 -10.052 -19.653  0.00  0.00    +0.003 C 
ATOM     13  C   UNL     1      32.114 -11.152 -20.464  0.00  0.00    +0.015 C 
BRANCH   5  14
ATOM     14  C   UNL     1      32.198  -6.696 -23.186  0.00  0.00    +0.100 C 
BRANCH  14  15
ATOM     15  C   UNL     1      33.670  -6.673 -23.610  0.00  0.00    +0.048 C 
BRANCH  15  17
ATOM     16  N   UNL     1      34.363  -4.489 -27.231  0.00  0.00    -0.242 NA
ATOM     17  C   UNL     1      33.914  -5.904 -24.884  0.00  0.00    -0.017 C 
ATOM     18  C   UNL     1      35.158  -5.956 -25.483  0.00  0.00    +0.016 C 
ATOM     19  C   UNL     1      32.890  -5.157 -25.436  0.00  0.00    +0.016 C 
ATOM     20  C   UNL     1      35.332  -5.233 -26.652  0.00  0.00    +0.099 C 
ATOM     21  C   UNL     1      33.165  -4.470 -26.607  0.00  0.00    +0.099 C 
ENDBRANCH  15  17
ENDBRANCH  14  15
ENDBRANCH   5  14
ENDBRANCH   2  11
BRANCH   3  25
ATOM     22  F   UNL     1      33.047 -14.967 -27.562  0.00  0.00    -0.204 F 
ATOM     23  C   UNL     1      34.184 -15.858 -24.223  0.00  0.00    +0.050 C 
ATOM     24  C   UNL     1      34.120 -14.617 -23.590  0.00  0.00    +0.019 C 
ATOM     25  C   UNL     1      33.694 -13.522 -24.313  0.00  0.00    +0.057 C 
ATOM     26  C   UNL     1      33.822 -15.976 -25.564  0.00  0.00    +0.044 C 
ATOM     27  C   UNL     1      33.330 -13.613 -25.640  0.00  0.00    +0.034 C 
ATOM     28  C   UNL     1      33.394 -14.854 -26.274  0.00  0.00    +0.142 C 
BRANCH  23  30
ATOM     29  O   UNL     1      35.732 -19.158 -22.126  0.00  0.00    -0.350 OA
ATOM     30  N   UNL     1      34.612 -16.984 -23.513  0.00  0.00    -0.303 N 
ATOM     31  C   UNL     1      35.013 -18.197 -24.235  0.00  0.00    +0.123 C 
ATOM     32  C   UNL     1      35.279 -16.776 -22.220  0.00  0.00    +0.123 C 
ATOM     33  C   UNL     1      34.953 -19.398 -23.297  0.00  0.00    +0.164 C 
ATOM     34  C   UNL     1      35.205 -18.053 -21.390  0.00  0.00    +0.164 C 
ENDBRANCH  23  30
ENDBRANCH   3  25
TORSDOF 6
ENDMDL
MODEL 6
REMARK VINA RESULT:     -12.6      2.894      5.806
REMARK  Name = 5326869
REMARK  6 active torsions:
REMARK  status: ('A' for Active; 'I' for Inactive)
REMARK    1  A    between atoms: N_2  and  C_11
REMARK    2  A    between atoms: C_3  and  C_25
REMARK    3  A    between atoms: N_5  and  C_14
REMARK    4  A    between atoms: C_14  and  C_15
REMARK    5  A    between atoms: C_15  and  C_17
REMARK    6  A    between atoms: C_23  and  N_30
REMARK                            x       y       z     vdW  Elec       q    Type
REMARK                         _______ _______ _______ _____ _____    ______ ____
ROOT
ATOM      1  O   UNL     1      34.952 -17.844 -24.891  0.00  0.00    -0.270 OA
ATOM      2  N   UNL     1      34.994 -17.039 -22.683  0.00  0.00    -0.280 N 
ATOM      3  C   UNL     1      34.724 -16.975 -24.057  0.00  0.00    +0.250 C 
ATOM      4  H   UNL     1      34.744 -16.244 -22.157  0.00  0.00    +0.155 HD
ENDROOT
BRANCH   2  11
ATOM      5  N   UNL     1      34.826 -21.039 -19.825  0.00  0.00    -0.286 N 
ATOM      6  C   UNL     1      35.372 -20.025 -20.579  0.00  0.00    +0.053 C 
ATOM      7  C   UNL     1      36.758 -20.189 -20.545  0.00  0.00    +0.015 C 
ATOM      8  C   UNL     1      35.817 -21.836 -19.317  0.00  0.00    +0.065 C 
ATOM      9  C   UNL     1      34.750 -18.986 -21.281  0.00  0.00    +0.029 C 
ATOM     10  C   UNL     1      37.025 -21.335 -19.745  0.00  0.00    +0.017 C 
ATOM     11  C   UNL     1      35.572 -18.088 -21.969  0.00  0.00    +0.052 C 
ATOM     12  C   UNL     1      37.566 -19.271 -21.247  0.00  0.00    +0.003 C 
ATOM     13  C   UNL     1      36.959 -18.228 -21.953  0.00  0.00    +0.015 C 
BRANCH   5  14
ATOM     14  C   UNL     1      33.413 -21.248 -19.593  0.00  0.00    +0.100 C 
BRANCH  14  15
ATOM     15  C   UNL     1      33.062 -22.692 -19.220  0.00  0.00    +0.048 C 
BRANCH  15  17
ATOM     16  N   UNL     1      32.506 -23.272 -15.010  0.00  0.00    -0.242 NA
ATOM     17  C   UNL     1      32.866 -22.897 -17.738  0.00  0.00    -0.017 C 
ATOM     18  C   UNL     1      33.957 -23.190 -16.942  0.00  0.00    +0.016 C 
ATOM     19  C   UNL     1      31.599 -22.787 -17.197  0.00  0.00    +0.016 C 
ATOM     20  C   UNL     1      33.725 -23.369 -15.587  0.00  0.00    +0.099 C 
ATOM     21  C   UNL     1      31.472 -22.984 -15.832  0.00  0.00    +0.099 C 
ENDBRANCH  15  17
ENDBRANCH  14  15
ENDBRANCH   5  14
ENDBRANCH   2  11
BRANCH   3  25
ATOM     22  F   UNL     1      33.300 -14.064 -27.645  0.00  0.00    -0.204 F 
ATOM     23  C   UNL     1      33.139 -13.581 -24.043  0.00  0.00    +0.050 C 
ATOM     24  C   UNL     1      33.705 -14.775 -23.598  0.00  0.00    +0.019 C 
ATOM     25  C   UNL     1      34.123 -15.702 -24.530  0.00  0.00    +0.057 C 
ATOM     26  C   UNL     1      33.002 -13.341 -25.409  0.00  0.00    +0.044 C 
ATOM     27  C   UNL     1      33.998 -15.489 -25.887  0.00  0.00    +0.034 C 
ATOM     28  C   UNL     1      33.432 -14.294 -26.332  0.00  0.00    +0.142 C 
BRANCH  23  30
ATOM     29  O   UNL     1      32.108 -10.666 -21.193  0.00  0.00    -0.350 OA
ATOM     30  N   UNL     1      32.708 -12.624 -23.118  0.00  0.00    -0.303 N 
ATOM     31  C   UNL     1      32.506 -13.002 -21.714  0.00  0.00    +0.123 C 
ATOM     32  C   UNL     1      33.089 -11.223 -23.340  0.00  0.00    +0.123 C 
ATOM     33  C   UNL     1      31.593 -11.988 -21.034  0.00  0.00    +0.164 C 
ATOM     34  C   UNL     1      32.145 -10.304 -22.574  0.00  0.00    +0.164 C 
ENDBRANCH  23  30
ENDBRANCH   3  25
TORSDOF 6
ENDMDL
MODEL 7
REMARK VINA RESULT:     -12.2      2.879      5.828
REMARK  Name = 5326869
REMARK  6 active torsions:
REMARK  status: ('A' for Active; 'I' for Inactive)
REMARK    1  A    between atoms: N_2  and  C_11
REMARK    2  A    between atoms: C_3  and  C_25
REMARK    3  A    between atoms: N_5  and  C_14
REMARK    4  A    between atoms: C_14  and  C_15
REMARK    5  A    between atoms: C_15  and  C_17
REMARK    6  A    between atoms: C_23  and  N_30
REMARK                            x       y       z     vdW  Elec       q    Type
REMARK                         _______ _______ _______ _____ _____    ______ ____
ROOT
ATOM      1  O   UNL     1      34.218  -7.438 -22.596  0.00  0.00    -0.270 OA
ATOM      2  N   UNL     1      32.215  -8.454 -23.294  0.00  0.00    -0.280 N 
ATOM      3  C   UNL     1      33.196  -7.452 -23.273  0.00  0.00    +0.250 C 
ATOM      4  H   UNL     1      31.455  -8.301 -23.901  0.00  0.00    +0.155 HD
ENDROOT
BRANCH   2  11
ATOM      5  N   UNL     1      32.711 -13.319 -22.765  0.00  0.00    -0.286 N 
ATOM      6  C   UNL     1      32.455 -12.012 -22.417  0.00  0.00    +0.053 C 
ATOM      7  C   UNL     1      32.115 -12.006 -21.063  0.00  0.00    +0.015 C 
ATOM      8  C   UNL     1      32.545 -14.138 -21.680  0.00  0.00    +0.065 C 
ATOM      9  C   UNL     1      32.497 -10.847 -23.192  0.00  0.00    +0.029 C 
ATOM     10  C   UNL     1      32.177 -13.354 -20.611  0.00  0.00    +0.017 C 
ATOM     11  C   UNL     1      32.183  -9.640 -22.559  0.00  0.00    +0.052 C 
ATOM     12  C   UNL     1      31.803 -10.777 -20.448  0.00  0.00    +0.003 C 
ATOM     13  C   UNL     1      31.842  -9.604 -21.209  0.00  0.00    +0.015 C 
BRANCH   5  14
ATOM     14  C   UNL     1      33.100 -13.779 -24.081  0.00  0.00    +0.100 C 
BRANCH  14  15
ATOM     15  C   UNL     1      34.564 -14.222 -24.164  0.00  0.00    +0.048 C 
BRANCH  15  17
ATOM     16  N   UNL     1      35.059 -18.479 -24.094  0.00  0.00    -0.242 NA
ATOM     17  C   UNL     1      34.739 -15.720 -24.140  0.00  0.00    -0.017 C 
ATOM     18  C   UNL     1      35.231 -16.330 -23.001  0.00  0.00    +0.016 C 
ATOM     19  C   UNL     1      34.404 -16.463 -25.257  0.00  0.00    +0.016 C 
ATOM     20  C   UNL     1      35.372 -17.708 -23.029  0.00  0.00    +0.099 C 
ATOM     21  C   UNL     1      34.582 -17.835 -25.183  0.00  0.00    +0.099 C 
ENDBRANCH  15  17
ENDBRANCH  14  15
ENDBRANCH   5  14
ENDBRANCH   2  11
BRANCH   3  25
ATOM     22  F   UNL     1      30.402  -3.752 -24.646  0.00  0.00    -0.204 F 
ATOM     23  C   UNL     1      33.613  -4.861 -25.947  0.00  0.00    +0.050 C 
ATOM     24  C   UNL     1      33.860  -5.958 -25.121  0.00  0.00    +0.019 C 
ATOM     25  C   UNL     1      32.933  -6.285 -24.155  0.00  0.00    +0.057 C 
ATOM     26  C   UNL     1      32.446  -4.117 -25.787  0.00  0.00    +0.044 C 
ATOM     27  C   UNL     1      31.770  -5.565 -23.975  0.00  0.00    +0.034 C 
ATOM     28  C   UNL     1      31.523  -4.468 -24.801  0.00  0.00    +0.142 C 
BRANCH  23  30
ATOM     29  O   UNL     1      36.316  -4.027 -29.059  0.00  0.00    -0.350 OA
ATOM     30  N   UNL     1      34.538  -4.508 -26.935  0.00  0.00    -0.303 N 
ATOM     31  C   UNL     1      35.881  -5.099 -26.926  0.00  0.00    +0.123 C 
ATOM     32  C   UNL     1      34.027  -4.137 -28.262  0.00  0.00    +0.123 C 
ATOM     33  C   UNL     1      36.831  -4.230 -27.743  0.00  0.00    +0.164 C 
ATOM     34  C   UNL     1      35.076  -3.320 -29.008  0.00  0.00    +0.164 C 
ENDBRANCH  23  30
ENDBRANCH   3  25
TORSDOF 6
ENDMDL
MODEL 8
REMARK VINA RESULT:     -12.0      4.161     11.354
REMARK  Name = 5326869
REMARK  6 active torsions:
REMARK  status: ('A' for Active; 'I' for Inactive)
REMARK    1  A    between atoms: N_2  and  C_11
REMARK    2  A    between atoms: C_3  and  C_25
REMARK    3  A    between atoms: N_5  and  C_14
REMARK    4  A    between atoms: C_14  and  C_15
REMARK    5  A    between atoms: C_15  and  C_17
REMARK    6  A    between atoms: C_23  and  N_30
REMARK                            x       y       z     vdW  Elec       q    Type
REMARK                         _______ _______ _______ _____ _____    ______ ____
ROOT
ATOM      1  O   UNL     1      31.569  -9.687 -20.474  0.00  0.00    -0.270 OA
ATOM      2  N   UNL     1      32.159  -9.240 -22.705  0.00  0.00    -0.280 N 
ATOM      3  C   UNL     1      31.938 -10.052 -21.585  0.00  0.00    +0.250 C 
ATOM      4  H   UNL     1      32.456  -9.703 -23.522  0.00  0.00    +0.155 HD
ENDROOT
BRANCH   2  11
ATOM      5  N   UNL     1      32.599  -4.921 -25.020  0.00  0.00    -0.286 N 
ATOM      6  C   UNL     1      32.274  -5.813 -24.024  0.00  0.00    +0.053 C 
ATOM      7  C   UNL     1      31.701  -5.078 -22.985  0.00  0.00    +0.015 C 
ATOM      8  C   UNL     1      32.252  -3.650 -24.647  0.00  0.00    +0.065 C 
ATOM      9  C   UNL     1      32.443  -7.202 -23.964  0.00  0.00    +0.029 C 
ATOM     10  C   UNL     1      31.693  -3.715 -23.392  0.00  0.00    +0.017 C 
ATOM     11  C   UNL     1      32.012  -7.856 -22.806  0.00  0.00    +0.052 C 
ATOM     12  C   UNL     1      31.273  -5.760 -21.827  0.00  0.00    +0.003 C 
ATOM     13  C   UNL     1      31.436  -7.148 -21.753  0.00  0.00    +0.015 C 
BRANCH   5  14
ATOM     14  C   UNL     1      33.217  -5.260 -26.284  0.00  0.00    +0.100 C 
BRANCH  14  15
ATOM     15  C   UNL     1      34.746  -5.333 -26.217  0.00  0.00    +0.048 C 
BRANCH  15  17
ATOM     16  N   UNL     1      36.691  -3.250 -29.417  0.00  0.00    -0.242 NA
ATOM     17  C   UNL     1      35.430  -4.601 -27.344  0.00  0.00    -0.017 C 
ATOM     18  C   UNL     1      34.672  -4.052 -28.361  0.00  0.00    +0.016 C 
ATOM     19  C   UNL     1      36.808  -4.487 -27.344  0.00  0.00    +0.016 C 
ATOM     20  C   UNL     1      35.348  -3.389 -29.372  0.00  0.00    +0.099 C 
ATOM     21  C   UNL     1      37.389  -3.804 -28.400  0.00  0.00    +0.099 C 
ENDBRANCH  15  17
ENDBRANCH  14  15
ENDBRANCH   5  14
ENDBRANCH   2  11
BRANCH   3  25
ATOM     22  F   UNL     1      32.311 -14.547 -19.844  0.00  0.00    -0.204 F 
ATOM     23  C   UNL     1      32.785 -13.309 -23.231  0.00  0.00    +0.050 C 
ATOM     24  C   UNL     1      32.531 -11.950 -23.046  0.00  0.00    +0.019 C 
ATOM     25  C   UNL     1      32.210 -11.499 -21.783  0.00  0.00    +0.057 C 
ATOM     26  C   UNL     1      32.711 -14.185 -22.150  0.00  0.00    +0.044 C 
ATOM     27  C   UNL     1      32.130 -12.346 -20.697  0.00  0.00    +0.034 C 
ATOM     28  C   UNL     1      32.384 -13.705 -20.882  0.00  0.00    +0.142 C 
BRANCH  23  30
ATOM     29  O   UNL     1      34.034 -14.781 -26.967  0.00  0.00    -0.350 OA
ATOM     30  N   UNL     1      33.113 -13.791 -24.502  0.00  0.00    -0.303 N 
ATOM     31  C   UNL     1      33.631 -12.873 -25.523  0.00  0.00    +0.123 C 
ATOM     32  C   UNL     1      33.576 -15.181 -24.619  0.00  0.00    +0.123 C 
ATOM     33  C   UNL     1      33.443 -13.483 -26.908  0.00  0.00    +0.164 C 
ATOM     34  C   UNL     1      33.391 -15.668 -26.051  0.00  0.00    +0.164 C 
ENDBRANCH  23  30
ENDBRANCH   3  25
TORSDOF 6
ENDMDL
MODEL 9
REMARK VINA RESULT:     -11.9      4.661      9.308
REMARK  Name = 5326869
REMARK  6 active torsions:
REMARK  status: ('A' for Active; 'I' for Inactive)
REMARK    1  A    between atoms: N_2  and  C_11
REMARK    2  A    between atoms: C_3  and  C_25
REMARK    3  A    between atoms: N_5  and  C_14
REMARK    4  A    between atoms: C_14  and  C_15
REMARK    5  A    between atoms: C_15  and  C_17
REMARK    6  A    between atoms: C_23  and  N_30
REMARK                            x       y       z     vdW  Elec       q    Type
REMARK                         _______ _______ _______ _____ _____    ______ ____
ROOT
ATOM      1  O   UNL     1      33.405 -20.754 -19.960  0.00  0.00    -0.270 OA
ATOM      2  N   UNL     1      35.735 -20.882 -19.671  0.00  0.00    -0.280 N 
ATOM      3  C   UNL     1      34.550 -20.497 -20.313  0.00  0.00    +0.250 C 
ATOM      4  H   UNL     1      36.572 -20.586 -20.096  0.00  0.00    +0.155 HD
ENDROOT
BRANCH   2  11
ATOM      5  N   UNL     1      34.037 -23.758 -16.058  0.00  0.00    -0.286 N 
ATOM      6  C   UNL     1      34.940 -23.026 -16.797  0.00  0.00    +0.053 C 
ATOM      7  C   UNL     1      36.177 -23.136 -16.159  0.00  0.00    +0.015 C 
ATOM      8  C   UNL     1      34.660 -24.325 -14.979  0.00  0.00    +0.065 C 
ATOM      9  C   UNL     1      34.756 -22.282 -17.968  0.00  0.00    +0.029 C 
ATOM     10  C   UNL     1      35.986 -23.959 -15.014  0.00  0.00    +0.017 C 
ATOM     11  C   UNL     1      35.873 -21.633 -18.503  0.00  0.00    +0.052 C 
ATOM     12  C   UNL     1      37.289 -22.473 -16.718  0.00  0.00    +0.003 C 
ATOM     13  C   UNL     1      37.120 -21.725 -17.889  0.00  0.00    +0.015 C 
BRANCH   5  14
ATOM     14  C   UNL     1      32.632 -23.916 -16.364  0.00  0.00    +0.100 C 
BRANCH  14  15
ATOM     15  C   UNL     1      31.706 -23.496 -15.218  0.00  0.00    +0.048 C 
BRANCH  15  17
ATOM     16  N   UNL     1      27.566 -23.411 -16.322  0.00  0.00    -0.242 NA
ATOM     17  C   UNL     1      30.249 -23.467 -15.606  0.00  0.00    -0.017 C 
ATOM     18  C   UNL     1      29.493 -22.343 -15.331  0.00  0.00    +0.016 C 
ATOM     19  C   UNL     1      29.689 -24.564 -16.233  0.00  0.00    +0.016 C 
ATOM     20  C   UNL     1      28.160 -22.365 -15.707  0.00  0.00    +0.099 C 
ATOM     21  C   UNL     1      28.347 -24.487 -16.570  0.00  0.00    +0.099 C 
ENDBRANCH  15  17
ENDBRANCH  14  15
ENDBRANCH   5  14
ENDBRANCH   2  11
BRANCH   3  25
ATOM     22  F   UNL     1      35.491 -20.290 -25.052  0.00  0.00    -0.204 F 
ATOM     23  C   UNL     1      34.752 -17.615 -22.699  0.00  0.00    +0.050 C 
ATOM     24  C   UNL     1      34.586 -18.346 -21.523  0.00  0.00    +0.019 C 
ATOM     25  C   UNL     1      34.730 -19.717 -21.565  0.00  0.00    +0.057 C 
ATOM     26  C   UNL     1      35.058 -18.271 -23.891  0.00  0.00    +0.044 C 
ATOM     27  C   UNL     1      35.032 -20.390 -22.731  0.00  0.00    +0.034 C 
ATOM     28  C   UNL     1      35.198 -19.659 -23.907  0.00  0.00    +0.142 C 
BRANCH  23  30
ATOM     29  O   UNL     1      34.607 -13.413 -22.657  0.00  0.00    -0.350 OA
ATOM     30  N   UNL     1      34.612 -16.224 -22.683  0.00  0.00    -0.303 N 
ATOM     31  C   UNL     1      34.692 -15.494 -21.413  0.00  0.00    +0.123 C 
ATOM     32  C   UNL     1      35.047 -15.469 -23.866  0.00  0.00    +0.123 C 
ATOM     33  C   UNL     1      34.034 -14.126 -21.562  0.00  0.00    +0.164 C 
ATOM     34  C   UNL     1      34.371 -14.103 -23.884  0.00  0.00    +0.164 C 
ENDBRANCH  23  30
ENDBRANCH   3  25
TORSDOF 6
ENDMDL
