MODEL 1
REMARK VINA RESULT:     -13.2      0.000      0.000
REMARK  Name = 9865515
REMARK  6 active torsions:
REMARK  status: ('A' for Active; 'I' for Inactive)
REMARK    1  A    between atoms: C_1  and  C_20
REMARK    2  A    between atoms: C_2  and  C_9
REMARK    3  A    between atoms: N_8  and  C_11
REMARK    4  A    between atoms: C_12  and  N_17
REMARK    5  A    between atoms: C_20  and  N_21
REMARK    6  A    between atoms: C_25  and  C_30
REMARK                            x       y       z     vdW  Elec       q    Type
REMARK                         _______ _______ _______ _____ _____    ______ ____
ROOT
ATOM      1  C   UNL     1      35.640 -19.603 -20.940  0.00  0.00    -0.002 C 
ATOM      2  C   UNL     1      34.384 -21.653 -19.526  0.00  0.00    +0.054 C 
ATOM      3  C   UNL     1      34.252 -19.727 -20.978  0.00  0.00    -0.002 C 
ATOM      4  C   UNL     1      36.401 -20.504 -20.195  0.00  0.00    -0.002 C 
ATOM      5  C   UNL     1      33.623 -20.752 -20.272  0.00  0.00    +0.004 C 
ATOM      6  C   UNL     1      35.773 -21.528 -19.488  0.00  0.00    +0.004 C 
ENDROOT
BRANCH   2   9
ATOM      7  O   UNL     1      33.768 -23.878 -19.245  0.00  0.00    -0.270 OA
ATOM      8  N   UNL     1      33.114 -22.352 -17.587  0.00  0.00    -0.279 N 
ATOM      9  C   UNL     1      33.729 -22.723 -18.791  0.00  0.00    +0.250 C 
ATOM     10  H   UNL     1      33.165 -21.396 -17.358  0.00  0.00    +0.155 HD
BRANCH   8  11
ATOM     11  C   UNL     1      32.429 -23.173 -16.658  0.00  0.00    +0.064 C 
ATOM     12  C   UNL     1      33.113 -23.760 -15.606  0.00  0.00    +0.055 C 
ATOM     13  C   UNL     1      31.069 -23.370 -16.833  0.00  0.00    +0.016 C 
ATOM     14  C   UNL     1      32.417 -24.565 -14.703  0.00  0.00    +0.015 C 
ATOM     15  C   UNL     1      30.373 -24.175 -15.931  0.00  0.00    +0.001 C 
ATOM     16  C   UNL     1      31.047 -24.773 -14.866  0.00  0.00    +0.001 C 
BRANCH  12  17
ATOM     17  N   UNL     1      34.499 -23.562 -15.421  0.00  0.00    -0.356 N 
ATOM     18  H   UNL     1      34.819 -22.902 -14.764  0.00  0.00    +0.142 HD
ATOM     19  H   UNL     1      35.146 -24.084 -15.949  0.00  0.00    +0.142 HD
ENDBRANCH  12  17
ENDBRANCH   8  11
ENDBRANCH   2   9
BRANCH   1  20
ATOM     20  C   UNL     1      36.313 -18.505 -21.695  0.00  0.00    +0.124 C 
BRANCH  20  21
ATOM     21  N   UNL     1      35.993 -18.576 -23.105  0.00  0.00    -0.264 N 
ATOM     22  N   UNL     1      34.710 -16.613 -23.024  0.00  0.00    -0.338 NA
ATOM     23  N   UNL     1      34.982 -17.829 -25.086  0.00  0.00    -0.170 NA
ATOM     24  C   UNL     1      35.204 -17.644 -23.757  0.00  0.00    +0.145 C 
ATOM     25  C   UNL     1      33.946 -15.724 -23.692  0.00  0.00    +0.147 C 
ATOM     26  C   UNL     1      33.658 -15.819 -25.038  0.00  0.00    +0.055 C 
ATOM     27  C   UNL     1      34.209 -16.903 -25.691  0.00  0.00    +0.114 C 
ATOM     28  H   UNL     1      36.356 -19.327 -23.627  0.00  0.00    +0.160 HD
BRANCH  25  30
ATOM     29  N   UNL     1      32.757 -12.319 -22.753  0.00  0.00    -0.242 NA
ATOM     30  C   UNL     1      33.431 -14.636 -22.895  0.00  0.00    +0.050 C 
ATOM     31  C   UNL     1      33.116 -14.817 -21.552  0.00  0.00    +0.006 C 
ATOM     32  C   UNL     1      33.234 -13.379 -23.443  0.00  0.00    +0.101 C 
ATOM     33  C   UNL     1      32.622 -13.750 -20.809  0.00  0.00    +0.021 C 
ATOM     34  C   UNL     1      32.462 -12.532 -21.451  0.00  0.00    +0.099 C 
ENDBRANCH  25  30
ENDBRANCH  20  21
ENDBRANCH   1  20
TORSDOF 6
ENDMDL
MODEL 2
REMARK VINA RESULT:     -12.9      2.827     10.707
REMARK  Name = 9865515
REMARK  6 active torsions:
REMARK  status: ('A' for Active; 'I' for Inactive)
REMARK    1  A    between atoms: C_1  and  C_20
REMARK    2  A    between atoms: C_2  and  C_9
REMARK    3  A    between atoms: N_8  and  C_11
REMARK    4  A    between atoms: C_12  and  N_17
REMARK    5  A    between atoms: C_20  and  N_21
REMARK    6  A    between atoms: C_25  and  C_30
REMARK                            x       y       z     vdW  Elec       q    Type
REMARK                         _______ _______ _______ _____ _____    ______ ____
ROOT
ATOM      1  C   UNL     1      34.518 -22.262 -19.498  0.00  0.00    -0.002 C 
ATOM      2  C   UNL     1      35.180 -19.867 -20.764  0.00  0.00    +0.054 C 
ATOM      3  C   UNL     1      33.511 -21.434 -19.993  0.00  0.00    -0.002 C 
ATOM      4  C   UNL     1      35.856 -21.893 -19.635  0.00  0.00    -0.002 C 
ATOM      5  C   UNL     1      33.842 -20.236 -20.626  0.00  0.00    +0.004 C 
ATOM      6  C   UNL     1      36.187 -20.696 -20.269  0.00  0.00    +0.004 C 
ENDROOT
BRANCH   2   9
ATOM      7  O   UNL     1      36.664 -18.479 -21.898  0.00  0.00    -0.270 OA
ATOM      8  N   UNL     1      34.505 -17.657 -21.486  0.00  0.00    -0.279 N 
ATOM      9  C   UNL     1      35.525 -18.616 -21.422  0.00  0.00    +0.250 C 
ATOM     10  H   UNL     1      33.653 -17.910 -21.063  0.00  0.00    +0.155 HD
BRANCH   8  11
ATOM     11  C   UNL     1      34.540 -16.371 -22.081  0.00  0.00    +0.064 C 
ATOM     12  C   UNL     1      34.701 -16.238 -23.450  0.00  0.00    +0.055 C 
ATOM     13  C   UNL     1      34.413 -15.264 -21.258  0.00  0.00    +0.016 C 
ATOM     14  C   UNL     1      34.734 -14.962 -24.012  0.00  0.00    +0.015 C 
ATOM     15  C   UNL     1      34.445 -13.988 -21.821  0.00  0.00    +0.001 C 
ATOM     16  C   UNL     1      34.606 -13.837 -23.198  0.00  0.00    +0.001 C 
BRANCH  12  17
ATOM     17  N   UNL     1      34.831 -17.363 -24.294  0.00  0.00    -0.356 N 
ATOM     18  H   UNL     1      35.341 -18.149 -23.992  0.00  0.00    +0.142 HD
ATOM     19  H   UNL     1      34.411 -17.362 -25.184  0.00  0.00    +0.142 HD
ENDBRANCH  12  17
ENDBRANCH   8  11
ENDBRANCH   2   9
BRANCH   1  20
ATOM     20  C   UNL     1      34.164 -23.545 -18.822  0.00  0.00    +0.124 C 
BRANCH  20  21
ATOM     21  N   UNL     1      33.304 -23.309 -17.682  0.00  0.00    -0.264 N 
ATOM     22  N   UNL     1      34.878 -24.178 -16.174  0.00  0.00    -0.338 NA
ATOM     23  N   UNL     1      32.753 -23.345 -15.402  0.00  0.00    -0.170 NA
ATOM     24  C   UNL     1      33.656 -23.620 -16.380  0.00  0.00    +0.145 C 
ATOM     25  C   UNL     1      35.187 -24.468 -14.894  0.00  0.00    +0.147 C 
ATOM     26  C   UNL     1      34.344 -24.230 -13.828  0.00  0.00    +0.055 C 
ATOM     27  C   UNL     1      33.127 -23.661 -14.144  0.00  0.00    +0.114 C 
ATOM     28  H   UNL     1      32.421 -22.904 -17.842  0.00  0.00    +0.160 HD
BRANCH  25  30
ATOM     29  N   UNL     1      37.996 -26.911 -15.079  0.00  0.00    -0.242 NA
ATOM     30  C   UNL     1      36.490 -25.060 -14.696  0.00  0.00    +0.050 C 
ATOM     31  C   UNL     1      37.473 -24.401 -13.966  0.00  0.00    +0.006 C 
ATOM     32  C   UNL     1      36.799 -26.301 -15.228  0.00  0.00    +0.101 C 
ATOM     33  C   UNL     1      38.718 -24.996 -13.791  0.00  0.00    +0.021 C 
ATOM     34  C   UNL     1      38.927 -26.241 -14.363  0.00  0.00    +0.099 C 
ENDBRANCH  25  30
ENDBRANCH  20  21
ENDBRANCH   1  20
TORSDOF 6
ENDMDL
MODEL 3
REMARK VINA RESULT:     -12.9      3.223     10.812
REMARK  Name = 9865515
REMARK  6 active torsions:
REMARK  status: ('A' for Active; 'I' for Inactive)
REMARK    1  A    between atoms: C_1  and  C_20
REMARK    2  A    between atoms: C_2  and  C_9
REMARK    3  A    between atoms: N_8  and  C_11
REMARK    4  A    between atoms: C_12  and  N_17
REMARK    5  A    between atoms: C_20  and  N_21
REMARK    6  A    between atoms: C_25  and  C_30
REMARK                            x       y       z     vdW  Elec       q    Type
REMARK                         _______ _______ _______ _____ _____    ______ ____
ROOT
ATOM      1  C   UNL     1      36.106 -20.787 -19.910  0.00  0.00    -0.002 C 
ATOM      2  C   UNL     1      35.588 -19.054 -22.034  0.00  0.00    +0.054 C 
ATOM      3  C   UNL     1      34.835 -20.746 -20.482  0.00  0.00    -0.002 C 
ATOM      4  C   UNL     1      37.118 -19.962 -20.400  0.00  0.00    -0.002 C 
ATOM      5  C   UNL     1      34.575 -19.879 -21.544  0.00  0.00    +0.004 C 
ATOM      6  C   UNL     1      36.859 -19.096 -21.462  0.00  0.00    +0.004 C 
ENDROOT
BRANCH   2   9
ATOM      7  O   UNL     1      35.566 -18.519 -24.298  0.00  0.00    -0.270 OA
ATOM      8  N   UNL     1      34.758 -16.911 -22.793  0.00  0.00    -0.279 N 
ATOM      9  C   UNL     1      35.316 -18.149 -23.140  0.00  0.00    +0.250 C 
ATOM     10  H   UNL     1      34.618 -16.759 -21.831  0.00  0.00    +0.155 HD
BRANCH   8  11
ATOM     11  C   UNL     1      34.369 -15.849 -23.648  0.00  0.00    +0.064 C 
ATOM     12  C   UNL     1      34.313 -14.551 -23.168  0.00  0.00    +0.055 C 
ATOM     13  C   UNL     1      34.049 -16.148 -24.962  0.00  0.00    +0.016 C 
ATOM     14  C   UNL     1      33.927 -13.522 -24.029  0.00  0.00    +0.015 C 
ATOM     15  C   UNL     1      33.663 -15.120 -25.821  0.00  0.00    +0.001 C 
ATOM     16  C   UNL     1      33.602 -13.806 -25.355  0.00  0.00    +0.001 C 
BRANCH  12  17
ATOM     17  N   UNL     1      34.639 -14.240 -21.830  0.00  0.00    -0.356 N 
ATOM     18  H   UNL     1      34.396 -13.363 -21.455  0.00  0.00    +0.142 HD
ATOM     19  H   UNL     1      35.110 -14.901 -21.271  0.00  0.00    +0.142 HD
ENDBRANCH  12  17
ENDBRANCH   8  11
ENDBRANCH   2   9
BRANCH   1  20
ATOM     20  C   UNL     1      36.385 -21.715 -18.775  0.00  0.00    +0.124 C 
BRANCH  20  21
ATOM     21  N   UNL     1      35.159 -22.101 -18.110  0.00  0.00    -0.264 N 
ATOM     22  N   UNL     1      36.304 -23.330 -16.472  0.00  0.00    -0.338 NA
ATOM     23  N   UNL     1      33.900 -23.182 -16.452  0.00  0.00    -0.170 NA
ATOM     24  C   UNL     1      35.120 -22.895 -16.977  0.00  0.00    +0.145 C 
ATOM     25  C   UNL     1      36.230 -24.101 -15.368  0.00  0.00    +0.147 C 
ATOM     26  C   UNL     1      35.043 -24.452 -14.757  0.00  0.00    +0.055 C 
ATOM     27  C   UNL     1      33.898 -23.959 -15.348  0.00  0.00    +0.114 C 
ATOM     28  H   UNL     1      34.306 -21.780 -18.484  0.00  0.00    +0.160 HD
BRANCH  25  30
ATOM     29  N   UNL     1      39.905 -24.632 -15.056  0.00  0.00    -0.242 NA
ATOM     30  C   UNL     1      37.498 -24.552 -14.848  0.00  0.00    +0.050 C 
ATOM     31  C   UNL     1      37.567 -25.314 -13.685  0.00  0.00    +0.006 C 
ATOM     32  C   UNL     1      38.686 -24.241 -15.489  0.00  0.00    +0.101 C 
ATOM     33  C   UNL     1      38.803 -25.735 -13.209  0.00  0.00    +0.021 C 
ATOM     34  C   UNL     1      39.933 -25.371 -13.924  0.00  0.00    +0.099 C 
ENDBRANCH  25  30
ENDBRANCH  20  21
ENDBRANCH   1  20
TORSDOF 6
ENDMDL
MODEL 4
REMARK VINA RESULT:     -12.8      1.496      2.869
REMARK  Name = 9865515
REMARK  6 active torsions:
REMARK  status: ('A' for Active; 'I' for Inactive)
REMARK    1  A    between atoms: C_1  and  C_20
REMARK    2  A    between atoms: C_2  and  C_9
REMARK    3  A    between atoms: N_8  and  C_11
REMARK    4  A    between atoms: C_12  and  N_17
REMARK    5  A    between atoms: C_20  and  N_21
REMARK    6  A    between atoms: C_25  and  C_30
REMARK                            x       y       z     vdW  Elec       q    Type
REMARK                         _______ _______ _______ _____ _____    ______ ____
ROOT
ATOM      1  C   UNL     1      34.654 -19.783 -20.834  0.00  0.00    -0.002 C 
ATOM      2  C   UNL     1      33.841 -21.921 -19.238  0.00  0.00    +0.054 C 
ATOM      3  C   UNL     1      35.604 -20.639 -20.278  0.00  0.00    -0.002 C 
ATOM      4  C   UNL     1      33.297 -19.995 -20.592  0.00  0.00    -0.002 C 
ATOM      5  C   UNL     1      35.198 -21.708 -19.480  0.00  0.00    +0.004 C 
ATOM      6  C   UNL     1      32.891 -21.064 -19.794  0.00  0.00    +0.004 C 
ENDROOT
BRANCH   2   9
ATOM      7  O   UNL     1      33.708 -24.191 -18.748  0.00  0.00    -0.270 OA
ATOM      8  N   UNL     1      32.719 -22.693 -17.237  0.00  0.00    -0.279 N 
ATOM      9  C   UNL     1      33.417 -23.035 -18.403  0.00  0.00    +0.250 C 
ATOM     10  H   UNL     1      32.562 -21.732 -17.099  0.00  0.00    +0.155 HD
BRANCH   8  11
ATOM     11  C   UNL     1      32.210 -23.552 -16.232  0.00  0.00    +0.064 C 
ATOM     12  C   UNL     1      32.967 -23.840 -15.109  0.00  0.00    +0.055 C 
ATOM     13  C   UNL     1      30.945 -24.091 -16.406  0.00  0.00    +0.016 C 
ATOM     14  C   UNL     1      32.445 -24.690 -14.132  0.00  0.00    +0.015 C 
ATOM     15  C   UNL     1      30.423 -24.939 -15.431  0.00  0.00    +0.001 C 
ATOM     16  C   UNL     1      31.173 -25.239 -14.293  0.00  0.00    +0.001 C 
BRANCH  12  17
ATOM     17  N   UNL     1      34.256 -23.294 -14.924  0.00  0.00    -0.356 N 
ATOM     18  H   UNL     1      34.947 -23.417 -15.615  0.00  0.00    +0.142 HD
ATOM     19  H   UNL     1      34.465 -22.789 -14.105  0.00  0.00    +0.142 HD
ENDBRANCH  12  17
ENDBRANCH   8  11
ENDBRANCH   2   9
BRANCH   1  20
ATOM     20  C   UNL     1      35.088 -18.640 -21.690  0.00  0.00    +0.124 C 
BRANCH  20  21
ATOM     21  N   UNL     1      35.180 -17.420 -20.915  0.00  0.00    -0.264 N 
ATOM     22  N   UNL     1      34.498 -16.090 -22.725  0.00  0.00    -0.338 NA
ATOM     23  N   UNL     1      35.017 -15.103 -20.589  0.00  0.00    -0.170 NA
ATOM     24  C   UNL     1      34.890 -16.167 -21.426  0.00  0.00    +0.145 C 
ATOM     25  C   UNL     1      34.223 -14.854 -23.188  0.00  0.00    +0.147 C 
ATOM     26  C   UNL     1      34.321 -13.709 -22.424  0.00  0.00    +0.055 C 
ATOM     27  C   UNL     1      34.726 -13.895 -21.118  0.00  0.00    +0.114 C 
ATOM     28  H   UNL     1      35.464 -17.487 -19.975  0.00  0.00    +0.160 HD
BRANCH  25  30
ATOM     29  N   UNL     1      33.261 -15.963 -26.613  0.00  0.00    -0.242 NA
ATOM     30  C   UNL     1      33.809 -14.794 -24.570  0.00  0.00    +0.050 C 
ATOM     31  C   UNL     1      33.564 -13.575 -25.194  0.00  0.00    +0.006 C 
ATOM     32  C   UNL     1      33.644 -15.949 -25.318  0.00  0.00    +0.101 C 
ATOM     33  C   UNL     1      33.168 -13.549 -26.526  0.00  0.00    +0.021 C 
ATOM     34  C   UNL     1      33.032 -14.760 -27.186  0.00  0.00    +0.099 C 
ENDBRANCH  25  30
ENDBRANCH  20  21
ENDBRANCH   1  20
TORSDOF 6
ENDMDL
MODEL 5
REMARK VINA RESULT:     -12.8      4.166     11.371
REMARK  Name = 9865515
REMARK  6 active torsions:
REMARK  status: ('A' for Active; 'I' for Inactive)
REMARK    1  A    between atoms: C_1  and  C_20
REMARK    2  A    between atoms: C_2  and  C_9
REMARK    3  A    between atoms: N_8  and  C_11
REMARK    4  A    between atoms: C_12  and  N_17
REMARK    5  A    between atoms: C_20  and  N_21
REMARK    6  A    between atoms: C_25  and  C_30
REMARK                            x       y       z     vdW  Elec       q    Type
REMARK                         _______ _______ _______ _____ _____    ______ ____
ROOT
ATOM      1  C   UNL     1      33.550 -14.060 -21.687  0.00  0.00    -0.002 C 
ATOM      2  C   UNL     1      32.255 -11.617 -22.055  0.00  0.00    +0.054 C 
ATOM      3  C   UNL     1      32.699 -13.565 -20.698  0.00  0.00    -0.002 C 
ATOM      4  C   UNL     1      33.753 -13.333 -22.859  0.00  0.00    -0.002 C 
ATOM      5  C   UNL     1      32.052 -12.343 -20.882  0.00  0.00    +0.004 C 
ATOM      6  C   UNL     1      33.106 -12.111 -23.044  0.00  0.00    +0.004 C 
ENDROOT
BRANCH   2   9
ATOM      7  O   UNL     1      30.360 -10.330 -22.459  0.00  0.00    -0.270 OA
ATOM      8  N   UNL     1      32.393  -9.201 -22.145  0.00  0.00    -0.279 N 
ATOM      9  C   UNL     1      31.583 -10.341 -22.246  0.00  0.00    +0.250 C 
ATOM     10  H   UNL     1      33.347  -9.369 -21.973  0.00  0.00    +0.155 HD
BRANCH   8  11
ATOM     11  C   UNL     1      32.016  -7.840 -22.258  0.00  0.00    +0.064 C 
ATOM     12  C   UNL     1      32.006  -7.022 -21.141  0.00  0.00    +0.055 C 
ATOM     13  C   UNL     1      31.661  -7.358 -23.508  0.00  0.00    +0.016 C 
ATOM     14  C   UNL     1      31.631  -5.685 -21.277  0.00  0.00    +0.015 C 
ATOM     15  C   UNL     1      31.287  -6.022 -23.644  0.00  0.00    +0.001 C 
ATOM     16  C   UNL     1      31.271  -5.185 -22.528  0.00  0.00    +0.001 C 
BRANCH  12  17
ATOM     17  N   UNL     1      32.367  -7.507 -19.864  0.00  0.00    -0.356 N 
ATOM     18  H   UNL     1      31.693  -7.561 -19.149  0.00  0.00    +0.142 HD
ATOM     19  H   UNL     1      33.294  -7.791 -19.689  0.00  0.00    +0.142 HD
ENDBRANCH  12  17
ENDBRANCH   8  11
ENDBRANCH   2   9
BRANCH   1  20
ATOM     20  C   UNL     1      34.241 -15.368 -21.491  0.00  0.00    +0.124 C 
BRANCH  20  21
ATOM     21  N   UNL     1      34.665 -15.922 -22.758  0.00  0.00    -0.264 N 
ATOM     22  N   UNL     1      34.621 -18.120 -21.937  0.00  0.00    -0.338 NA
ATOM     23  N   UNL     1      35.253 -17.664 -24.216  0.00  0.00    -0.170 NA
ATOM     24  C   UNL     1      34.852 -17.277 -22.976  0.00  0.00    +0.145 C 
ATOM     25  C   UNL     1      34.812 -19.432 -22.184  0.00  0.00    +0.147 C 
ATOM     26  C   UNL     1      35.218 -19.930 -23.406  0.00  0.00    +0.055 C 
ATOM     27  C   UNL     1      35.425 -18.991 -24.395  0.00  0.00    +0.114 C 
ATOM     28  H   UNL     1      34.830 -15.303 -23.505  0.00  0.00    +0.160 HD
BRANCH  25  30
ATOM     29  N   UNL     1      32.971 -21.336 -19.563  0.00  0.00    -0.242 NA
ATOM     30  C   UNL     1      34.561 -20.311 -21.067  0.00  0.00    +0.050 C 
ATOM     31  C   UNL     1      35.605 -20.967 -20.422  0.00  0.00    +0.006 C 
ATOM     32  C   UNL     1      33.274 -20.529 -20.603  0.00  0.00    +0.101 C 
ATOM     33  C   UNL     1      35.332 -21.807 -19.348  0.00  0.00    +0.021 C 
ATOM     34  C   UNL     1      34.010 -21.956 -18.961  0.00  0.00    +0.099 C 
ENDBRANCH  25  30
ENDBRANCH  20  21
ENDBRANCH   1  20
TORSDOF 6
ENDMDL
MODEL 6
REMARK VINA RESULT:     -12.8      2.516     10.795
REMARK  Name = 9865515
REMARK  6 active torsions:
REMARK  status: ('A' for Active; 'I' for Inactive)
REMARK    1  A    between atoms: C_1  and  C_20
REMARK    2  A    between atoms: C_2  and  C_9
REMARK    3  A    between atoms: N_8  and  C_11
REMARK    4  A    between atoms: C_12  and  N_17
REMARK    5  A    between atoms: C_20  and  N_21
REMARK    6  A    between atoms: C_25  and  C_30
REMARK                            x       y       z     vdW  Elec       q    Type
REMARK                         _______ _______ _______ _____ _____    ______ ____
ROOT
ATOM      1  C   UNL     1      34.334 -22.371 -19.079  0.00  0.00    -0.002 C 
ATOM      2  C   UNL     1      35.133 -20.193 -20.627  0.00  0.00    +0.054 C 
ATOM      3  C   UNL     1      33.379 -21.590 -19.729  0.00  0.00    -0.002 C 
ATOM      4  C   UNL     1      35.688 -22.064 -19.203  0.00  0.00    -0.002 C 
ATOM      5  C   UNL     1      33.778 -20.500 -20.502  0.00  0.00    +0.004 C 
ATOM      6  C   UNL     1      36.088 -20.975 -19.977  0.00  0.00    +0.004 C 
ENDROOT
BRANCH   2   9
ATOM      7  O   UNL     1      36.713 -18.635 -21.326  0.00  0.00    -0.270 OA
ATOM      8  N   UNL     1      34.581 -18.533 -22.300  0.00  0.00    -0.279 N 
ATOM      9  C   UNL     1      35.549 -19.055 -21.432  0.00  0.00    +0.250 C 
ATOM     10  H   UNL     1      33.700 -18.972 -22.272  0.00  0.00    +0.155 HD
BRANCH   8  11
ATOM     11  C   UNL     1      34.704 -17.455 -23.212  0.00  0.00    +0.064 C 
ATOM     12  C   UNL     1      34.813 -16.155 -22.747  0.00  0.00    +0.055 C 
ATOM     13  C   UNL     1      34.711 -17.740 -24.568  0.00  0.00    +0.016 C 
ATOM     14  C   UNL     1      34.933 -15.110 -23.664  0.00  0.00    +0.015 C 
ATOM     15  C   UNL     1      34.831 -16.695 -25.484  0.00  0.00    +0.001 C 
ATOM     16  C   UNL     1      34.942 -15.380 -25.032  0.00  0.00    +0.001 C 
BRANCH  12  17
ATOM     17  N   UNL     1      34.808 -15.859 -21.366  0.00  0.00    -0.356 N 
ATOM     18  H   UNL     1      34.324 -16.443 -20.739  0.00  0.00    +0.142 HD
ATOM     19  H   UNL     1      35.288 -15.068 -21.030  0.00  0.00    +0.142 HD
ENDBRANCH  12  17
ENDBRANCH   8  11
ENDBRANCH   2   9
BRANCH   1  20
ATOM     20  C   UNL     1      33.907 -23.538 -18.252  0.00  0.00    +0.124 C 
BRANCH  20  21
ATOM     21  N   UNL     1      32.825 -23.174 -17.363  0.00  0.00    -0.264 N 
ATOM     22  N   UNL     1      33.974 -23.947 -15.469  0.00  0.00    -0.338 NA
ATOM     23  N   UNL     1      31.774 -22.985 -15.274  0.00  0.00    -0.170 NA
ATOM     24  C   UNL     1      32.859 -23.375 -15.994  0.00  0.00    +0.145 C 
ATOM     25  C   UNL     1      33.973 -24.128 -14.132  0.00  0.00    +0.147 C 
ATOM     26  C   UNL     1      32.924 -23.769 -13.310  0.00  0.00    +0.055 C 
ATOM     27  C   UNL     1      31.839 -23.196 -13.943  0.00  0.00    +0.114 C 
ATOM     28  H   UNL     1      32.022 -22.760 -17.754  0.00  0.00    +0.160 HD
BRANCH  25  30
ATOM     29  N   UNL     1      36.487 -25.334 -11.660  0.00  0.00    -0.242 NA
ATOM     30  C   UNL     1      35.167 -24.736 -13.594  0.00  0.00    +0.050 C 
ATOM     31  C   UNL     1      36.127 -25.295 -14.431  0.00  0.00    +0.006 C 
ATOM     32  C   UNL     1      35.392 -24.782 -12.228  0.00  0.00    +0.101 C 
ATOM     33  C   UNL     1      37.267 -25.874 -13.884  0.00  0.00    +0.021 C 
ATOM     34  C   UNL     1      37.398 -25.868 -12.504  0.00  0.00    +0.099 C 
ENDBRANCH  25  30
ENDBRANCH  20  21
ENDBRANCH   1  20
TORSDOF 6
ENDMDL
MODEL 7
REMARK VINA RESULT:     -12.7      2.225      9.731
REMARK  Name = 9865515
REMARK  6 active torsions:
REMARK  status: ('A' for Active; 'I' for Inactive)
REMARK    1  A    between atoms: C_1  and  C_20
REMARK    2  A    between atoms: C_2  and  C_9
REMARK    3  A    between atoms: N_8  and  C_11
REMARK    4  A    between atoms: C_12  and  N_17
REMARK    5  A    between atoms: C_20  and  N_21
REMARK    6  A    between atoms: C_25  and  C_30
REMARK                            x       y       z     vdW  Elec       q    Type
REMARK                         _______ _______ _______ _____ _____    ______ ____
ROOT
ATOM      1  C   UNL     1      34.168 -22.489 -19.241  0.00  0.00    -0.002 C 
ATOM      2  C   UNL     1      34.984 -20.191 -20.594  0.00  0.00    +0.054 C 
ATOM      3  C   UNL     1      33.218 -21.630 -19.792  0.00  0.00    -0.002 C 
ATOM      4  C   UNL     1      35.527 -22.199 -19.366  0.00  0.00    -0.002 C 
ATOM      5  C   UNL     1      33.625 -20.480 -20.468  0.00  0.00    +0.004 C 
ATOM      6  C   UNL     1      35.934 -21.050 -20.043  0.00  0.00    +0.004 C 
ENDROOT
BRANCH   2   9
ATOM      7  O   UNL     1      36.492 -18.465 -20.993  0.00  0.00    -0.270 OA
ATOM      8  N   UNL     1      34.546 -18.532 -22.302  0.00  0.00    -0.279 N 
ATOM      9  C   UNL     1      35.409 -18.990 -21.297  0.00  0.00    +0.250 C 
ATOM     10  H   UNL     1      33.720 -19.053 -22.427  0.00  0.00    +0.155 HD
BRANCH   8  11
ATOM     11  C   UNL     1      34.706 -17.415 -23.160  0.00  0.00    +0.064 C 
ATOM     12  C   UNL     1      34.775 -16.135 -22.636  0.00  0.00    +0.055 C 
ATOM     13  C   UNL     1      34.790 -17.642 -24.524  0.00  0.00    +0.016 C 
ATOM     14  C   UNL     1      34.933 -15.051 -23.500  0.00  0.00    +0.015 C 
ATOM     15  C   UNL     1      34.948 -16.559 -25.388  0.00  0.00    +0.001 C 
ATOM     16  C   UNL     1      35.019 -15.263 -24.876  0.00  0.00    +0.001 C 
BRANCH  12  17
ATOM     17  N   UNL     1      34.691 -15.898 -21.246  0.00  0.00    -0.356 N 
ATOM     18  H   UNL     1      34.809 -16.641 -20.611  0.00  0.00    +0.142 HD
ATOM     19  H   UNL     1      34.516 -14.988 -20.911  0.00  0.00    +0.142 HD
ENDBRANCH  12  17
ENDBRANCH   8  11
ENDBRANCH   2   9
BRANCH   1  20
ATOM     20  C   UNL     1      33.733 -23.720 -18.518  0.00  0.00    +0.124 C 
BRANCH  20  21
ATOM     21  N   UNL     1      33.995 -23.607 -17.100  0.00  0.00    -0.264 N 
ATOM     22  N   UNL     1      31.727 -23.279 -16.594  0.00  0.00    -0.338 NA
ATOM     23  N   UNL     1      33.392 -23.305 -14.853  0.00  0.00    -0.170 NA
ATOM     24  C   UNL     1      33.008 -23.390 -16.154  0.00  0.00    +0.145 C 
ATOM     25  C   UNL     1      30.791 -23.069 -15.646  0.00  0.00    +0.147 C 
ATOM     26  C   UNL     1      31.074 -22.966 -14.299  0.00  0.00    +0.055 C 
ATOM     27  C   UNL     1      32.405 -23.093 -13.957  0.00  0.00    +0.114 C 
ATOM     28  H   UNL     1      34.926 -23.689 -16.791  0.00  0.00    +0.160 HD
BRANCH  25  30
ATOM     29  N   UNL     1      27.818 -23.435 -17.863  0.00  0.00    -0.242 NA
ATOM     30  C   UNL     1      29.437 -22.954 -16.134  0.00  0.00    +0.050 C 
ATOM     31  C   UNL     1      28.464 -22.284 -15.400  0.00  0.00    +0.006 C 
ATOM     32  C   UNL     1      29.066 -23.508 -17.349  0.00  0.00    +0.101 C 
ATOM     33  C   UNL     1      27.169 -22.189 -15.896  0.00  0.00    +0.021 C 
ATOM     34  C   UNL     1      26.900 -22.776 -17.122  0.00  0.00    +0.099 C 
ENDBRANCH  25  30
ENDBRANCH  20  21
ENDBRANCH   1  20
TORSDOF 6
ENDMDL
MODEL 8
REMARK VINA RESULT:     -12.5      4.034      7.596
REMARK  Name = 9865515
REMARK  6 active torsions:
REMARK  status: ('A' for Active; 'I' for Inactive)
REMARK    1  A    between atoms: C_1  and  C_20
REMARK    2  A    between atoms: C_2  and  C_9
REMARK    3  A    between atoms: N_8  and  C_11
REMARK    4  A    between atoms: C_12  and  N_17
REMARK    5  A    between atoms: C_20  and  N_21
REMARK    6  A    between atoms: C_25  and  C_30
REMARK                            x       y       z     vdW  Elec       q    Type
REMARK                         _______ _______ _______ _____ _____    ______ ____
ROOT
ATOM      1  C   UNL     1      33.816 -13.474 -23.475  0.00  0.00    -0.002 C 
ATOM      2  C   UNL     1      34.639 -16.100 -23.019  0.00  0.00    +0.054 C 
ATOM      3  C   UNL     1      33.852 -14.387 -24.529  0.00  0.00    -0.002 C 
ATOM      4  C   UNL     1      34.192 -13.874 -22.193  0.00  0.00    -0.002 C 
ATOM      5  C   UNL     1      34.264 -15.699 -24.302  0.00  0.00    +0.004 C 
ATOM      6  C   UNL     1      34.604 -15.187 -21.965  0.00  0.00    +0.004 C 
ENDROOT
BRANCH   2   9
ATOM      7  O   UNL     1      35.669 -18.077 -23.685  0.00  0.00    -0.270 OA
ATOM      8  N   UNL     1      34.790 -17.987 -21.511  0.00  0.00    -0.279 N 
ATOM      9  C   UNL     1      35.071 -17.469 -22.782  0.00  0.00    +0.250 C 
ATOM     10  H   UNL     1      34.308 -17.385 -20.900  0.00  0.00    +0.155 HD
BRANCH   8  11
ATOM     11  C   UNL     1      35.109 -19.267 -20.991  0.00  0.00    +0.064 C 
ATOM     12  C   UNL     1      36.430 -19.633 -20.797  0.00  0.00    +0.055 C 
ATOM     13  C   UNL     1      34.069 -20.131 -20.688  0.00  0.00    +0.016 C 
ATOM     14  C   UNL     1      36.720 -20.898 -20.284  0.00  0.00    +0.015 C 
ATOM     15  C   UNL     1      34.358 -21.395 -20.176  0.00  0.00    +0.001 C 
ATOM     16  C   UNL     1      35.684 -21.779 -19.974  0.00  0.00    +0.001 C 
BRANCH  12  17
ATOM     17  N   UNL     1      37.495 -18.757 -21.102  0.00  0.00    -0.356 N 
ATOM     18  H   UNL     1      37.646 -17.954 -20.552  0.00  0.00    +0.142 HD
ATOM     19  H   UNL     1      38.087 -18.948 -21.866  0.00  0.00    +0.142 HD
ENDBRANCH  12  17
ENDBRANCH   8  11
ENDBRANCH   2   9
BRANCH   1  20
ATOM     20  C   UNL     1      33.374 -12.070 -23.718  0.00  0.00    +0.124 C 
BRANCH  20  21
ATOM     21  N   UNL     1      32.701 -11.532 -22.555  0.00  0.00    -0.264 N 
ATOM     22  N   UNL     1      33.059  -9.315 -23.237  0.00  0.00    -0.338 NA
ATOM     23  N   UNL     1      31.892  -9.806 -21.187  0.00  0.00    -0.170 NA
ATOM     24  C   UNL     1      32.547 -10.176 -22.319  0.00  0.00    +0.145 C 
ATOM     25  C   UNL     1      32.891  -8.003 -22.976  0.00  0.00    +0.147 C 
ATOM     26  C   UNL     1      32.243  -7.520 -21.856  0.00  0.00    +0.055 C 
ATOM     27  C   UNL     1      31.759  -8.477 -20.988  0.00  0.00    +0.114 C 
ATOM     28  H   UNL     1      32.333 -12.164 -21.897  0.00  0.00    +0.160 HD
BRANCH  25  30
ATOM     29  N   UNL     1      33.084  -5.354 -25.590  0.00  0.00    -0.242 NA
ATOM     30  C   UNL     1      33.442  -7.104 -23.962  0.00  0.00    +0.050 C 
ATOM     31  C   UNL     1      34.804  -7.100 -24.248  0.00  0.00    +0.006 C 
ATOM     32  C   UNL     1      32.633  -6.219 -24.655  0.00  0.00    +0.101 C 
ATOM     33  C   UNL     1      35.306  -6.225 -25.204  0.00  0.00    +0.021 C 
ATOM     34  C   UNL     1      34.412  -5.379 -25.841  0.00  0.00    +0.099 C 
ENDBRANCH  25  30
ENDBRANCH  20  21
ENDBRANCH   1  20
TORSDOF 6
ENDMDL
MODEL 9
REMARK VINA RESULT:     -12.4      2.421     10.373
REMARK  Name = 9865515
REMARK  6 active torsions:
REMARK  status: ('A' for Active; 'I' for Inactive)
REMARK    1  A    between atoms: C_1  and  C_20
REMARK    2  A    between atoms: C_2  and  C_9
REMARK    3  A    between atoms: N_8  and  C_11
REMARK    4  A    between atoms: C_12  and  N_17
REMARK    5  A    between atoms: C_20  and  N_21
REMARK    6  A    between atoms: C_25  and  C_30
REMARK                            x       y       z     vdW  Elec       q    Type
REMARK                         _______ _______ _______ _____ _____    ______ ____
ROOT
ATOM      1  C   UNL     1      35.360 -20.703 -20.341  0.00  0.00    -0.002 C 
ATOM      2  C   UNL     1      35.482 -18.461 -21.995  0.00  0.00    +0.054 C 
ATOM      3  C   UNL     1      34.196 -20.203 -20.925  0.00  0.00    -0.002 C 
ATOM      4  C   UNL     1      36.585 -20.082 -20.584  0.00  0.00    -0.002 C 
ATOM      5  C   UNL     1      34.257 -19.081 -21.751  0.00  0.00    +0.004 C 
ATOM      6  C   UNL     1      36.646 -18.961 -21.411  0.00  0.00    +0.004 C 
ENDROOT
BRANCH   2   9
ATOM      7  O   UNL     1      36.655 -16.839 -23.181  0.00  0.00    -0.270 OA
ATOM      8  N   UNL     1      34.312 -16.770 -23.273  0.00  0.00    -0.279 N 
ATOM      9  C   UNL     1      35.545 -17.289 -22.855  0.00  0.00    +0.250 C 
ATOM     10  H   UNL     1      33.514 -17.234 -22.930  0.00  0.00    +0.155 HD
BRANCH   8  11
ATOM     11  C   UNL     1      34.064 -15.664 -24.124  0.00  0.00    +0.064 C 
ATOM     12  C   UNL     1      34.122 -14.373 -23.626  0.00  0.00    +0.055 C 
ATOM     13  C   UNL     1      33.764 -15.912 -25.453  0.00  0.00    +0.016 C 
ATOM     14  C   UNL     1      33.874 -13.299 -24.482  0.00  0.00    +0.015 C 
ATOM     15  C   UNL     1      33.515 -14.840 -26.309  0.00  0.00    +0.001 C 
ATOM     16  C   UNL     1      33.570 -13.533 -25.824  0.00  0.00    +0.001 C 
BRANCH  12  17
ATOM     17  N   UNL     1      34.429 -14.113 -22.272  0.00  0.00    -0.356 N 
ATOM     18  H   UNL     1      34.503 -13.185 -21.953  0.00  0.00    +0.142 HD
ATOM     19  H   UNL     1      34.567 -14.861 -21.646  0.00  0.00    +0.142 HD
ENDBRANCH  12  17
ENDBRANCH   8  11
ENDBRANCH   2   9
BRANCH   1  20
ATOM     20  C   UNL     1      35.296 -21.904 -19.458  0.00  0.00    +0.124 C 
BRANCH  20  21
ATOM     21  N   UNL     1      36.404 -21.921 -18.527  0.00  0.00    -0.264 N 
ATOM     22  N   UNL     1      35.084 -22.804 -16.800  0.00  0.00    -0.338 NA
ATOM     23  N   UNL     1      37.419 -22.327 -16.451  0.00  0.00    -0.170 NA
ATOM     24  C   UNL     1      36.299 -22.364 -17.220  0.00  0.00    +0.145 C 
ATOM     25  C   UNL     1      35.017 -23.228 -15.521  0.00  0.00    +0.147 C 
ATOM     26  C   UNL     1      36.093 -23.232 -14.658  0.00  0.00    +0.055 C 
ATOM     27  C   UNL     1      37.282 -22.766 -15.182  0.00  0.00    +0.114 C 
ATOM     28  H   UNL     1      37.280 -21.601 -18.841  0.00  0.00    +0.160 HD
BRANCH  25  30
ATOM     29  N   UNL     1      32.378 -24.859 -13.457  0.00  0.00    -0.242 NA
ATOM     30  C   UNL     1      33.718 -23.692 -15.095  0.00  0.00    +0.050 C 
ATOM     31  C   UNL     1      32.581 -23.445 -15.859  0.00  0.00    +0.006 C 
ATOM     32  C   UNL     1      33.563 -24.397 -13.912  0.00  0.00    +0.101 C 
ATOM     33  C   UNL     1      31.344 -23.904 -15.423  0.00  0.00    +0.021 C 
ATOM     34  C   UNL     1      31.296 -24.600 -14.225  0.00  0.00    +0.099 C 
ENDBRANCH  25  30
ENDBRANCH  20  21
ENDBRANCH   1  20
TORSDOF 6
ENDMDL
