MODEL 1
REMARK VINA RESULT:     -14.0      0.000      0.000
REMARK  Name = 657077
REMARK  7 active torsions:
REMARK  status: ('A' for Active; 'I' for Inactive)
REMARK    1  A    between atoms: C_3  and  C_23
REMARK    2  A    between atoms: C_8  and  C_10
REMARK    3  A    between atoms: C_12  and  C_15
REMARK    4  A    between atoms: C_15  and  C_16
REMARK    5  A    between atoms: C_16  and  C_17
REMARK    6  A    between atoms: C_26  and  C_29
REMARK    7  A    between atoms: C_29  and  N_30
REMARK                            x       y       z     vdW  Elec       q    Type
REMARK                         _______ _______ _______ _____ _____    ______ ____
ROOT
ATOM      1  O   UNL     1      33.263 -16.314 -25.995  0.00  0.00    -0.270 OA
ATOM      2  N   UNL     1      34.734 -16.887 -24.270  0.00  0.00    -0.276 N 
ATOM      3  C   UNL     1      35.363 -18.951 -22.342  0.00  0.00    +0.026 C 
ATOM      4  C   UNL     1      35.170 -17.480 -21.922  0.00  0.00    +0.026 C 
ATOM      5  C   UNL     1      34.574 -19.254 -23.630  0.00  0.00    +0.026 C 
ATOM      6  C   UNL     1      35.509 -16.535 -23.074  0.00  0.00    +0.094 C 
ATOM      7  C   UNL     1      34.923 -18.261 -24.737  0.00  0.00    +0.094 C 
ATOM      8  C   UNL     1      33.892 -16.026 -24.978  0.00  0.00    +0.251 C 
ENDROOT
BRANCH   8  10
ATOM      9  N   UNL     1      34.033 -12.289 -24.793  0.00  0.00    -0.242 NA
ATOM     10  C   UNL     1      33.717 -14.660 -24.472  0.00  0.00    +0.072 C 
ATOM     11  C   UNL     1      33.099 -14.427 -23.252  0.00  0.00    +0.003 C 
ATOM     12  C   UNL     1      32.946 -13.121 -22.799  0.00  0.00    -0.003 C 
ATOM     13  C   UNL     1      34.163 -13.573 -25.200  0.00  0.00    +0.103 C 
ATOM     14  C   UNL     1      33.426 -12.097 -23.600  0.00  0.00    +0.095 C 
BRANCH  12  15
ATOM     15  C   UNL     1      32.288 -12.832 -21.497  0.00  0.00    +0.033 C 
BRANCH  15  16
ATOM     16  C   UNL     1      31.159 -11.783 -21.579  0.00  0.00    +0.031 C 
BRANCH  16  17
ATOM     17  C   UNL     1      31.594 -10.408 -21.131  0.00  0.00    -0.022 C 
ATOM     18  C   UNL     1      31.871 -10.186 -19.792  0.00  0.00    -0.004 C 
ATOM     19  C   UNL     1      31.708  -9.394 -22.068  0.00  0.00    -0.004 C 
ATOM     20  C   UNL     1      32.272  -8.916 -19.378  0.00  0.00    -0.000 C 
ATOM     21  C   UNL     1      32.111  -8.123 -21.654  0.00  0.00    -0.000 C 
ATOM     22  C   UNL     1      32.392  -7.884 -20.309  0.00  0.00    -0.000 C 
ENDBRANCH  16  17
ENDBRANCH  15  16
ENDBRANCH  12  15
ENDBRANCH   8  10
BRANCH   3  23
ATOM     23  C   UNL     1      35.016 -19.912 -21.221  0.00  0.00    -0.023 C 
ATOM     24  C   UNL     1      36.026 -20.430 -20.412  0.00  0.00    -0.011 C 
ATOM     25  C   UNL     1      33.687 -20.274 -21.003  0.00  0.00    -0.004 C 
ATOM     26  C   UNL     1      35.707 -21.313 -19.382  0.00  0.00    -0.045 C 
ATOM     27  C   UNL     1      33.369 -21.158 -19.971  0.00  0.00    -0.001 C 
ATOM     28  C   UNL     1      34.378 -21.677 -19.161  0.00  0.00    -0.006 C 
BRANCH  26  29
ATOM     29  C   UNL     1      36.785 -21.868 -18.513  0.00  0.00    -0.059 C 
BRANCH  29  30
ATOM     30  N   UNL     1      37.181 -20.938 -17.454  0.00  0.00    +0.383 N 
ATOM     31  H   UNL     1      37.065 -19.980 -17.782  0.00  0.00    -0.089 HD
ATOM     32  H   UNL     1      38.158 -21.098 -17.209  0.00  0.00    -0.089 HD
ATOM     33  H   UNL     1      36.595 -21.089 -16.633  0.00  0.00    -0.089 HD
ENDBRANCH  29  30
ENDBRANCH  26  29
ENDBRANCH   3  23
TORSDOF 7
ENDMDL
MODEL 2
REMARK VINA RESULT:     -13.7      1.069      1.794
REMARK  Name = 657077
REMARK  7 active torsions:
REMARK  status: ('A' for Active; 'I' for Inactive)
REMARK    1  A    between atoms: C_3  and  C_23
REMARK    2  A    between atoms: C_8  and  C_10
REMARK    3  A    between atoms: C_12  and  C_15
REMARK    4  A    between atoms: C_15  and  C_16
REMARK    5  A    between atoms: C_16  and  C_17
REMARK    6  A    between atoms: C_26  and  C_29
REMARK    7  A    between atoms: C_29  and  N_30
REMARK                            x       y       z     vdW  Elec       q    Type
REMARK                         _______ _______ _______ _____ _____    ______ ____
ROOT
ATOM      1  O   UNL     1      32.880 -16.093 -26.053  0.00  0.00    -0.270 OA
ATOM      2  N   UNL     1      34.625 -16.638 -24.595  0.00  0.00    -0.276 N 
ATOM      3  C   UNL     1      35.592 -18.683 -22.791  0.00  0.00    +0.026 C 
ATOM      4  C   UNL     1      35.452 -17.212 -22.350  0.00  0.00    +0.026 C 
ATOM      5  C   UNL     1      34.603 -19.003 -23.928  0.00  0.00    +0.026 C 
ATOM      6  C   UNL     1      35.583 -16.269 -23.546  0.00  0.00    +0.094 C 
ATOM      7  C   UNL     1      34.751 -18.012 -25.082  0.00  0.00    +0.094 C 
ATOM      8  C   UNL     1      33.665 -15.791 -25.156  0.00  0.00    +0.251 C 
ENDROOT
BRANCH   8  10
ATOM      9  N   UNL     1      34.011 -12.071 -24.917  0.00  0.00    -0.242 NA
ATOM     10  C   UNL     1      33.559 -14.424 -24.634  0.00  0.00    +0.072 C 
ATOM     11  C   UNL     1      32.938 -14.174 -23.418  0.00  0.00    +0.003 C 
ATOM     12  C   UNL     1      32.853 -12.867 -22.948  0.00  0.00    -0.003 C 
ATOM     13  C   UNL     1      34.074 -13.355 -25.340  0.00  0.00    +0.103 C 
ATOM     14  C   UNL     1      33.399 -11.861 -23.729  0.00  0.00    +0.095 C 
BRANCH  12  15
ATOM     15  C   UNL     1      32.194 -12.560 -21.651  0.00  0.00    +0.033 C 
BRANCH  15  16
ATOM     16  C   UNL     1      31.075 -11.501 -21.747  0.00  0.00    +0.031 C 
BRANCH  16  17
ATOM     17  C   UNL     1      31.564 -10.097 -21.480  0.00  0.00    -0.022 C 
ATOM     18  C   UNL     1      31.527  -9.160 -22.500  0.00  0.00    -0.004 C 
ATOM     19  C   UNL     1      32.039  -9.772 -20.220  0.00  0.00    -0.004 C 
ATOM     20  C   UNL     1      31.978  -7.863 -22.254  0.00  0.00    -0.000 C 
ATOM     21  C   UNL     1      32.489  -8.474 -19.973  0.00  0.00    -0.000 C 
ATOM     22  C   UNL     1      32.459  -7.520 -20.991  0.00  0.00    -0.000 C 
ENDBRANCH  16  17
ENDBRANCH  15  16
ENDBRANCH  12  15
ENDBRANCH   8  10
BRANCH   3  23
ATOM     23  C   UNL     1      35.449 -19.642 -21.624  0.00  0.00    -0.023 C 
ATOM     24  C   UNL     1      34.181 -19.990 -21.164  0.00  0.00    -0.011 C 
ATOM     25  C   UNL     1      36.586 -20.173 -21.017  0.00  0.00    -0.004 C 
ATOM     26  C   UNL     1      34.048 -20.873 -20.092  0.00  0.00    -0.045 C 
ATOM     27  C   UNL     1      36.453 -21.055 -19.945  0.00  0.00    -0.001 C 
ATOM     28  C   UNL     1      35.185 -21.405 -19.483  0.00  0.00    -0.006 C 
BRANCH  26  29
ATOM     29  C   UNL     1      32.692 -21.249 -19.597  0.00  0.00    -0.059 C 
BRANCH  29  30
ATOM     30  N   UNL     1      32.733 -22.375 -18.662  0.00  0.00    +0.383 N 
ATOM     31  H   UNL     1      32.810 -23.248 -19.185  0.00  0.00    -0.089 HD
ATOM     32  H   UNL     1      31.879 -22.386 -18.105  0.00  0.00    -0.089 HD
ATOM     33  H   UNL     1      33.540 -22.276 -18.046  0.00  0.00    -0.089 HD
ENDBRANCH  29  30
ENDBRANCH  26  29
ENDBRANCH   3  23
TORSDOF 7
ENDMDL
MODEL 3
REMARK VINA RESULT:     -13.6      2.297      3.433
REMARK  Name = 657077
REMARK  7 active torsions:
REMARK  status: ('A' for Active; 'I' for Inactive)
REMARK    1  A    between atoms: C_3  and  C_23
REMARK    2  A    between atoms: C_8  and  C_10
REMARK    3  A    between atoms: C_12  and  C_15
REMARK    4  A    between atoms: C_15  and  C_16
REMARK    5  A    between atoms: C_16  and  C_17
REMARK    6  A    between atoms: C_26  and  C_29
REMARK    7  A    between atoms: C_29  and  N_30
REMARK                            x       y       z     vdW  Elec       q    Type
REMARK                         _______ _______ _______ _____ _____    ______ ____
ROOT
ATOM      1  O   UNL     1      32.777 -14.270 -24.845  0.00  0.00    -0.270 OA
ATOM      2  N   UNL     1      34.372 -14.986 -23.293  0.00  0.00    -0.276 N 
ATOM      3  C   UNL     1      35.570 -17.340 -22.110  0.00  0.00    +0.026 C 
ATOM      4  C   UNL     1      34.985 -16.206 -21.245  0.00  0.00    +0.026 C 
ATOM      5  C   UNL     1      34.878 -17.384 -23.486  0.00  0.00    +0.026 C 
ATOM      6  C   UNL     1      35.035 -14.871 -21.988  0.00  0.00    +0.094 C 
ATOM      7  C   UNL     1      34.925 -16.018 -24.171  0.00  0.00    +0.094 C 
ATOM      8  C   UNL     1      33.315 -14.190 -23.742  0.00  0.00    +0.251 C 
ENDROOT
BRANCH   8  10
ATOM      9  N   UNL     1      31.961 -12.608 -20.631  0.00  0.00    -0.242 NA
ATOM     10  C   UNL     1      32.777 -13.175 -22.830  0.00  0.00    +0.072 C 
ATOM     11  C   UNL     1      32.575 -11.871 -23.257  0.00  0.00    +0.003 C 
ATOM     12  C   UNL     1      32.064 -10.930 -22.369  0.00  0.00    -0.003 C 
ATOM     13  C   UNL     1      32.460 -13.494 -21.523  0.00  0.00    +0.103 C 
ATOM     14  C   UNL     1      31.777 -11.346 -21.079  0.00  0.00    +0.095 C 
BRANCH  12  15
ATOM     15  C   UNL     1      31.835  -9.522 -22.791  0.00  0.00    +0.033 C 
BRANCH  15  16
ATOM     16  C   UNL     1      32.862  -8.519 -22.226  0.00  0.00    +0.031 C 
BRANCH  16  17
ATOM     17  C   UNL     1      33.399  -7.568 -23.270  0.00  0.00    -0.022 C 
ATOM     18  C   UNL     1      32.545  -6.642 -23.848  0.00  0.00    -0.004 C 
ATOM     19  C   UNL     1      34.734  -7.640 -23.630  0.00  0.00    -0.004 C 
ATOM     20  C   UNL     1      33.040  -5.765 -24.812  0.00  0.00    -0.000 C 
ATOM     21  C   UNL     1      35.230  -6.761 -24.594  0.00  0.00    -0.000 C 
ATOM     22  C   UNL     1      34.382  -5.824 -25.185  0.00  0.00    -0.000 C 
ENDBRANCH  16  17
ENDBRANCH  15  16
ENDBRANCH  12  15
ENDBRANCH   8  10
BRANCH   3  23
ATOM     23  C   UNL     1      35.516 -18.680 -21.403  0.00  0.00    -0.023 C 
ATOM     24  C   UNL     1      34.285 -19.271 -21.127  0.00  0.00    -0.011 C 
ATOM     25  C   UNL     1      36.699 -19.318 -21.032  0.00  0.00    -0.004 C 
ATOM     26  C   UNL     1      34.235 -20.504 -20.478  0.00  0.00    -0.045 C 
ATOM     27  C   UNL     1      36.649 -20.552 -20.381  0.00  0.00    -0.001 C 
ATOM     28  C   UNL     1      35.417 -21.145 -20.105  0.00  0.00    -0.006 C 
BRANCH  26  29
ATOM     29  C   UNL     1      32.918 -21.140 -20.183  0.00  0.00    -0.059 C 
BRANCH  29  30
ATOM     30  N   UNL     1      33.042 -22.281 -19.273  0.00  0.00    +0.383 N 
ATOM     31  H   UNL     1      32.978 -23.149 -19.806  0.00  0.00    -0.089 HD
ATOM     32  H   UNL     1      32.293 -22.249 -18.583  0.00  0.00    -0.089 HD
ATOM     33  H   UNL     1      33.944 -22.241 -18.799  0.00  0.00    -0.089 HD
ENDBRANCH  29  30
ENDBRANCH  26  29
ENDBRANCH   3  23
TORSDOF 7
ENDMDL
MODEL 4
REMARK VINA RESULT:     -13.3      1.654      2.524
REMARK  Name = 657077
REMARK  7 active torsions:
REMARK  status: ('A' for Active; 'I' for Inactive)
REMARK    1  A    between atoms: C_3  and  C_23
REMARK    2  A    between atoms: C_8  and  C_10
REMARK    3  A    between atoms: C_12  and  C_15
REMARK    4  A    between atoms: C_15  and  C_16
REMARK    5  A    between atoms: C_16  and  C_17
REMARK    6  A    between atoms: C_26  and  C_29
REMARK    7  A    between atoms: C_29  and  N_30
REMARK                            x       y       z     vdW  Elec       q    Type
REMARK                         _______ _______ _______ _____ _____    ______ ____
ROOT
ATOM      1  O   UNL     1      33.070 -14.967 -25.242  0.00  0.00    -0.270 OA
ATOM      2  N   UNL     1      34.599 -15.607 -23.593  0.00  0.00    -0.276 N 
ATOM      3  C   UNL     1      35.645 -17.890 -22.154  0.00  0.00    +0.026 C 
ATOM      4  C   UNL     1      35.113 -16.643 -21.421  0.00  0.00    +0.026 C 
ATOM      5  C   UNL     1      34.971 -18.036 -23.532  0.00  0.00    +0.026 C 
ATOM      6  C   UNL     1      35.249 -15.396 -22.294  0.00  0.00    +0.094 C 
ATOM      7  C   UNL     1      35.106 -16.752 -24.350  0.00  0.00    +0.094 C 
ATOM      8  C   UNL     1      33.596 -14.805 -24.142  0.00  0.00    +0.251 C 
ENDROOT
BRANCH   8  10
ATOM      9  N   UNL     1      31.924 -12.887 -21.395  0.00  0.00    -0.242 NA
ATOM     10  C   UNL     1      33.103 -13.674 -23.348  0.00  0.00    +0.072 C 
ATOM     11  C   UNL     1      33.326 -12.367 -23.758  0.00  0.00    +0.003 C 
ATOM     12  C   UNL     1      32.847 -11.315 -22.984  0.00  0.00    -0.003 C 
ATOM     13  C   UNL     1      32.406 -13.883 -22.174  0.00  0.00    +0.103 C 
ATOM     14  C   UNL     1      32.159 -11.626 -21.822  0.00  0.00    +0.095 C 
BRANCH  12  15
ATOM     15  C   UNL     1      33.068  -9.901 -23.390  0.00  0.00    +0.033 C 
BRANCH  15  16
ATOM     16  C   UNL     1      31.795  -9.029 -23.358  0.00  0.00    +0.031 C 
BRANCH  16  17
ATOM     17  C   UNL     1      31.864  -7.916 -22.339  0.00  0.00    -0.022 C 
ATOM     18  C   UNL     1      32.641  -8.083 -21.203  0.00  0.00    -0.004 C 
ATOM     19  C   UNL     1      31.151  -6.750 -22.559  0.00  0.00    -0.004 C 
ATOM     20  C   UNL     1      32.705  -7.055 -20.262  0.00  0.00    -0.000 C 
ATOM     21  C   UNL     1      31.216  -5.721 -21.618  0.00  0.00    -0.000 C 
ATOM     22  C   UNL     1      31.993  -5.875 -20.470  0.00  0.00    -0.000 C 
ENDBRANCH  16  17
ENDBRANCH  15  16
ENDBRANCH  12  15
ENDBRANCH   8  10
BRANCH   3  23
ATOM     23  C   UNL     1      35.505 -19.146 -21.316  0.00  0.00    -0.023 C 
ATOM     24  C   UNL     1      34.238 -19.630 -20.996  0.00  0.00    -0.011 C 
ATOM     25  C   UNL     1      36.644 -19.815 -20.870  0.00  0.00    -0.004 C 
ATOM     26  C   UNL     1      34.109 -20.785 -20.226  0.00  0.00    -0.045 C 
ATOM     27  C   UNL     1      36.515 -20.970 -20.100  0.00  0.00    -0.001 C 
ATOM     28  C   UNL     1      35.248 -21.456 -19.778  0.00  0.00    -0.006 C 
BRANCH  26  29
ATOM     29  C   UNL     1      32.754 -21.306 -19.882  0.00  0.00    -0.059 C 
BRANCH  29  30
ATOM     30  N   UNL     1      32.808 -22.394 -18.903  0.00  0.00    +0.383 N 
ATOM     31  H   UNL     1      33.313 -22.080 -18.074  0.00  0.00    -0.089 HD
ATOM     32  H   UNL     1      33.288 -23.195 -19.312  0.00  0.00    -0.089 HD
ATOM     33  H   UNL     1      31.859 -22.662 -18.641  0.00  0.00    -0.089 HD
ENDBRANCH  29  30
ENDBRANCH  26  29
ENDBRANCH   3  23
TORSDOF 7
ENDMDL
MODEL 5
REMARK VINA RESULT:     -13.3      1.876      2.636
REMARK  Name = 657077
REMARK  7 active torsions:
REMARK  status: ('A' for Active; 'I' for Inactive)
REMARK    1  A    between atoms: C_3  and  C_23
REMARK    2  A    between atoms: C_8  and  C_10
REMARK    3  A    between atoms: C_12  and  C_15
REMARK    4  A    between atoms: C_15  and  C_16
REMARK    5  A    between atoms: C_16  and  C_17
REMARK    6  A    between atoms: C_26  and  C_29
REMARK    7  A    between atoms: C_29  and  N_30
REMARK                            x       y       z     vdW  Elec       q    Type
REMARK                         _______ _______ _______ _____ _____    ______ ____
ROOT
ATOM      1  O   UNL     1      33.314 -15.496 -25.403  0.00  0.00    -0.270 OA
ATOM      2  N   UNL     1      34.656 -16.177 -23.614  0.00  0.00    -0.276 N 
ATOM      3  C   UNL     1      35.360 -18.454 -21.972  0.00  0.00    +0.026 C 
ATOM      4  C   UNL     1      34.915 -17.114 -21.353  0.00  0.00    +0.026 C 
ATOM      5  C   UNL     1      34.765 -18.622 -23.384  0.00  0.00    +0.026 C 
ATOM      6  C   UNL     1      35.238 -15.948 -22.286  0.00  0.00    +0.094 C 
ATOM      7  C   UNL     1      35.088 -17.415 -24.264  0.00  0.00    +0.094 C 
ATOM      8  C   UNL     1      33.781 -15.315 -24.280  0.00  0.00    +0.251 C 
ENDROOT
BRANCH   8  10
ATOM      9  N   UNL     1      32.151 -13.062 -21.774  0.00  0.00    -0.242 NA
ATOM     10  C   UNL     1      33.359 -14.090 -23.591  0.00  0.00    +0.072 C 
ATOM     11  C   UNL     1      33.740 -12.843 -24.063  0.00  0.00    +0.003 C 
ATOM     12  C   UNL     1      33.325 -11.698 -23.390  0.00  0.00    -0.003 C 
ATOM     13  C   UNL     1      32.574 -14.151 -22.456  0.00  0.00    +0.103 C 
ATOM     14  C   UNL     1      32.539 -11.861 -22.260  0.00  0.00    +0.095 C 
BRANCH  12  15
ATOM     15  C   UNL     1      33.714 -10.344 -23.865  0.00  0.00    +0.033 C 
BRANCH  15  16
ATOM     16  C   UNL     1      33.170  -9.190 -22.996  0.00  0.00    +0.031 C 
BRANCH  16  17
ATOM     17  C   UNL     1      33.222  -7.850 -23.691  0.00  0.00    -0.022 C 
ATOM     18  C   UNL     1      32.046  -7.148 -23.901  0.00  0.00    -0.004 C 
ATOM     19  C   UNL     1      34.445  -7.348 -24.105  0.00  0.00    -0.004 C 
ATOM     20  C   UNL     1      32.094  -5.911 -24.543  0.00  0.00    -0.000 C 
ATOM     21  C   UNL     1      34.493  -6.109 -24.746  0.00  0.00    -0.000 C 
ATOM     22  C   UNL     1      33.317  -5.391 -24.966  0.00  0.00    -0.000 C 
ENDBRANCH  16  17
ENDBRANCH  15  16
ENDBRANCH  12  15
ENDBRANCH   8  10
BRANCH   3  23
ATOM     23  C   UNL     1      35.033 -19.632 -21.073  0.00  0.00    -0.023 C 
ATOM     24  C   UNL     1      36.035 -20.211 -20.297  0.00  0.00    -0.011 C 
ATOM     25  C   UNL     1      33.732 -20.129 -21.025  0.00  0.00    -0.004 C 
ATOM     26  C   UNL     1      35.735 -21.293 -19.470  0.00  0.00    -0.045 C 
ATOM     27  C   UNL     1      33.433 -21.212 -20.198  0.00  0.00    -0.001 C 
ATOM     28  C   UNL     1      34.434 -21.793 -19.420  0.00  0.00    -0.006 C 
BRANCH  26  29
ATOM     29  C   UNL     1      36.805 -21.915 -18.637  0.00  0.00    -0.059 C 
BRANCH  29  30
ATOM     30  N   UNL     1      37.186 -21.074 -17.500  0.00  0.00    +0.383 N 
ATOM     31  H   UNL     1      37.582 -20.199 -17.843  0.00  0.00    -0.089 HD
ATOM     32  H   UNL     1      37.878 -21.562 -16.933  0.00  0.00    -0.089 HD
ATOM     33  H   UNL     1      36.361 -20.874 -16.934  0.00  0.00    -0.089 HD
ENDBRANCH  29  30
ENDBRANCH  26  29
ENDBRANCH   3  23
TORSDOF 7
ENDMDL
MODEL 6
REMARK VINA RESULT:     -11.8      3.992     11.350
REMARK  Name = 657077
REMARK  7 active torsions:
REMARK  status: ('A' for Active; 'I' for Inactive)
REMARK    1  A    between atoms: C_3  and  C_23
REMARK    2  A    between atoms: C_8  and  C_10
REMARK    3  A    between atoms: C_12  and  C_15
REMARK    4  A    between atoms: C_15  and  C_16
REMARK    5  A    between atoms: C_16  and  C_17
REMARK    6  A    between atoms: C_26  and  C_29
REMARK    7  A    between atoms: C_29  and  N_30
REMARK                            x       y       z     vdW  Elec       q    Type
REMARK                         _______ _______ _______ _____ _____    ______ ____
ROOT
ATOM      1  O   UNL     1      37.204 -21.487 -18.014  0.00  0.00    -0.270 OA
ATOM      2  N   UNL     1      36.033 -20.968 -19.970  0.00  0.00    -0.276 N 
ATOM      3  C   UNL     1      35.497 -18.847 -21.864  0.00  0.00    +0.026 C 
ATOM      4  C   UNL     1      34.359 -19.635 -21.186  0.00  0.00    +0.026 C 
ATOM      5  C   UNL     1      36.758 -18.847 -20.978  0.00  0.00    +0.026 C 
ATOM      6  C   UNL     1      34.823 -21.039 -20.799  0.00  0.00    +0.094 C 
ATOM      7  C   UNL     1      37.159 -20.270 -20.592  0.00  0.00    +0.094 C 
ATOM      8  C   UNL     1      36.182 -21.525 -18.697  0.00  0.00    +0.251 C 
ENDROOT
BRANCH   8  10
ATOM      9  N   UNL     1      32.695 -22.806 -18.237  0.00  0.00    -0.242 NA
ATOM     10  C   UNL     1      35.027 -22.205 -18.100  0.00  0.00    +0.072 C 
ATOM     11  C   UNL     1      35.143 -22.870 -16.888  0.00  0.00    +0.003 C 
ATOM     12  C   UNL     1      34.031 -23.506 -16.346  0.00  0.00    -0.003 C 
ATOM     13  C   UNL     1      33.798 -22.200 -18.731  0.00  0.00    +0.103 C 
ATOM     14  C   UNL     1      32.841 -23.446 -17.055  0.00  0.00    +0.095 C 
BRANCH  12  15
ATOM     15  C   UNL     1      34.116 -24.230 -15.050  0.00  0.00    +0.033 C 
BRANCH  15  16
ATOM     16  C   UNL     1      35.305 -25.209 -14.951  0.00  0.00    +0.031 C 
BRANCH  16  17
ATOM     17  C   UNL     1      36.335 -24.788 -13.930  0.00  0.00    -0.022 C 
ATOM     18  C   UNL     1      37.440 -25.595 -13.707  0.00  0.00    -0.004 C 
ATOM     19  C   UNL     1      36.157 -23.604 -13.234  0.00  0.00    -0.004 C 
ATOM     20  C   UNL     1      38.391 -25.207 -12.764  0.00  0.00    -0.000 C 
ATOM     21  C   UNL     1      37.109 -23.215 -12.291  0.00  0.00    -0.000 C 
ATOM     22  C   UNL     1      38.226 -24.017 -12.056  0.00  0.00    -0.000 C 
ENDBRANCH  16  17
ENDBRANCH  15  16
ENDBRANCH  12  15
ENDBRANCH   8  10
BRANCH   3  23
ATOM     23  C   UNL     1      35.068 -17.442 -22.242  0.00  0.00    -0.023 C 
ATOM     24  C   UNL     1      34.792 -17.135 -23.573  0.00  0.00    -0.011 C 
ATOM     25  C   UNL     1      34.948 -16.463 -21.257  0.00  0.00    -0.004 C 
ATOM     26  C   UNL     1      34.396 -15.844 -23.922  0.00  0.00    -0.045 C 
ATOM     27  C   UNL     1      34.553 -15.171 -21.606  0.00  0.00    -0.001 C 
ATOM     28  C   UNL     1      34.276 -14.862 -22.938  0.00  0.00    -0.006 C 
BRANCH  26  29
ATOM     29  C   UNL     1      34.100 -15.512 -25.346  0.00  0.00    -0.059 C 
BRANCH  29  30
ATOM     30  N   UNL     1      32.904 -14.678 -25.486  0.00  0.00    +0.383 N 
ATOM     31  H   UNL     1      32.074 -15.242 -25.305  0.00  0.00    -0.089 HD
ATOM     32  H   UNL     1      32.862 -14.301 -26.432  0.00  0.00    -0.089 HD
ATOM     33  H   UNL     1      32.946 -13.911 -24.815  0.00  0.00    -0.089 HD
ENDBRANCH  29  30
ENDBRANCH  26  29
ENDBRANCH   3  23
TORSDOF 7
ENDMDL
MODEL 7
REMARK VINA RESULT:     -11.7      4.813      8.488
REMARK  Name = 657077
REMARK  7 active torsions:
REMARK  status: ('A' for Active; 'I' for Inactive)
REMARK    1  A    between atoms: C_3  and  C_23
REMARK    2  A    between atoms: C_8  and  C_10
REMARK    3  A    between atoms: C_12  and  C_15
REMARK    4  A    between atoms: C_15  and  C_16
REMARK    5  A    between atoms: C_16  and  C_17
REMARK    6  A    between atoms: C_26  and  C_29
REMARK    7  A    between atoms: C_29  and  N_30
REMARK                            x       y       z     vdW  Elec       q    Type
REMARK                         _______ _______ _______ _____ _____    ______ ____
ROOT
ATOM      1  O   UNL     1      32.318  -7.689 -19.479  0.00  0.00    -0.270 OA
ATOM      2  N   UNL     1      31.579  -9.378 -20.916  0.00  0.00    -0.276 N 
ATOM      3  C   UNL     1      31.958 -12.159 -21.623  0.00  0.00    +0.026 C 
ATOM      4  C   UNL     1      32.003 -11.039 -22.682  0.00  0.00    +0.026 C 
ATOM      5  C   UNL     1      32.354 -11.610 -20.239  0.00  0.00    +0.026 C 
ATOM      6  C   UNL     1      31.160  -9.841 -22.245  0.00  0.00    +0.094 C 
ATOM      7  C   UNL     1      31.507 -10.394 -19.865  0.00  0.00    +0.094 C 
ATOM      8  C   UNL     1      31.992  -8.082 -20.598  0.00  0.00    +0.251 C 
ENDROOT
BRANCH   8  10
ATOM      9  N   UNL     1      31.117  -5.161 -22.769  0.00  0.00    -0.242 NA
ATOM     10  C   UNL     1      32.064  -7.094 -21.680  0.00  0.00    +0.072 C 
ATOM     11  C   UNL     1      33.093  -7.132 -22.610  0.00  0.00    +0.003 C 
ATOM     12  C   UNL     1      33.136  -6.182 -23.624  0.00  0.00    -0.003 C 
ATOM     13  C   UNL     1      31.110  -6.102 -21.798  0.00  0.00    +0.103 C 
ATOM     14  C   UNL     1      32.133  -5.226 -23.659  0.00  0.00    +0.095 C 
BRANCH  12  15
ATOM     15  C   UNL     1      34.223  -6.190 -24.638  0.00  0.00    +0.033 C 
BRANCH  15  16
ATOM     16  C   UNL     1      33.764  -5.803 -26.060  0.00  0.00    +0.031 C 
BRANCH  16  17
ATOM     17  C   UNL     1      34.622  -4.731 -26.689  0.00  0.00    -0.022 C 
ATOM     18  C   UNL     1      34.082  -3.476 -26.919  0.00  0.00    -0.004 C 
ATOM     19  C   UNL     1      35.934  -5.023 -27.025  0.00  0.00    -0.004 C 
ATOM     20  C   UNL     1      34.874  -2.487 -27.501  0.00  0.00    -0.000 C 
ATOM     21  C   UNL     1      36.727  -4.033 -27.606  0.00  0.00    -0.000 C 
ATOM     22  C   UNL     1      36.196  -2.765 -27.845  0.00  0.00    -0.000 C 
ENDBRANCH  16  17
ENDBRANCH  15  16
ENDBRANCH  12  15
ENDBRANCH   8  10
BRANCH   3  23
ATOM     23  C   UNL     1      32.802 -13.354 -22.024  0.00  0.00    -0.023 C 
ATOM     24  C   UNL     1      32.913 -13.706 -23.368  0.00  0.00    -0.011 C 
ATOM     25  C   UNL     1      33.465 -14.095 -21.048  0.00  0.00    -0.004 C 
ATOM     26  C   UNL     1      33.689 -14.804 -23.737  0.00  0.00    -0.045 C 
ATOM     27  C   UNL     1      34.241 -15.194 -21.418  0.00  0.00    -0.001 C 
ATOM     28  C   UNL     1      34.353 -15.548 -22.762  0.00  0.00    -0.006 C 
BRANCH  26  29
ATOM     29  C   UNL     1      33.810 -15.184 -25.175  0.00  0.00    -0.059 C 
BRANCH  29  30
ATOM     30  N   UNL     1      32.669 -14.725 -25.970  0.00  0.00    +0.383 N 
ATOM     31  H   UNL     1      31.844 -15.274 -25.729  0.00  0.00    -0.089 HD
ATOM     32  H   UNL     1      32.877 -14.841 -26.962  0.00  0.00    -0.089 HD
ATOM     33  H   UNL     1      32.491 -13.741 -25.772  0.00  0.00    -0.089 HD
ENDBRANCH  29  30
ENDBRANCH  26  29
ENDBRANCH   3  23
TORSDOF 7
ENDMDL
MODEL 8
REMARK VINA RESULT:     -11.7      3.918     11.510
REMARK  Name = 657077
REMARK  7 active torsions:
REMARK  status: ('A' for Active; 'I' for Inactive)
REMARK    1  A    between atoms: C_3  and  C_23
REMARK    2  A    between atoms: C_8  and  C_10
REMARK    3  A    between atoms: C_12  and  C_15
REMARK    4  A    between atoms: C_15  and  C_16
REMARK    5  A    between atoms: C_16  and  C_17
REMARK    6  A    between atoms: C_26  and  C_29
REMARK    7  A    between atoms: C_29  and  N_30
REMARK                            x       y       z     vdW  Elec       q    Type
REMARK                         _______ _______ _______ _____ _____    ______ ____
ROOT
ATOM      1  O   UNL     1      30.007 -10.512 -22.427  0.00  0.00    -0.270 OA
ATOM      2  N   UNL     1      31.893  -9.133 -22.326  0.00  0.00    -0.276 N 
ATOM      3  C   UNL     1      33.190  -6.873 -23.584  0.00  0.00    +0.026 C 
ATOM      4  C   UNL     1      33.933  -8.200 -23.337  0.00  0.00    +0.026 C 
ATOM      5  C   UNL     1      31.674  -7.117 -23.715  0.00  0.00    +0.026 C 
ATOM      6  C   UNL     1      33.338  -8.946 -22.143  0.00  0.00    +0.094 C 
ATOM      7  C   UNL     1      31.136  -7.895 -22.514  0.00  0.00    +0.094 C 
ATOM      8  C   UNL     1      31.221 -10.358 -22.300  0.00  0.00    +0.251 C 
ENDROOT
BRANCH   8  10
ATOM      9  N   UNL     1      32.709 -13.393 -20.691  0.00  0.00    -0.242 NA
ATOM     10  C   UNL     1      32.015 -11.579 -22.122  0.00  0.00    +0.072 C 
ATOM     11  C   UNL     1      32.797 -12.075 -23.155  0.00  0.00    +0.003 C 
ATOM     12  C   UNL     1      33.539 -13.235 -22.957  0.00  0.00    -0.003 C 
ATOM     13  C   UNL     1      32.002 -12.263 -20.922  0.00  0.00    +0.103 C 
ATOM     14  C   UNL     1      33.460 -13.851 -21.718  0.00  0.00    +0.095 C 
BRANCH  12  15
ATOM     15  C   UNL     1      34.388 -13.798 -24.041  0.00  0.00    +0.033 C 
BRANCH  15  16
ATOM     16  C   UNL     1      33.748 -14.985 -24.791  0.00  0.00    +0.031 C 
BRANCH  16  17
ATOM     17  C   UNL     1      34.354 -16.317 -24.418  0.00  0.00    -0.022 C 
ATOM     18  C   UNL     1      34.057 -17.436 -25.180  0.00  0.00    -0.004 C 
ATOM     19  C   UNL     1      35.196 -16.397 -23.320  0.00  0.00    -0.004 C 
ATOM     20  C   UNL     1      34.616 -18.666 -24.835  0.00  0.00    -0.000 C 
ATOM     21  C   UNL     1      35.756 -17.627 -22.976  0.00  0.00    -0.000 C 
ATOM     22  C   UNL     1      35.465 -18.762 -23.734  0.00  0.00    -0.000 C 
ENDBRANCH  16  17
ENDBRANCH  15  16
ENDBRANCH  12  15
ENDBRANCH   8  10
BRANCH   3  23
ATOM     23  C   UNL     1      33.750  -6.120 -24.776  0.00  0.00    -0.023 C 
ATOM     24  C   UNL     1      32.927  -5.267 -25.508  0.00  0.00    -0.011 C 
ATOM     25  C   UNL     1      35.087  -6.283 -25.134  0.00  0.00    -0.004 C 
ATOM     26  C   UNL     1      33.442  -4.574 -26.603  0.00  0.00    -0.045 C 
ATOM     27  C   UNL     1      35.602  -5.590 -26.230  0.00  0.00    -0.001 C 
ATOM     28  C   UNL     1      34.780  -4.735 -26.964  0.00  0.00    -0.006 C 
BRANCH  26  29
ATOM     29  C   UNL     1      32.563  -3.659 -27.389  0.00  0.00    -0.059 C 
BRANCH  29  30
ATOM     30  N   UNL     1      32.404  -4.097 -28.777  0.00  0.00    +0.383 N 
ATOM     31  H   UNL     1      31.878  -3.394 -29.297  0.00  0.00    -0.089 HD
ATOM     32  H   UNL     1      31.900  -4.983 -28.799  0.00  0.00    -0.089 HD
ATOM     33  H   UNL     1      33.323  -4.217 -29.203  0.00  0.00    -0.089 HD
ENDBRANCH  29  30
ENDBRANCH  26  29
ENDBRANCH   3  23
TORSDOF 7
ENDMDL
MODEL 9
REMARK VINA RESULT:     -11.7      3.884     11.718
REMARK  Name = 657077
REMARK  7 active torsions:
REMARK  status: ('A' for Active; 'I' for Inactive)
REMARK    1  A    between atoms: C_3  and  C_23
REMARK    2  A    between atoms: C_8  and  C_10
REMARK    3  A    between atoms: C_12  and  C_15
REMARK    4  A    between atoms: C_15  and  C_16
REMARK    5  A    between atoms: C_16  and  C_17
REMARK    6  A    between atoms: C_26  and  C_29
REMARK    7  A    between atoms: C_29  and  N_30
REMARK                            x       y       z     vdW  Elec       q    Type
REMARK                         _______ _______ _______ _____ _____    ______ ____
ROOT
ATOM      1  O   UNL     1      30.575 -10.698 -22.087  0.00  0.00    -0.270 OA
ATOM      2  N   UNL     1      32.336  -9.180 -22.338  0.00  0.00    -0.276 N 
ATOM      3  C   UNL     1      33.043  -6.604 -23.452  0.00  0.00    +0.026 C 
ATOM      4  C   UNL     1      33.864  -7.872 -23.757  0.00  0.00    +0.026 C 
ATOM      5  C   UNL     1      31.585  -6.972 -23.113  0.00  0.00    +0.026 C 
ATOM      6  C   UNL     1      33.747  -8.886 -22.618  0.00  0.00    +0.094 C 
ATOM      7  C   UNL     1      31.525  -8.012 -21.994  0.00  0.00    +0.094 C 
ATOM      8  C   UNL     1      31.752 -10.449 -22.348  0.00  0.00    +0.251 C 
ENDROOT
BRANCH   8  10
ATOM      9  N   UNL     1      34.178 -12.585 -24.236  0.00  0.00    -0.242 NA
ATOM     10  C   UNL     1      32.593 -11.595 -22.710  0.00  0.00    +0.072 C 
ATOM     11  C   UNL     1      32.617 -12.737 -21.921  0.00  0.00    +0.003 C 
ATOM     12  C   UNL     1      33.425 -13.808 -22.290  0.00  0.00    -0.003 C 
ATOM     13  C   UNL     1      33.380 -11.565 -23.845  0.00  0.00    +0.103 C 
ATOM     14  C   UNL     1      34.179 -13.682 -23.446  0.00  0.00    +0.095 C 
BRANCH  12  15
ATOM     15  C   UNL     1      33.478 -15.047 -21.469  0.00  0.00    +0.033 C 
BRANCH  15  16
ATOM     16  C   UNL     1      34.877 -15.693 -21.392  0.00  0.00    +0.031 C 
BRANCH  16  17
ATOM     17  C   UNL     1      34.959 -17.019 -22.109  0.00  0.00    -0.022 C 
ATOM     18  C   UNL     1      34.991 -18.191 -21.369  0.00  0.00    -0.004 C 
ATOM     19  C   UNL     1      35.000 -17.040 -23.494  0.00  0.00    -0.004 C 
ATOM     20  C   UNL     1      35.066 -19.415 -22.032  0.00  0.00    -0.000 C 
ATOM     21  C   UNL     1      35.074 -18.266 -24.156  0.00  0.00    -0.000 C 
ATOM     22  C   UNL     1      35.108 -19.453 -23.425  0.00  0.00    -0.000 C 
ENDBRANCH  16  17
ENDBRANCH  15  16
ENDBRANCH  12  15
ENDBRANCH   8  10
BRANCH   3  23
ATOM     23  C   UNL     1      33.127  -5.588 -24.575  0.00  0.00    -0.023 C 
ATOM     24  C   UNL     1      32.190  -4.561 -24.654  0.00  0.00    -0.011 C 
ATOM     25  C   UNL     1      34.144  -5.685 -25.523  0.00  0.00    -0.004 C 
ATOM     26  C   UNL     1      32.268  -3.626 -25.685  0.00  0.00    -0.045 C 
ATOM     27  C   UNL     1      34.222  -4.750 -26.556  0.00  0.00    -0.001 C 
ATOM     28  C   UNL     1      33.284  -3.720 -26.637  0.00  0.00    -0.006 C 
BRANCH  26  29
ATOM     29  C   UNL     1      31.266  -2.524 -25.773  0.00  0.00    -0.059 C 
BRANCH  29  30
ATOM     30  N   UNL     1      30.169  -2.691 -24.817  0.00  0.00    +0.383 N 
ATOM     31  H   UNL     1      29.660  -1.812 -24.726  0.00  0.00    -0.089 HD
ATOM     32  H   UNL     1      30.547  -2.961 -23.909  0.00  0.00    -0.089 HD
ATOM     33  H   UNL     1      29.536  -3.417 -25.151  0.00  0.00    -0.089 HD
ENDBRANCH  29  30
ENDBRANCH  26  29
ENDBRANCH   3  23
TORSDOF 7
ENDMDL
