MODEL 1
REMARK VINA RESULT:     -14.0      0.000      0.000
REMARK  Name = 42642648
REMARK  5 active torsions:
REMARK  status: ('A' for Active; 'I' for Inactive)
REMARK    1  A    between atoms: N_1  and  C_22
REMARK    2  A    between atoms: C_4  and  N_15
REMARK    3  A    between atoms: C_25  and  O_28
REMARK    4  A    between atoms: O_28  and  C_29
REMARK    5  A    between atoms: C_29  and  C_32
REMARK                            x       y       z     vdW  Elec       q    Type
REMARK                         _______ _______ _______ _____ _____    ______ ____
ROOT
ATOM      1  N   UNL     1      34.259 -14.501 -22.832  0.00  0.00    -0.301 N 
ATOM      2  N   UNL     1      33.706 -17.145 -25.969  0.00  0.00    -0.248 NA
ATOM      3  N   UNL     1      33.432 -14.962 -24.986  0.00  0.00    -0.233 NA
ATOM      4  C   UNL     1      35.701 -18.481 -22.561  0.00  0.00    +0.048 C 
ATOM      5  C   UNL     1      34.565 -16.717 -23.772  0.00  0.00    +0.117 C 
ATOM      6  C   UNL     1      35.239 -17.171 -22.624  0.00  0.00    +0.001 C 
ATOM      7  C   UNL     1      34.349 -17.569 -24.866  0.00  0.00    +0.067 C 
ATOM      8  C   UNL     1      34.078 -15.419 -23.897  0.00  0.00    +0.115 C 
ATOM      9  C   UNL     1      35.492 -19.334 -23.639  0.00  0.00    +0.016 C 
ATOM     10  C   UNL     1      34.821 -18.876 -24.776  0.00  0.00    +0.016 C 
ATOM     11  C   UNL     1      33.282 -15.865 -25.969  0.00  0.00    +0.251 C 
ATOM     12  H   UNL     1      35.072 -14.664 -22.302  0.00  0.00    +0.153 HD
ENDROOT
BRANCH   4  15
ATOM     13  O   UNL     1      36.940 -20.228 -19.612  0.00  0.00    -0.448 OA
ATOM     14  N   UNL     1      35.181 -20.945 -20.881  0.00  0.00    -0.222 NA
ATOM     15  N   UNL     1      36.377 -18.942 -21.414  0.00  0.00    -0.269 N 
ATOM     16  C   UNL     1      35.431 -21.958 -19.844  0.00  0.00    +0.151 C 
ATOM     17  C   UNL     1      36.343 -21.269 -18.851  0.00  0.00    +0.233 C 
ATOM     18  C   UNL     1      36.111 -20.060 -20.683  0.00  0.00    +0.284 C 
ATOM     19  C   UNL     1      34.123 -22.422 -19.233  0.00  0.00    +0.030 C 
ATOM     20  H   UNL     1      37.131 -18.390 -21.103  0.00  0.00    +0.157 HD
ENDBRANCH   4  15
BRANCH   1  22
ATOM     21 CL   UNL     1      32.625  -9.731 -23.691  0.00  0.00    -0.079 Cl
ATOM     22  C   UNL     1      33.503 -13.404 -22.389  0.00  0.00    +0.050 C 
ATOM     23  C   UNL     1      33.439 -12.244 -23.159  0.00  0.00    +0.029 C 
ATOM     24  C   UNL     1      32.817 -13.476 -21.177  0.00  0.00    +0.018 C 
ATOM     25  C   UNL     1      32.000 -11.227 -21.506  0.00  0.00    +0.150 C 
ATOM     26  C   UNL     1      32.687 -11.155 -22.719  0.00  0.00    +0.093 C 
ATOM     27  C   UNL     1      32.065 -12.387 -20.736  0.00  0.00    +0.039 C 
BRANCH  25  28
ATOM     28  O   UNL     1      31.258 -10.178 -21.051  0.00  0.00    -0.468 OA
BRANCH  28  29
ATOM     29  C   UNL     1      31.702  -9.545 -19.852  0.00  0.00    +0.257 C 
BRANCH  29  32
ATOM     30  S   UNL     1      31.795  -7.499 -21.725  0.00  0.00    -0.067 S 
ATOM     31  N   UNL     1      32.120  -7.181 -19.180  0.00  0.00    -0.237 NA
ATOM     32  C   UNL     1      31.887  -8.078 -20.112  0.00  0.00    +0.132 C 
ATOM     33  C   UNL     1      32.089  -5.913 -21.145  0.00  0.00    +0.057 C 
ATOM     34  C   UNL     1      32.236  -5.940 -19.774  0.00  0.00    +0.106 C 
ENDBRANCH  29  32
ENDBRANCH  28  29
ENDBRANCH  25  28
ENDBRANCH   1  22
TORSDOF 5
ENDMDL
MODEL 2
REMARK VINA RESULT:     -13.1      1.736      2.208
REMARK  Name = 42642648
REMARK  5 active torsions:
REMARK  status: ('A' for Active; 'I' for Inactive)
REMARK    1  A    between atoms: N_1  and  C_22
REMARK    2  A    between atoms: C_4  and  N_15
REMARK    3  A    between atoms: C_25  and  O_28
REMARK    4  A    between atoms: O_28  and  C_29
REMARK    5  A    between atoms: C_29  and  C_32
REMARK                            x       y       z     vdW  Elec       q    Type
REMARK                         _______ _______ _______ _____ _____    ______ ____
ROOT
ATOM      1  N   UNL     1      34.268 -13.334 -23.793  0.00  0.00    -0.301 N 
ATOM      2  N   UNL     1      33.085 -16.255 -26.476  0.00  0.00    -0.248 NA
ATOM      3  N   UNL     1      33.082 -13.965 -25.725  0.00  0.00    -0.233 NA
ATOM      4  C   UNL     1      35.532 -17.351 -23.285  0.00  0.00    +0.048 C 
ATOM      5  C   UNL     1      34.307 -15.653 -24.503  0.00  0.00    +0.117 C 
ATOM      6  C   UNL     1      35.133 -16.026 -23.428  0.00  0.00    +0.001 C 
ATOM      7  C   UNL     1      33.874 -16.601 -25.444  0.00  0.00    +0.067 C 
ATOM      8  C   UNL     1      33.872 -14.346 -24.703  0.00  0.00    +0.115 C 
ATOM      9  C   UNL     1      35.110 -18.298 -24.210  0.00  0.00    +0.016 C 
ATOM     10  C   UNL     1      34.289 -17.920 -25.276  0.00  0.00    +0.016 C 
ATOM     11  C   UNL     1      32.731 -14.957 -26.561  0.00  0.00    +0.251 C 
ATOM     12  H   UNL     1      35.146 -13.494 -23.379  0.00  0.00    +0.153 HD
ENDROOT
BRANCH   4  15
ATOM     13  O   UNL     1      37.221 -18.936 -20.471  0.00  0.00    -0.448 OA
ATOM     14  N   UNL     1      35.426 -19.836 -21.560  0.00  0.00    -0.222 NA
ATOM     15  N   UNL     1      36.359 -17.731 -22.209  0.00  0.00    -0.269 N 
ATOM     16  C   UNL     1      35.876 -20.809 -20.552  0.00  0.00    +0.151 C 
ATOM     17  C   UNL     1      36.808 -20.023 -19.654  0.00  0.00    +0.233 C 
ATOM     18  C   UNL     1      36.278 -18.862 -21.455  0.00  0.00    +0.284 C 
ATOM     19  C   UNL     1      34.687 -21.393 -19.815  0.00  0.00    +0.030 C 
ATOM     20  H   UNL     1      37.082 -17.104 -21.974  0.00  0.00    +0.157 HD
ENDBRANCH   4  15
BRANCH   1  22
ATOM     21 CL   UNL     1      30.618 -11.114 -20.981  0.00  0.00    -0.079 Cl
ATOM     22  C   UNL     1      33.649 -12.147 -23.369  0.00  0.00    +0.050 C 
ATOM     23  C   UNL     1      32.568 -12.200 -22.490  0.00  0.00    +0.029 C 
ATOM     24  C   UNL     1      34.116 -10.916 -23.828  0.00  0.00    +0.018 C 
ATOM     25  C   UNL     1      32.421  -9.788 -22.527  0.00  0.00    +0.150 C 
ATOM     26  C   UNL     1      31.954 -11.020 -22.068  0.00  0.00    +0.093 C 
ATOM     27  C   UNL     1      33.502  -9.736 -23.407  0.00  0.00    +0.039 C 
BRANCH  25  28
ATOM     28  O   UNL     1      31.840  -8.620 -22.132  0.00  0.00    -0.468 OA
BRANCH  28  29
ATOM     29  C   UNL     1      32.715  -7.547 -21.785  0.00  0.00    +0.257 C 
BRANCH  29  32
ATOM     30  S   UNL     1      33.048  -6.105 -24.132  0.00  0.00    -0.067 S 
ATOM     31  N   UNL     1      31.500  -5.408 -22.183  0.00  0.00    -0.237 NA
ATOM     32  C   UNL     1      32.343  -6.333 -22.584  0.00  0.00    +0.132 C 
ATOM     33  C   UNL     1      32.160  -4.648 -24.295  0.00  0.00    +0.057 C 
ATOM     34  C   UNL     1      31.396  -4.442 -23.165  0.00  0.00    +0.106 C 
ENDBRANCH  29  32
ENDBRANCH  28  29
ENDBRANCH  25  28
ENDBRANCH   1  22
TORSDOF 5
ENDMDL
MODEL 3
REMARK VINA RESULT:     -13.0      5.666      9.971
REMARK  Name = 42642648
REMARK  5 active torsions:
REMARK  status: ('A' for Active; 'I' for Inactive)
REMARK    1  A    between atoms: N_1  and  C_22
REMARK    2  A    between atoms: C_4  and  N_15
REMARK    3  A    between atoms: C_25  and  O_28
REMARK    4  A    between atoms: O_28  and  C_29
REMARK    5  A    between atoms: C_29  and  C_32
REMARK                            x       y       z     vdW  Elec       q    Type
REMARK                         _______ _______ _______ _____ _____    ______ ____
ROOT
ATOM      1  N   UNL     1      33.900 -22.696 -18.517  0.00  0.00    -0.301 N 
ATOM      2  N   UNL     1      30.717 -23.139 -15.909  0.00  0.00    -0.248 NA
ATOM      3  N   UNL     1      31.648 -22.295 -17.965  0.00  0.00    -0.233 NA
ATOM      4  C   UNL     1      34.380 -24.849 -14.895  0.00  0.00    +0.048 C 
ATOM      5  C   UNL     1      33.016 -23.570 -16.435  0.00  0.00    +0.117 C 
ATOM      6  C   UNL     1      34.251 -24.149 -16.090  0.00  0.00    +0.001 C 
ATOM      7  C   UNL     1      31.902 -23.688 -15.589  0.00  0.00    +0.067 C 
ATOM      8  C   UNL     1      32.820 -22.857 -17.613  0.00  0.00    +0.115 C 
ATOM      9  C   UNL     1      33.284 -24.972 -14.049  0.00  0.00    +0.016 C 
ATOM     10  C   UNL     1      32.061 -24.394 -14.398  0.00  0.00    +0.016 C 
ATOM     11  C   UNL     1      30.654 -22.473 -17.079  0.00  0.00    +0.251 C 
ATOM     12  H   UNL     1      34.543 -23.440 -18.503  0.00  0.00    +0.153 HD
ENDROOT
BRANCH   4  15
ATOM     13  O   UNL     1      37.620 -25.775 -13.507  0.00  0.00    -0.448 OA
ATOM     14  N   UNL     1      36.407 -23.962 -12.829  0.00  0.00    -0.222 NA
ATOM     15  N   UNL     1      35.615 -25.431 -14.543  0.00  0.00    -0.269 N 
ATOM     16  C   UNL     1      37.602 -24.050 -11.975  0.00  0.00    +0.151 C 
ATOM     17  C   UNL     1      38.511 -25.026 -12.692  0.00  0.00    +0.233 C 
ATOM     18  C   UNL     1      36.502 -25.000 -13.604  0.00  0.00    +0.284 C 
ATOM     19  C   UNL     1      38.222 -22.678 -11.793  0.00  0.00    +0.030 C 
ATOM     20  H   UNL     1      35.866 -26.247 -15.036  0.00  0.00    +0.157 HD
ENDBRANCH   4  15
BRANCH   1  22
ATOM     21 CL   UNL     1      37.517 -19.733 -20.590  0.00  0.00    -0.079 Cl
ATOM     22  C   UNL     1      34.227 -21.680 -19.430  0.00  0.00    +0.050 C 
ATOM     23  C   UNL     1      35.549 -21.253 -19.552  0.00  0.00    +0.029 C 
ATOM     24  C   UNL     1      33.231 -21.099 -20.213  0.00  0.00    +0.018 C 
ATOM     25  C   UNL     1      34.877 -19.662 -21.243  0.00  0.00    +0.150 C 
ATOM     26  C   UNL     1      35.875 -20.244 -20.459  0.00  0.00    +0.093 C 
ATOM     27  C   UNL     1      33.556 -20.090 -21.120  0.00  0.00    +0.039 C 
BRANCH  25  28
ATOM     28  O   UNL     1      35.166 -18.675 -22.137  0.00  0.00    -0.468 OA
BRANCH  28  29
ATOM     29  C   UNL     1      34.862 -18.933 -23.507  0.00  0.00    +0.257 C 
BRANCH  29  32
ATOM     30  S   UNL     1      34.753 -16.165 -23.334  0.00  0.00    -0.067 S 
ATOM     31  N   UNL     1      34.068 -17.538 -25.414  0.00  0.00    -0.237 NA
ATOM     32  C   UNL     1      34.529 -17.637 -24.187  0.00  0.00    +0.132 C 
ATOM     33  C   UNL     1      34.191 -15.311 -24.710  0.00  0.00    +0.057 C 
ATOM     34  C   UNL     1      33.875 -16.204 -25.713  0.00  0.00    +0.106 C 
ENDBRANCH  29  32
ENDBRANCH  28  29
ENDBRANCH  25  28
ENDBRANCH   1  22
TORSDOF 5
ENDMDL
MODEL 4
REMARK VINA RESULT:     -12.7      5.714     10.111
REMARK  Name = 42642648
REMARK  5 active torsions:
REMARK  status: ('A' for Active; 'I' for Inactive)
REMARK    1  A    between atoms: N_1  and  C_22
REMARK    2  A    between atoms: C_4  and  N_15
REMARK    3  A    between atoms: C_25  and  O_28
REMARK    4  A    between atoms: O_28  and  C_29
REMARK    5  A    between atoms: C_29  and  C_32
REMARK                            x       y       z     vdW  Elec       q    Type
REMARK                         _______ _______ _______ _____ _____    ______ ____
ROOT
ATOM      1  N   UNL     1      33.171 -22.927 -17.815  0.00  0.00    -0.301 N 
ATOM      2  N   UNL     1      29.678 -23.104 -15.601  0.00  0.00    -0.248 NA
ATOM      3  N   UNL     1      30.857 -22.539 -17.625  0.00  0.00    -0.233 NA
ATOM      4  C   UNL     1      33.208 -24.494 -13.875  0.00  0.00    +0.048 C 
ATOM      5  C   UNL     1      32.035 -23.515 -15.754  0.00  0.00    +0.117 C 
ATOM      6  C   UNL     1      33.225 -23.986 -15.169  0.00  0.00    +0.001 C 
ATOM      7  C   UNL     1      30.821 -23.550 -15.051  0.00  0.00    +0.067 C 
ATOM      8  C   UNL     1      31.984 -22.994 -17.044  0.00  0.00    +0.115 C 
ATOM      9  C   UNL     1      32.012 -24.534 -13.168  0.00  0.00    +0.016 C 
ATOM     10  C   UNL     1      30.835 -24.064 -13.756  0.00  0.00    +0.016 C 
ATOM     11  C   UNL     1      29.758 -22.622 -16.858  0.00  0.00    +0.251 C 
ATOM     12  H   UNL     1      33.822 -23.634 -17.604  0.00  0.00    +0.153 HD
ENDROOT
BRANCH   4  15
ATOM     13  O   UNL     1      36.617 -25.246 -12.825  0.00  0.00    -0.448 OA
ATOM     14  N   UNL     1      36.080 -23.720 -14.438  0.00  0.00    -0.222 NA
ATOM     15  N   UNL     1      34.397 -24.967 -13.282  0.00  0.00    -0.269 N 
ATOM     16  C   UNL     1      37.537 -23.670 -14.237  0.00  0.00    +0.151 C 
ATOM     17  C   UNL     1      37.854 -24.920 -13.443  0.00  0.00    +0.233 C 
ATOM     18  C   UNL     1      35.675 -24.591 -13.565  0.00  0.00    +0.284 C 
ATOM     19  C   UNL     1      38.252 -23.614 -15.573  0.00  0.00    +0.030 C 
ATOM     20  H   UNL     1      34.290 -25.650 -12.581  0.00  0.00    +0.157 HD
ENDBRANCH   4  15
BRANCH   1  22
ATOM     21 CL   UNL     1      37.071 -20.785 -20.337  0.00  0.00    -0.079 Cl
ATOM     22  C   UNL     1      33.596 -22.046 -18.823  0.00  0.00    +0.050 C 
ATOM     23  C   UNL     1      34.958 -21.865 -19.062  0.00  0.00    +0.029 C 
ATOM     24  C   UNL     1      32.656 -21.352 -19.584  0.00  0.00    +0.018 C 
ATOM     25  C   UNL     1      34.440 -20.296 -20.825  0.00  0.00    +0.150 C 
ATOM     26  C   UNL     1      35.380 -20.991 -20.063  0.00  0.00    +0.093 C 
ATOM     27  C   UNL     1      33.078 -20.477 -20.585  0.00  0.00    +0.039 C 
BRANCH  25  28
ATOM     28  O   UNL     1      34.824 -19.435 -21.809  0.00  0.00    -0.468 OA
BRANCH  28  29
ATOM     29  C   UNL     1      35.100 -18.090 -21.420  0.00  0.00    +0.257 C 
BRANCH  29  32
ATOM     30  S   UNL     1      34.940 -17.924 -24.185  0.00  0.00    -0.067 S 
ATOM     31  N   UNL     1      35.022 -15.891 -22.591  0.00  0.00    -0.237 NA
ATOM     32  C   UNL     1      35.026 -17.205 -22.630  0.00  0.00    +0.132 C 
ATOM     33  C   UNL     1      34.892 -16.357 -24.880  0.00  0.00    +0.057 C 
ATOM     34  C   UNL     1      34.946 -15.406 -23.882  0.00  0.00    +0.106 C 
ENDBRANCH  29  32
ENDBRANCH  28  29
ENDBRANCH  25  28
ENDBRANCH   1  22
TORSDOF 5
ENDMDL
MODEL 5
REMARK VINA RESULT:     -12.1      5.625     10.194
REMARK  Name = 42642648
REMARK  5 active torsions:
REMARK  status: ('A' for Active; 'I' for Inactive)
REMARK    1  A    between atoms: N_1  and  C_22
REMARK    2  A    between atoms: C_4  and  N_15
REMARK    3  A    between atoms: C_25  and  O_28
REMARK    4  A    between atoms: O_28  and  C_29
REMARK    5  A    between atoms: C_29  and  C_32
REMARK                            x       y       z     vdW  Elec       q    Type
REMARK                         _______ _______ _______ _____ _____    ______ ____
ROOT
ATOM      1  N   UNL     1      35.035 -22.841 -17.660  0.00  0.00    -0.301 N 
ATOM      2  N   UNL     1      31.838 -23.911 -15.258  0.00  0.00    -0.248 NA
ATOM      3  N   UNL     1      32.725 -23.197 -17.382  0.00  0.00    -0.233 NA
ATOM      4  C   UNL     1      35.667 -23.928 -13.609  0.00  0.00    +0.048 C 
ATOM      5  C   UNL     1      34.198 -23.561 -15.500  0.00  0.00    +0.117 C 
ATOM      6  C   UNL     1      35.488 -23.568 -14.941  0.00  0.00    +0.001 C 
ATOM      7  C   UNL     1      33.076 -23.914 -14.733  0.00  0.00    +0.067 C 
ATOM      8  C   UNL     1      33.951 -23.210 -16.824  0.00  0.00    +0.115 C 
ATOM      9  C   UNL     1      34.563 -24.280 -12.840  0.00  0.00    +0.016 C 
ATOM     10  C   UNL     1      33.284 -24.269 -13.402  0.00  0.00    +0.016 C 
ATOM     11  C   UNL     1      31.730 -23.552 -16.553  0.00  0.00    +0.251 C 
ATOM     12  H   UNL     1      35.884 -23.280 -17.425  0.00  0.00    +0.153 HD
ENDROOT
BRANCH   4  15
ATOM     13  O   UNL     1      39.209 -24.239 -12.808  0.00  0.00    -0.448 OA
ATOM     14  N   UNL     1      38.298 -24.799 -14.827  0.00  0.00    -0.222 NA
ATOM     15  N   UNL     1      36.957 -23.937 -13.043  0.00  0.00    -0.269 N 
ATOM     16  C   UNL     1      39.755 -24.978 -14.925  0.00  0.00    +0.151 C 
ATOM     17  C   UNL     1      40.240 -24.939 -13.491  0.00  0.00    +0.233 C 
ATOM     18  C   UNL     1      38.121 -24.338 -13.626  0.00  0.00    +0.284 C 
ATOM     19  C   UNL     1      40.081 -26.279 -15.632  0.00  0.00    +0.030 C 
ATOM     20  H   UNL     1      37.026 -23.616 -12.114  0.00  0.00    +0.157 HD
ENDBRANCH   4  15
BRANCH   1  22
ATOM     21 CL   UNL     1      32.623 -20.147 -21.277  0.00  0.00    -0.079 Cl
ATOM     22  C   UNL     1      35.130 -21.972 -18.759  0.00  0.00    +0.050 C 
ATOM     23  C   UNL     1      33.974 -21.535 -19.405  0.00  0.00    +0.029 C 
ATOM     24  C   UNL     1      36.381 -21.546 -19.203  0.00  0.00    +0.018 C 
ATOM     25  C   UNL     1      35.321 -20.244 -20.940  0.00  0.00    +0.150 C 
ATOM     26  C   UNL     1      34.069 -20.671 -20.495  0.00  0.00    +0.093 C 
ATOM     27  C   UNL     1      36.476 -20.682 -20.294  0.00  0.00    +0.039 C 
BRANCH  25  28
ATOM     28  O   UNL     1      35.444 -19.400 -22.004  0.00  0.00    -0.468 OA
BRANCH  28  29
ATOM     29  C   UNL     1      35.620 -18.015 -21.713  0.00  0.00    +0.257 C 
BRANCH  29  32
ATOM     30  S   UNL     1      34.880 -18.010 -24.387  0.00  0.00    -0.067 S 
ATOM     31  N   UNL     1      35.054 -15.900 -22.904  0.00  0.00    -0.237 NA
ATOM     32  C   UNL     1      35.200 -17.206 -22.905  0.00  0.00    +0.132 C 
ATOM     33  C   UNL     1      34.512 -16.495 -25.100  0.00  0.00    +0.057 C 
ATOM     34  C   UNL     1      34.659 -15.494 -24.164  0.00  0.00    +0.106 C 
ENDBRANCH  29  32
ENDBRANCH  28  29
ENDBRANCH  25  28
ENDBRANCH   1  22
TORSDOF 5
ENDMDL
MODEL 6
REMARK VINA RESULT:     -12.1      4.447     10.534
REMARK  Name = 42642648
REMARK  5 active torsions:
REMARK  status: ('A' for Active; 'I' for Inactive)
REMARK    1  A    between atoms: N_1  and  C_22
REMARK    2  A    between atoms: C_4  and  N_15
REMARK    3  A    between atoms: C_25  and  O_28
REMARK    4  A    between atoms: O_28  and  C_29
REMARK    5  A    between atoms: C_29  and  C_32
REMARK                            x       y       z     vdW  Elec       q    Type
REMARK                         _______ _______ _______ _____ _____    ______ ____
ROOT
ATOM      1  N   UNL     1      34.210 -17.917 -22.075  0.00  0.00    -0.301 N 
ATOM      2  N   UNL     1      34.927 -16.430 -25.870  0.00  0.00    -0.248 NA
ATOM      3  N   UNL     1      34.971 -18.238 -24.278  0.00  0.00    -0.233 NA
ATOM      4  C   UNL     1      33.310 -13.876 -22.999  0.00  0.00    +0.048 C 
ATOM      5  C   UNL     1      34.141 -16.061 -23.635  0.00  0.00    +0.117 C 
ATOM      6  C   UNL     1      33.595 -15.197 -22.669  0.00  0.00    +0.001 C 
ATOM      7  C   UNL     1      34.406 -15.612 -24.939  0.00  0.00    +0.067 C 
ATOM      8  C   UNL     1      34.449 -17.392 -23.369  0.00  0.00    +0.115 C 
ATOM      9  C   UNL     1      33.569 -13.420 -24.287  0.00  0.00    +0.016 C 
ATOM     10  C   UNL     1      34.112 -14.284 -25.241  0.00  0.00    +0.016 C 
ATOM     11  C   UNL     1      35.182 -17.697 -25.490  0.00  0.00    +0.251 C 
ATOM     12  H   UNL     1      33.455 -17.492 -21.608  0.00  0.00    +0.153 HD
ENDROOT
BRANCH   4  15
ATOM     13  O   UNL     1      31.989 -11.101 -21.041  0.00  0.00    -0.448 OA
ATOM     14  N   UNL     1      32.717 -10.914 -23.198  0.00  0.00    -0.222 NA
ATOM     15  N   UNL     1      32.764 -13.005 -22.036  0.00  0.00    -0.269 N 
ATOM     16  C   UNL     1      32.177  -9.608 -22.790  0.00  0.00    +0.151 C 
ATOM     17  C   UNL     1      32.051  -9.703 -21.284  0.00  0.00    +0.233 C 
ATOM     18  C   UNL     1      32.511 -11.673 -22.165  0.00  0.00    +0.284 C 
ATOM     19  C   UNL     1      33.097  -8.491 -23.244  0.00  0.00    +0.030 C 
ATOM     20  H   UNL     1      32.538 -13.408 -21.165  0.00  0.00    +0.157 HD
ENDBRANCH   4  15
BRANCH   1  22
ATOM     21 CL   UNL     1      33.785 -22.323 -19.512  0.00  0.00    -0.079 Cl
ATOM     22  C   UNL     1      34.842 -18.926 -21.330  0.00  0.00    +0.050 C 
ATOM     23  C   UNL     1      34.100 -20.001 -20.843  0.00  0.00    +0.029 C 
ATOM     24  C   UNL     1      36.211 -18.853 -21.079  0.00  0.00    +0.018 C 
ATOM     25  C   UNL     1      36.098 -20.931 -19.853  0.00  0.00    +0.150 C 
ATOM     26  C   UNL     1      34.727 -21.004 -20.105  0.00  0.00    +0.093 C 
ATOM     27  C   UNL     1      36.839 -19.855 -20.340  0.00  0.00    +0.039 C 
BRANCH  25  28
ATOM     28  O   UNL     1      36.738 -21.896 -19.134  0.00  0.00    -0.468 OA
BRANCH  28  29
ATOM     29  C   UNL     1      37.157 -21.549 -17.815  0.00  0.00    +0.257 C 
BRANCH  29  32
ATOM     30  S   UNL     1      37.552 -23.160 -15.591  0.00  0.00    -0.067 S 
ATOM     31  N   UNL     1      35.316 -22.934 -16.867  0.00  0.00    -0.237 NA
ATOM     32  C   UNL     1      36.563 -22.522 -16.839  0.00  0.00    +0.132 C 
ATOM     33  C   UNL     1      36.211 -24.068 -15.027  0.00  0.00    +0.057 C 
ATOM     34  C   UNL     1      35.115 -23.822 -15.827  0.00  0.00    +0.106 C 
ENDBRANCH  29  32
ENDBRANCH  28  29
ENDBRANCH  25  28
ENDBRANCH   1  22
TORSDOF 5
ENDMDL
MODEL 7
REMARK VINA RESULT:     -11.9      5.017      8.259
REMARK  Name = 42642648
REMARK  5 active torsions:
REMARK  status: ('A' for Active; 'I' for Inactive)
REMARK    1  A    between atoms: N_1  and  C_22
REMARK    2  A    between atoms: C_4  and  N_15
REMARK    3  A    between atoms: C_25  and  O_28
REMARK    4  A    between atoms: O_28  and  C_29
REMARK    5  A    between atoms: C_29  and  C_32
REMARK                            x       y       z     vdW  Elec       q    Type
REMARK                         _______ _______ _______ _____ _____    ______ ____
ROOT
ATOM      1  N   UNL     1      35.467 -21.120 -20.205  0.00  0.00    -0.301 N 
ATOM      2  N   UNL     1      32.361 -22.548 -17.871  0.00  0.00    -0.248 NA
ATOM      3  N   UNL     1      33.160 -21.417 -19.843  0.00  0.00    -0.233 NA
ATOM      4  C   UNL     1      36.274 -23.123 -16.555  0.00  0.00    +0.048 C 
ATOM      5  C   UNL     1      34.719 -22.267 -18.203  0.00  0.00    +0.117 C 
ATOM      6  C   UNL     1      36.038 -22.463 -17.756  0.00  0.00    +0.001 C 
ATOM      7  C   UNL     1      33.626 -22.730 -17.453  0.00  0.00    +0.067 C 
ATOM      8  C   UNL     1      34.415 -21.615 -19.394  0.00  0.00    +0.115 C 
ATOM      9  C   UNL     1      35.199 -23.585 -15.803  0.00  0.00    +0.016 C 
ATOM     10  C   UNL     1      33.892 -23.386 -16.253  0.00  0.00    +0.016 C 
ATOM     11  C   UNL     1      32.197 -21.902 -19.043  0.00  0.00    +0.251 C 
ATOM     12  H   UNL     1      36.299 -21.641 -20.137  0.00  0.00    +0.153 HD
ENDROOT
BRANCH   4  15
ATOM     13  O   UNL     1      39.376 -24.181 -14.961  0.00  0.00    -0.448 OA
ATOM     14  N   UNL     1      37.344 -25.151 -14.579  0.00  0.00    -0.222 NA
ATOM     15  N   UNL     1      37.593 -23.322 -16.101  0.00  0.00    -0.269 N 
ATOM     16  C   UNL     1      38.356 -25.912 -13.827  0.00  0.00    +0.151 C 
ATOM     17  C   UNL     1      39.582 -25.024 -13.837  0.00  0.00    +0.233 C 
ATOM     18  C   UNL     1      38.036 -24.250 -15.207  0.00  0.00    +0.284 C 
ATOM     19  C   UNL     1      37.852 -26.222 -12.431  0.00  0.00    +0.030 C 
ATOM     20  H   UNL     1      38.276 -22.719 -16.474  0.00  0.00    +0.157 HD
ENDBRANCH   4  15
BRANCH   1  22
ATOM     21 CL   UNL     1      34.064 -19.032 -24.658  0.00  0.00    -0.079 Cl
ATOM     22  C   UNL     1      35.550 -20.031 -21.087  0.00  0.00    +0.050 C 
ATOM     23  C   UNL     1      34.853 -20.056 -22.295  0.00  0.00    +0.029 C 
ATOM     24  C   UNL     1      36.330 -18.924 -20.755  0.00  0.00    +0.018 C 
ATOM     25  C   UNL     1      35.716 -17.865 -22.838  0.00  0.00    +0.150 C 
ATOM     26  C   UNL     1      34.935 -18.974 -23.170  0.00  0.00    +0.093 C 
ATOM     27  C   UNL     1      36.413 -17.841 -21.630  0.00  0.00    +0.039 C 
BRANCH  25  28
ATOM     28  O   UNL     1      35.815 -16.794 -23.675  0.00  0.00    -0.468 OA
BRANCH  28  29
ATOM     29  C   UNL     1      35.130 -15.604 -23.286  0.00  0.00    +0.257 C 
BRANCH  29  32
ATOM     30  S   UNL     1      33.734 -13.484 -24.405  0.00  0.00    -0.067 S 
ATOM     31  N   UNL     1      34.082 -15.780 -25.540  0.00  0.00    -0.237 NA
ATOM     32  C   UNL     1      34.345 -15.086 -24.455  0.00  0.00    +0.132 C 
ATOM     33  C   UNL     1      33.056 -13.721 -25.962  0.00  0.00    +0.057 C 
ATOM     34  C   UNL     1      33.342 -14.996 -26.403  0.00  0.00    +0.106 C 
ENDBRANCH  29  32
ENDBRANCH  28  29
ENDBRANCH  25  28
ENDBRANCH   1  22
TORSDOF 5
ENDMDL
MODEL 8
REMARK VINA RESULT:     -11.3      4.393      7.008
REMARK  Name = 42642648
REMARK  5 active torsions:
REMARK  status: ('A' for Active; 'I' for Inactive)
REMARK    1  A    between atoms: N_1  and  C_22
REMARK    2  A    between atoms: C_4  and  N_15
REMARK    3  A    between atoms: C_25  and  O_28
REMARK    4  A    between atoms: O_28  and  C_29
REMARK    5  A    between atoms: C_29  and  C_32
REMARK                            x       y       z     vdW  Elec       q    Type
REMARK                         _______ _______ _______ _____ _____    ______ ____
ROOT
ATOM      1  N   UNL     1      31.862  -9.428 -23.287  0.00  0.00    -0.301 N 
ATOM      2  N   UNL     1      31.887 -11.311 -19.602  0.00  0.00    -0.248 NA
ATOM      3  N   UNL     1      31.545  -9.349 -20.957  0.00  0.00    -0.233 NA
ATOM      4  C   UNL     1      32.896 -13.530 -22.983  0.00  0.00    +0.048 C 
ATOM      5  C   UNL     1      32.220 -11.435 -21.973  0.00  0.00    +0.117 C 
ATOM      6  C   UNL     1      32.561 -12.187 -23.111  0.00  0.00    +0.001 C 
ATOM      7  C   UNL     1      32.212 -12.021 -20.696  0.00  0.00    +0.067 C 
ATOM      8  C   UNL     1      31.876 -10.088 -22.033  0.00  0.00    +0.115 C 
ATOM      9  C   UNL     1      32.892 -14.121 -21.724  0.00  0.00    +0.016 C 
ATOM     10  C   UNL     1      32.553 -13.368 -20.597  0.00  0.00    +0.016 C 
ATOM     11  C   UNL     1      31.572 -10.014 -19.791  0.00  0.00    +0.251 C 
ATOM     12  H   UNL     1      31.643 -10.019 -24.044  0.00  0.00    +0.153 HD
ENDROOT
BRANCH   4  15
ATOM     13  O   UNL     1      34.073 -15.971 -25.420  0.00  0.00    -0.448 OA
ATOM     14  N   UNL     1      34.291 -16.212 -23.159  0.00  0.00    -0.222 NA
ATOM     15  N   UNL     1      33.239 -14.289 -24.120  0.00  0.00    -0.269 N 
ATOM     16  C   UNL     1      34.801 -17.437 -23.794  0.00  0.00    +0.151 C 
ATOM     17  C   UNL     1      34.956 -17.072 -25.255  0.00  0.00    +0.233 C 
ATOM     18  C   UNL     1      33.869 -15.496 -24.157  0.00  0.00    +0.284 C 
ATOM     19  C   UNL     1      36.101 -17.867 -23.143  0.00  0.00    +0.030 C 
ATOM     20  H   UNL     1      32.995 -13.900 -24.991  0.00  0.00    +0.157 HD
ENDBRANCH   4  15
BRANCH   1  22
ATOM     21 CL   UNL     1      35.185  -5.930 -24.985  0.00  0.00    -0.079 Cl
ATOM     22  C   UNL     1      32.101  -8.095 -23.659  0.00  0.00    +0.050 C 
ATOM     23  C   UNL     1      33.369  -7.707 -24.088  0.00  0.00    +0.029 C 
ATOM     24  C   UNL     1      31.069  -7.160 -23.598  0.00  0.00    +0.018 C 
ATOM     25  C   UNL     1      32.573  -5.447 -24.397  0.00  0.00    +0.150 C 
ATOM     26  C   UNL     1      33.606  -6.383 -24.458  0.00  0.00    +0.093 C 
ATOM     27  C   UNL     1      31.305  -5.836 -23.967  0.00  0.00    +0.039 C 
BRANCH  25  28
ATOM     28  O   UNL     1      32.775  -4.146 -24.751  0.00  0.00    -0.468 OA
BRANCH  28  29
ATOM     29  C   UNL     1      32.113  -3.686 -25.928  0.00  0.00    +0.257 C 
BRANCH  29  32
ATOM     30  S   UNL     1      34.012  -2.091 -27.173  0.00  0.00    -0.067 S 
ATOM     31  N   UNL     1      33.373  -4.480 -27.926  0.00  0.00    -0.237 NA
ATOM     32  C   UNL     1      33.118  -3.549 -27.034  0.00  0.00    +0.132 C 
ATOM     33  C   UNL     1      34.816  -2.744 -28.539  0.00  0.00    +0.057 C 
ATOM     34  C   UNL     1      34.347  -4.017 -28.789  0.00  0.00    +0.106 C 
ENDBRANCH  29  32
ENDBRANCH  28  29
ENDBRANCH  25  28
ENDBRANCH   1  22
TORSDOF 5
ENDMDL
MODEL 9
REMARK VINA RESULT:     -11.3      4.234     11.843
REMARK  Name = 42642648
REMARK  5 active torsions:
REMARK  status: ('A' for Active; 'I' for Inactive)
REMARK    1  A    between atoms: N_1  and  C_22
REMARK    2  A    between atoms: C_4  and  N_15
REMARK    3  A    between atoms: C_25  and  O_28
REMARK    4  A    between atoms: O_28  and  C_29
REMARK    5  A    between atoms: C_29  and  C_32
REMARK                            x       y       z     vdW  Elec       q    Type
REMARK                         _______ _______ _______ _____ _____    ______ ____
ROOT
ATOM      1  N   UNL     1      33.213  -9.393 -23.075  0.00  0.00    -0.301 N 
ATOM      2  N   UNL     1      31.690  -7.157 -19.943  0.00  0.00    -0.248 NA
ATOM      3  N   UNL     1      32.694  -9.177 -20.790  0.00  0.00    -0.233 NA
ATOM      4  C   UNL     1      31.711  -5.486 -23.761  0.00  0.00    +0.048 C 
ATOM      5  C   UNL     1      32.204  -7.336 -22.277  0.00  0.00    +0.117 C 
ATOM      6  C   UNL     1      32.210  -6.769 -23.565  0.00  0.00    +0.001 C 
ATOM      7  C   UNL     1      31.700  -6.624 -21.177  0.00  0.00    +0.067 C 
ATOM      8  C   UNL     1      32.688  -8.614 -22.014  0.00  0.00    +0.115 C 
ATOM      9  C   UNL     1      31.209  -4.772 -22.679  0.00  0.00    +0.016 C 
ATOM     10  C   UNL     1      31.205  -5.342 -21.404  0.00  0.00    +0.016 C 
ATOM     11  C   UNL     1      32.187  -8.404 -19.816  0.00  0.00    +0.251 C 
ATOM     12  H   UNL     1      33.621  -8.859 -23.794  0.00  0.00    +0.153 HD
ENDROOT
BRANCH   4  15
ATOM     13  O   UNL     1      32.433  -4.237 -27.108  0.00  0.00    -0.448 OA
ATOM     14  N   UNL     1      33.933  -5.374 -25.814  0.00  0.00    -0.222 NA
ATOM     15  N   UNL     1      31.714  -4.912 -25.048  0.00  0.00    -0.269 N 
ATOM     16  C   UNL     1      34.564  -5.123 -27.120  0.00  0.00    +0.151 C 
ATOM     17  C   UNL     1      33.678  -4.084 -27.775  0.00  0.00    +0.233 C 
ATOM     18  C   UNL     1      32.739  -4.883 -25.945  0.00  0.00    +0.284 C 
ATOM     19  C   UNL     1      35.995  -4.657 -26.934  0.00  0.00    +0.030 C 
ATOM     20  H   UNL     1      30.875  -4.481 -25.333  0.00  0.00    +0.157 HD
ENDBRANCH   4  15
BRANCH   1  22
ATOM     21 CL   UNL     1      32.210 -14.100 -21.346  0.00  0.00    -0.079 Cl
ATOM     22  C   UNL     1      33.263 -10.778 -23.298  0.00  0.00    +0.050 C 
ATOM     23  C   UNL     1      32.773 -11.658 -22.334  0.00  0.00    +0.029 C 
ATOM     24  C   UNL     1      33.803 -11.273 -24.484  0.00  0.00    +0.018 C 
ATOM     25  C   UNL     1      33.363 -13.530 -23.743  0.00  0.00    +0.150 C 
ATOM     26  C   UNL     1      32.822 -13.034 -22.556  0.00  0.00    +0.093 C 
ATOM     27  C   UNL     1      33.853 -12.649 -24.707  0.00  0.00    +0.039 C 
BRANCH  25  28
ATOM     28  O   UNL     1      33.424 -14.870 -23.987  0.00  0.00    -0.468 OA
BRANCH  28  29
ATOM     29  C   UNL     1      34.644 -15.373 -24.531  0.00  0.00    +0.257 C 
BRANCH  29  32
ATOM     30  S   UNL     1      35.235 -17.520 -22.876  0.00  0.00    -0.067 S 
ATOM     31  N   UNL     1      34.307 -17.726 -25.279  0.00  0.00    -0.237 NA
ATOM     32  C   UNL     1      34.678 -16.863 -24.360  0.00  0.00    +0.132 C 
ATOM     33  C   UNL     1      34.963 -19.094 -23.499  0.00  0.00    +0.057 C 
ATOM     34  C   UNL     1      34.471 -19.005 -24.784  0.00  0.00    +0.106 C 
ENDBRANCH  29  32
ENDBRANCH  28  29
ENDBRANCH  25  28
ENDBRANCH   1  22
TORSDOF 5
ENDMDL
