MODEL 1
REMARK VINA RESULT:     -12.7      0.000      0.000
REMARK  Name = 4566
REMARK  6 active torsions:
REMARK  status: ('A' for Active; 'I' for Inactive)
REMARK    1  A    between atoms: N_4  and  C_14
REMARK    2  A    between atoms: C_6  and  O_26
REMARK    3  A    between atoms: C_15  and  S_20
REMARK    4  A    between atoms: S_20  and  N_23
REMARK    5  A    between atoms: O_26  and  C_27
REMARK    6  A    between atoms: C_27  and  C_28
REMARK                            x       y       z     vdW  Elec       q    Type
REMARK                         _______ _______ _______ _____ _____    ______ ____
ROOT
ATOM      1  N   UNL     1      32.622 -23.532 -15.980  0.00  0.00    -0.293 NA
ATOM      2  N   UNL     1      29.321 -22.644 -17.338  0.00  0.00    -0.266 NA
ATOM      3  N   UNL     1      30.754 -24.114 -14.522  0.00  0.00    -0.316 NA
ATOM      4  N   UNL     1      32.965 -24.566 -13.907  0.00  0.00    -0.238 N 
ATOM      5  N   UNL     1      28.577 -23.521 -15.430  0.00  0.00    -0.296 N 
ATOM      6  C   UNL     1      31.789 -23.021 -16.914  0.00  0.00    +0.288 C 
ATOM      7  C   UNL     1      30.434 -23.051 -16.658  0.00  0.00    +0.215 C 
ATOM      8  C   UNL     1      29.946 -23.593 -15.477  0.00  0.00    +0.196 C 
ATOM      9  C   UNL     1      32.060 -24.040 -14.857  0.00  0.00    +0.207 C 
ATOM     10  C   UNL     1      28.233 -22.946 -16.561  0.00  0.00    +0.164 C 
ATOM     11  H   UNL     1      29.304 -22.212 -18.223  0.00  0.00    +0.126 HD
ATOM     12  H   UNL     1      32.528 -24.929 -13.102  0.00  0.00    +0.166 HD
ATOM     13  H   UNL     1      27.984 -23.832 -14.708  0.00  0.00    +0.150 HD
ENDROOT
BRANCH   4  14
ATOM     14  C   UNL     1      34.367 -24.672 -13.886  0.00  0.00    +0.059 C 
ATOM     15  C   UNL     1      37.153 -24.881 -13.848  0.00  0.00    +0.122 C 
ATOM     16  C   UNL     1      35.089 -24.216 -12.782  0.00  0.00    +0.017 C 
ATOM     17  C   UNL     1      35.044 -25.232 -14.973  0.00  0.00    +0.017 C 
ATOM     18  C   UNL     1      36.480 -24.321 -12.761  0.00  0.00    +0.021 C 
ATOM     19  C   UNL     1      36.435 -25.337 -14.953  0.00  0.00    +0.021 C 
BRANCH  15  20
ATOM     20  S   UNL     1      38.894 -25.012 -13.824  0.00  0.00    +0.057 S 
ATOM     21  O   UNL     1      39.406 -24.140 -12.775  0.00  0.00    -0.153 OA
ATOM     22  O   UNL     1      39.251 -26.424 -13.829  0.00  0.00    -0.153 OA
BRANCH  20  23
ATOM     23  N   UNL     1      39.292 -24.340 -15.343  0.00  0.00    -0.203 NA
ATOM     24  H   UNL     1      39.689 -23.410 -15.211  0.00  0.00    +0.144 HD
ATOM     25  H   UNL     1      38.450 -24.272 -15.916  0.00  0.00    +0.144 HD
ENDBRANCH  20  23
ENDBRANCH  15  20
ENDBRANCH   4  14
BRANCH   6  26
ATOM     26  O   UNL     1      32.327 -22.496 -18.063  0.00  0.00    -0.453 OA
BRANCH  26  27
ATOM     27  C   UNL     1      33.666 -22.841 -18.363  0.00  0.00    +0.208 C 
BRANCH  27  28
ATOM     28  C   UNL     1      34.096 -22.072 -19.611  0.00  0.00    +0.044 C 
ATOM     29  C   UNL     1      33.127 -20.918 -19.898  0.00  0.00    +0.004 C 
ATOM     30  C   UNL     1      35.533 -21.556 -19.461  0.00  0.00    +0.004 C 
ATOM     31  C   UNL     1      33.565 -20.101 -21.111  0.00  0.00    +0.000 C 
ATOM     32  C   UNL     1      35.968 -20.738 -20.676  0.00  0.00    +0.000 C 
ATOM     33  C   UNL     1      34.997 -19.596 -20.961  0.00  0.00    +0.000 C 
ENDBRANCH  27  28
ENDBRANCH  26  27
ENDBRANCH   6  26
TORSDOF 6
ENDMDL
MODEL 2
REMARK VINA RESULT:     -12.7      1.174      1.584
REMARK  Name = 4566
REMARK  6 active torsions:
REMARK  status: ('A' for Active; 'I' for Inactive)
REMARK    1  A    between atoms: N_4  and  C_14
REMARK    2  A    between atoms: C_6  and  O_26
REMARK    3  A    between atoms: C_15  and  S_20
REMARK    4  A    between atoms: S_20  and  N_23
REMARK    5  A    between atoms: O_26  and  C_27
REMARK    6  A    between atoms: C_27  and  C_28
REMARK                            x       y       z     vdW  Elec       q    Type
REMARK                         _______ _______ _______ _____ _____    ______ ____
ROOT
ATOM      1  N   UNL     1      33.799 -23.820 -16.050  0.00  0.00    -0.293 NA
ATOM      2  N   UNL     1      30.394 -22.783 -16.976  0.00  0.00    -0.266 NA
ATOM      3  N   UNL     1      32.142 -24.152 -14.290  0.00  0.00    -0.316 NA
ATOM      4  N   UNL     1      34.388 -24.725 -13.972  0.00  0.00    -0.238 N 
ATOM      5  N   UNL     1      29.895 -23.462 -14.913  0.00  0.00    -0.296 N 
ATOM      6  C   UNL     1      32.868 -23.315 -16.890  0.00  0.00    +0.288 C 
ATOM      7  C   UNL     1      31.569 -23.224 -16.436  0.00  0.00    +0.215 C 
ATOM      8  C   UNL     1      31.233 -23.642 -15.155  0.00  0.00    +0.196 C 
ATOM      9  C   UNL     1      33.384 -24.202 -14.818  0.00  0.00    +0.207 C 
ATOM     10  C   UNL     1      29.420 -22.946 -16.025  0.00  0.00    +0.164 C 
ATOM     11  H   UNL     1      30.269 -22.416 -17.881  0.00  0.00    +0.126 HD
ATOM     12  H   UNL     1      34.057 -24.995 -13.084  0.00  0.00    +0.166 HD
ATOM     13  H   UNL     1      29.400 -23.675 -14.088  0.00  0.00    +0.150 HD
ENDROOT
BRANCH   4  14
ATOM     14  C   UNL     1      35.766 -24.935 -14.149  0.00  0.00    +0.059 C 
ATOM     15  C   UNL     1      38.507 -25.353 -14.499  0.00  0.00    +0.122 C 
ATOM     16  C   UNL     1      36.219 -25.963 -14.978  0.00  0.00    +0.017 C 
ATOM     17  C   UNL     1      36.691 -24.116 -13.495  0.00  0.00    +0.017 C 
ATOM     18  C   UNL     1      37.587 -26.173 -15.154  0.00  0.00    +0.021 C 
ATOM     19  C   UNL     1      38.059 -24.326 -13.670  0.00  0.00    +0.021 C 
BRANCH  15  20
ATOM     20  S   UNL     1      40.220 -25.615 -14.718  0.00  0.00    +0.057 S 
ATOM     21  O   UNL     1      40.923 -24.396 -14.344  0.00  0.00    -0.153 OA
ATOM     22  O   UNL     1      40.577 -26.879 -14.088  0.00  0.00    -0.153 OA
BRANCH  20  23
ATOM     23  N   UNL     1      40.306 -25.805 -16.413  0.00  0.00    -0.203 NA
ATOM     24  H   UNL     1      39.395 -26.096 -16.770  0.00  0.00    +0.144 HD
ATOM     25  H   UNL     1      41.002 -26.515 -16.641  0.00  0.00    +0.144 HD
ENDBRANCH  20  23
ENDBRANCH  15  20
ENDBRANCH   4  14
BRANCH   6  26
ATOM     26  O   UNL     1      33.256 -22.918 -18.145  0.00  0.00    -0.453 OA
BRANCH  26  27
ATOM     27  C   UNL     1      34.635 -22.666 -18.344  0.00  0.00    +0.208 C 
BRANCH  27  28
ATOM     28  C   UNL     1      34.802 -21.880 -19.643  0.00  0.00    +0.044 C 
ATOM     29  C   UNL     1      33.586 -20.979 -19.892  0.00  0.00    +0.004 C 
ATOM     30  C   UNL     1      36.097 -21.057 -19.615  0.00  0.00    +0.004 C 
ATOM     31  C   UNL     1      33.752 -20.142 -21.159  0.00  0.00    +0.000 C 
ATOM     32  C   UNL     1      36.259 -20.220 -20.883  0.00  0.00    +0.000 C 
ATOM     33  C   UNL     1      35.044 -19.331 -21.131  0.00  0.00    +0.000 C 
ENDBRANCH  27  28
ENDBRANCH  26  27
ENDBRANCH   6  26
TORSDOF 6
ENDMDL
MODEL 3
REMARK VINA RESULT:     -12.3      3.009      6.816
REMARK  Name = 4566
REMARK  6 active torsions:
REMARK  status: ('A' for Active; 'I' for Inactive)
REMARK    1  A    between atoms: N_4  and  C_14
REMARK    2  A    between atoms: C_6  and  O_26
REMARK    3  A    between atoms: C_15  and  S_20
REMARK    4  A    between atoms: S_20  and  N_23
REMARK    5  A    between atoms: O_26  and  C_27
REMARK    6  A    between atoms: C_27  and  C_28
REMARK                            x       y       z     vdW  Elec       q    Type
REMARK                         _______ _______ _______ _____ _____    ______ ____
ROOT
ATOM      1  N   UNL     1      34.661 -23.990 -14.627  0.00  0.00    -0.293 NA
ATOM      2  N   UNL     1      38.197 -24.260 -13.649  0.00  0.00    -0.266 NA
ATOM      3  N   UNL     1      35.009 -24.399 -12.247  0.00  0.00    -0.316 NA
ATOM      4  N   UNL     1      32.860 -24.184 -13.144  0.00  0.00    -0.238 N 
ATOM      5  N   UNL     1      37.350 -24.577 -11.612  0.00  0.00    -0.296 N 
ATOM      6  C   UNL     1      35.992 -23.989 -14.865  0.00  0.00    +0.288 C 
ATOM      7  C   UNL     1      36.840 -24.195 -13.796  0.00  0.00    +0.215 C 
ATOM      8  C   UNL     1      36.337 -24.393 -12.518  0.00  0.00    +0.196 C 
ATOM      9  C   UNL     1      34.258 -24.192 -13.349  0.00  0.00    +0.207 C 
ATOM     10  C   UNL     1      38.453 -24.491 -12.322  0.00  0.00    +0.164 C 
ATOM     11  H   UNL     1      38.867 -24.160 -14.363  0.00  0.00    +0.126 HD
ATOM     12  H   UNL     1      32.596 -24.332 -12.206  0.00  0.00    +0.166 HD
ATOM     13  H   UNL     1      37.268 -24.736 -10.643  0.00  0.00    +0.150 HD
ENDROOT
BRANCH   4  14
ATOM     14  C   UNL     1      31.771 -24.006 -14.016  0.00  0.00    +0.059 C 
ATOM     15  C   UNL     1      29.610 -23.650 -15.750  0.00  0.00    +0.122 C 
ATOM     16  C   UNL     1      30.898 -25.064 -14.275  0.00  0.00    +0.017 C 
ATOM     17  C   UNL     1      31.559 -22.768 -14.629  0.00  0.00    +0.017 C 
ATOM     18  C   UNL     1      29.818 -24.887 -15.140  0.00  0.00    +0.021 C 
ATOM     19  C   UNL     1      30.480 -22.591 -15.494  0.00  0.00    +0.021 C 
BRANCH  15  20
ATOM     20  S   UNL     1      28.259 -23.428 -16.834  0.00  0.00    +0.057 S 
ATOM     21  O   UNL     1      28.574 -22.336 -17.745  0.00  0.00    -0.153 OA
ATOM     22  O   UNL     1      27.878 -24.728 -17.369  0.00  0.00    -0.153 OA
BRANCH  20  23
ATOM     23  N   UNL     1      27.050 -22.908 -15.746  0.00  0.00    -0.203 NA
ATOM     24  H   UNL     1      26.851 -23.652 -15.077  0.00  0.00    +0.144 HD
ATOM     25  H   UNL     1      26.200 -22.682 -16.264  0.00  0.00    +0.144 HD
ENDBRANCH  20  23
ENDBRANCH  15  20
ENDBRANCH   4  14
BRANCH   6  26
ATOM     26  O   UNL     1      36.434 -23.789 -16.149  0.00  0.00    -0.453 OA
BRANCH  26  27
ATOM     27  C   UNL     1      36.471 -22.453 -16.615  0.00  0.00    +0.208 C 
BRANCH  27  28
ATOM     28  C   UNL     1      35.908 -22.420 -18.035  0.00  0.00    +0.044 C 
ATOM     29  C   UNL     1      34.376 -22.334 -18.010  0.00  0.00    +0.004 C 
ATOM     30  C   UNL     1      36.509 -21.252 -18.829  0.00  0.00    +0.004 C 
ATOM     31  C   UNL     1      33.792 -22.246 -19.417  0.00  0.00    +0.000 C 
ATOM     32  C   UNL     1      35.921 -21.166 -20.236  0.00  0.00    +0.000 C 
ATOM     33  C   UNL     1      34.397 -21.089 -20.206  0.00  0.00    +0.000 C 
ENDBRANCH  27  28
ENDBRANCH  26  27
ENDBRANCH   6  26
TORSDOF 6
ENDMDL
MODEL 4
REMARK VINA RESULT:     -12.3      3.071      6.810
REMARK  Name = 4566
REMARK  6 active torsions:
REMARK  status: ('A' for Active; 'I' for Inactive)
REMARK    1  A    between atoms: N_4  and  C_14
REMARK    2  A    between atoms: C_6  and  O_26
REMARK    3  A    between atoms: C_15  and  S_20
REMARK    4  A    between atoms: S_20  and  N_23
REMARK    5  A    between atoms: O_26  and  C_27
REMARK    6  A    between atoms: C_27  and  C_28
REMARK                            x       y       z     vdW  Elec       q    Type
REMARK                         _______ _______ _______ _____ _____    ______ ____
ROOT
ATOM      1  N   UNL     1      34.529 -23.616 -15.644  0.00  0.00    -0.293 NA
ATOM      2  N   UNL     1      38.184 -23.869 -15.331  0.00  0.00    -0.266 NA
ATOM      3  N   UNL     1      35.280 -24.773 -13.632  0.00  0.00    -0.316 NA
ATOM      4  N   UNL     1      33.005 -24.470 -14.085  0.00  0.00    -0.238 N 
ATOM      5  N   UNL     1      37.698 -24.935 -13.436  0.00  0.00    -0.296 N 
ATOM      6  C   UNL     1      35.800 -23.411 -16.052  0.00  0.00    +0.288 C 
ATOM      7  C   UNL     1      36.821 -23.885 -15.254  0.00  0.00    +0.215 C 
ATOM      8  C   UNL     1      36.543 -24.551 -14.068  0.00  0.00    +0.196 C 
ATOM      9  C   UNL     1      34.350 -24.276 -14.475  0.00  0.00    +0.207 C 
ATOM     10  C   UNL     1      38.665 -24.510 -14.219  0.00  0.00    +0.164 C 
ATOM     11  H   UNL     1      38.723 -23.470 -16.053  0.00  0.00    +0.126 HD
ATOM     12  H   UNL     1      32.905 -24.951 -13.231  0.00  0.00    +0.166 HD
ATOM     13  H   UNL     1      37.783 -25.420 -12.583  0.00  0.00    +0.150 HD
ENDROOT
BRANCH   4  14
ATOM     14  C   UNL     1      31.782 -24.110 -14.677  0.00  0.00    +0.059 C 
ATOM     15  C   UNL     1      29.352 -23.392 -15.854  0.00  0.00    +0.122 C 
ATOM     16  C   UNL     1      30.962 -25.087 -15.245  0.00  0.00    +0.017 C 
ATOM     17  C   UNL     1      31.381 -22.771 -14.700  0.00  0.00    +0.017 C 
ATOM     18  C   UNL     1      29.748 -24.729 -15.833  0.00  0.00    +0.021 C 
ATOM     19  C   UNL     1      30.167 -22.413 -15.288  0.00  0.00    +0.021 C 
BRANCH  15  20
ATOM     20  S   UNL     1      27.833 -22.944 -16.591  0.00  0.00    +0.057 S 
ATOM     21  O   UNL     1      26.801 -22.961 -15.564  0.00  0.00    -0.153 OA
ATOM     22  O   UNL     1      28.042 -21.742 -17.386  0.00  0.00    -0.153 OA
BRANCH  20  23
ATOM     23  N   UNL     1      27.582 -24.263 -17.648  0.00  0.00    -0.203 NA
ATOM     24  H   UNL     1      26.922 -23.993 -18.377  0.00  0.00    +0.144 HD
ATOM     25  H   UNL     1      27.204 -25.052 -17.123  0.00  0.00    +0.144 HD
ENDBRANCH  20  23
ENDBRANCH  15  20
ENDBRANCH   4  14
BRANCH   6  26
ATOM     26  O   UNL     1      36.017 -22.746 -17.234  0.00  0.00    -0.453 OA
BRANCH  26  27
ATOM     27  C   UNL     1      34.987 -22.803 -18.203  0.00  0.00    +0.208 C 
BRANCH  27  28
ATOM     28  C   UNL     1      35.006 -21.504 -19.007  0.00  0.00    +0.044 C 
ATOM     29  C   UNL     1      36.276 -21.416 -19.864  0.00  0.00    +0.004 C 
ATOM     30  C   UNL     1      33.748 -21.388 -19.879  0.00  0.00    +0.004 C 
ATOM     31  C   UNL     1      36.293 -20.150 -20.719  0.00  0.00    +0.000 C 
ATOM     32  C   UNL     1      33.770 -20.122 -20.733  0.00  0.00    +0.000 C 
ATOM     33  C   UNL     1      35.038 -20.034 -21.578  0.00  0.00    +0.000 C 
ENDBRANCH  27  28
ENDBRANCH  26  27
ENDBRANCH   6  26
TORSDOF 6
ENDMDL
MODEL 5
REMARK VINA RESULT:     -11.7      3.557      7.222
REMARK  Name = 4566
REMARK  6 active torsions:
REMARK  status: ('A' for Active; 'I' for Inactive)
REMARK    1  A    between atoms: N_4  and  C_14
REMARK    2  A    between atoms: C_6  and  O_26
REMARK    3  A    between atoms: C_15  and  S_20
REMARK    4  A    between atoms: S_20  and  N_23
REMARK    5  A    between atoms: O_26  and  C_27
REMARK    6  A    between atoms: C_27  and  C_28
REMARK                            x       y       z     vdW  Elec       q    Type
REMARK                         _______ _______ _______ _____ _____    ______ ____
ROOT
ATOM      1  N   UNL     1      34.008 -22.698 -16.663  0.00  0.00    -0.293 NA
ATOM      2  N   UNL     1      32.977 -24.643 -13.717  0.00  0.00    -0.266 NA
ATOM      3  N   UNL     1      31.804 -23.725 -16.867  0.00  0.00    -0.316 NA
ATOM      4  N   UNL     1      32.709 -22.432 -18.593  0.00  0.00    -0.238 N 
ATOM      5  N   UNL     1      31.133 -25.009 -14.914  0.00  0.00    -0.296 N 
ATOM      6  C   UNL     1      34.178 -23.207 -15.423  0.00  0.00    +0.288 C 
ATOM      7  C   UNL     1      33.163 -23.980 -14.896  0.00  0.00    +0.215 C 
ATOM      8  C   UNL     1      32.005 -24.222 -15.622  0.00  0.00    +0.196 C 
ATOM      9  C   UNL     1      32.847 -22.984 -17.299  0.00  0.00    +0.207 C 
ATOM     10  C   UNL     1      31.747 -25.245 -13.774  0.00  0.00    +0.164 C 
ATOM     11  H   UNL     1      33.610 -24.682 -12.963  0.00  0.00    +0.126 HD
ATOM     12  H   UNL     1      31.856 -22.656 -19.031  0.00  0.00    +0.166 HD
ATOM     13  H   UNL     1      30.245 -25.327 -15.196  0.00  0.00    +0.150 HD
ENDROOT
BRANCH   4  14
ATOM     14  C   UNL     1      33.552 -21.624 -19.377  0.00  0.00    +0.059 C 
ATOM     15  C   UNL     1      35.225 -20.017 -20.934  0.00  0.00    +0.122 C 
ATOM     16  C   UNL     1      34.935 -21.816 -19.347  0.00  0.00    +0.017 C 
ATOM     17  C   UNL     1      33.009 -20.624 -20.189  0.00  0.00    +0.017 C 
ATOM     18  C   UNL     1      35.771 -21.014 -20.124  0.00  0.00    +0.021 C 
ATOM     19  C   UNL     1      33.846 -19.822 -20.966  0.00  0.00    +0.021 C 
BRANCH  15  20
ATOM     20  S   UNL     1      36.272 -19.013 -21.906  0.00  0.00    +0.057 S 
ATOM     21  O   UNL     1      37.623 -19.101 -21.369  0.00  0.00    -0.153 OA
ATOM     22  O   UNL     1      36.030 -19.316 -23.309  0.00  0.00    -0.153 OA
BRANCH  20  23
ATOM     23  N   UNL     1      35.643 -17.461 -21.565  0.00  0.00    -0.203 NA
ATOM     24  H   UNL     1      35.531 -16.941 -22.435  0.00  0.00    +0.144 HD
ATOM     25  H   UNL     1      36.286 -16.961 -20.951  0.00  0.00    +0.144 HD
ENDBRANCH  20  23
ENDBRANCH  15  20
ENDBRANCH   4  14
BRANCH   6  26
ATOM     26  O   UNL     1      35.344 -22.937 -14.750  0.00  0.00    -0.453 OA
BRANCH  26  27
ATOM     27  C   UNL     1      36.554 -23.133 -15.456  0.00  0.00    +0.208 C 
BRANCH  27  28
ATOM     28  C   UNL     1      37.575 -23.754 -14.504  0.00  0.00    +0.044 C 
ATOM     29  C   UNL     1      37.079 -23.681 -13.054  0.00  0.00    +0.004 C 
ATOM     30  C   UNL     1      37.879 -25.203 -14.907  0.00  0.00    +0.004 C 
ATOM     31  C   UNL     1      38.059 -24.344 -12.089  0.00  0.00    +0.000 C 
ATOM     32  C   UNL     1      38.858 -25.863 -13.937  0.00  0.00    +0.000 C 
ATOM     33  C   UNL     1      38.365 -25.782 -12.496  0.00  0.00    +0.000 C 
ENDBRANCH  27  28
ENDBRANCH  26  27
ENDBRANCH   6  26
TORSDOF 6
ENDMDL
MODEL 6
REMARK VINA RESULT:     -10.9      7.810     11.000
REMARK  Name = 4566
REMARK  6 active torsions:
REMARK  status: ('A' for Active; 'I' for Inactive)
REMARK    1  A    between atoms: N_4  and  C_14
REMARK    2  A    between atoms: C_6  and  O_26
REMARK    3  A    between atoms: C_15  and  S_20
REMARK    4  A    between atoms: S_20  and  N_23
REMARK    5  A    between atoms: O_26  and  C_27
REMARK    6  A    between atoms: C_27  and  C_28
REMARK                            x       y       z     vdW  Elec       q    Type
REMARK                         _______ _______ _______ _____ _____    ______ ____
ROOT
ATOM      1  N   UNL     1      34.442 -15.878 -23.459  0.00  0.00    -0.293 NA
ATOM      2  N   UNL     1      33.340 -12.956 -25.402  0.00  0.00    -0.266 NA
ATOM      3  N   UNL     1      34.404 -16.241 -25.871  0.00  0.00    -0.316 NA
ATOM      4  N   UNL     1      35.065 -17.931 -24.396  0.00  0.00    -0.238 N 
ATOM      5  N   UNL     1      33.674 -14.303 -27.146  0.00  0.00    -0.296 N 
ATOM      6  C   UNL     1      34.009 -14.606 -23.601  0.00  0.00    +0.288 C 
ATOM      7  C   UNL     1      33.770 -14.142 -24.878  0.00  0.00    +0.215 C 
ATOM      8  C   UNL     1      33.971 -14.961 -25.980  0.00  0.00    +0.196 C 
ATOM      9  C   UNL     1      34.611 -16.607 -24.589  0.00  0.00    +0.207 C 
ATOM     10  C   UNL     1      33.298 -13.101 -26.764  0.00  0.00    +0.164 C 
ATOM     11  H   UNL     1      33.104 -12.146 -24.895  0.00  0.00    +0.126 HD
ATOM     12  H   UNL     1      35.179 -18.437 -25.234  0.00  0.00    +0.166 HD
ATOM     13  H   UNL     1      33.730 -14.652 -28.065  0.00  0.00    +0.150 HD
ENDROOT
BRANCH   4  14
ATOM     14  C   UNL     1      35.386 -18.669 -23.243  0.00  0.00    +0.059 C 
ATOM     15  C   UNL     1      36.023 -20.136 -20.952  0.00  0.00    +0.122 C 
ATOM     16  C   UNL     1      36.666 -18.586 -22.690  0.00  0.00    +0.017 C 
ATOM     17  C   UNL     1      34.426 -19.490 -22.645  0.00  0.00    +0.017 C 
ATOM     18  C   UNL     1      36.985 -19.318 -21.547  0.00  0.00    +0.021 C 
ATOM     19  C   UNL     1      34.745 -20.222 -21.501  0.00  0.00    +0.021 C 
BRANCH  15  20
ATOM     20  S   UNL     1      36.423 -21.054 -19.521  0.00  0.00    +0.057 S 
ATOM     21  O   UNL     1      37.015 -22.318 -19.935  0.00  0.00    -0.153 OA
ATOM     22  O   UNL     1      37.143 -20.184 -18.601  0.00  0.00    -0.153 OA
BRANCH  20  23
ATOM     23  N   UNL     1      34.867 -21.356 -18.884  0.00  0.00    -0.203 NA
ATOM     24  H   UNL     1      34.865 -21.158 -17.883  0.00  0.00    +0.144 HD
ATOM     25  H   UNL     1      34.621 -22.335 -19.036  0.00  0.00    +0.144 HD
ENDBRANCH  20  23
ENDBRANCH  15  20
ENDBRANCH   4  14
BRANCH   6  26
ATOM     26  O   UNL     1      33.827 -13.840 -22.476  0.00  0.00    -0.453 OA
BRANCH  26  27
ATOM     27  C   UNL     1      32.640 -14.055 -21.736  0.00  0.00    +0.208 C 
BRANCH  27  28
ATOM     28  C   UNL     1      31.971 -12.704 -21.490  0.00  0.00    +0.044 C 
ATOM     29  C   UNL     1      32.354 -12.152 -20.111  0.00  0.00    +0.004 C 
ATOM     30  C   UNL     1      32.337 -11.709 -22.599  0.00  0.00    +0.004 C 
ATOM     31  C   UNL     1      31.740 -10.776 -19.863  0.00  0.00    +0.000 C 
ATOM     32  C   UNL     1      31.722 -10.333 -22.347  0.00  0.00    +0.000 C 
ATOM     33  C   UNL     1      32.099  -9.791 -20.971  0.00  0.00    +0.000 C 
ENDBRANCH  27  28
ENDBRANCH  26  27
ENDBRANCH   6  26
TORSDOF 6
ENDMDL
MODEL 7
REMARK VINA RESULT:     -10.9     12.132     15.451
REMARK  Name = 4566
REMARK  6 active torsions:
REMARK  status: ('A' for Active; 'I' for Inactive)
REMARK    1  A    between atoms: N_4  and  C_14
REMARK    2  A    between atoms: C_6  and  O_26
REMARK    3  A    between atoms: C_15  and  S_20
REMARK    4  A    between atoms: S_20  and  N_23
REMARK    5  A    between atoms: O_26  and  C_27
REMARK    6  A    between atoms: C_27  and  C_28
REMARK                            x       y       z     vdW  Elec       q    Type
REMARK                         _______ _______ _______ _____ _____    ______ ____
ROOT
ATOM      1  N   UNL     1      32.898 -10.302 -22.458  0.00  0.00    -0.293 NA
ATOM      2  N   UNL     1      32.312  -6.933 -21.105  0.00  0.00    -0.266 NA
ATOM      3  N   UNL     1      32.041 -10.280 -20.174  0.00  0.00    -0.316 NA
ATOM      4  N   UNL     1      32.504 -12.288 -21.282  0.00  0.00    -0.238 N 
ATOM      5  N   UNL     1      31.658  -8.048 -19.289  0.00  0.00    -0.296 N 
ATOM      6  C   UNL     1      32.889  -8.952 -22.520  0.00  0.00    +0.288 C 
ATOM      7  C   UNL     1      32.457  -8.257 -21.410  0.00  0.00    +0.215 C 
ATOM      8  C   UNL     1      32.044  -8.928 -20.267  0.00  0.00    +0.196 C 
ATOM      9  C   UNL     1      32.479 -10.875 -21.304  0.00  0.00    +0.207 C 
ATOM     10  C   UNL     1      31.831  -6.858 -19.824  0.00  0.00    +0.164 C 
ATOM     11  H   UNL     1      32.515  -6.172 -21.696  0.00  0.00    +0.126 HD
ATOM     12  H   UNL     1      32.193 -12.676 -20.431  0.00  0.00    +0.166 HD
ATOM     13  H   UNL     1      31.325  -8.260 -18.387  0.00  0.00    +0.150 HD
ENDROOT
BRANCH   4  14
ATOM     14  C   UNL     1      32.884 -13.248 -22.236  0.00  0.00    +0.059 C 
ATOM     15  C   UNL     1      33.640 -15.157 -24.130  0.00  0.00    +0.122 C 
ATOM     16  C   UNL     1      32.391 -13.176 -23.540  0.00  0.00    +0.017 C 
ATOM     17  C   UNL     1      33.758 -14.280 -21.883  0.00  0.00    +0.017 C 
ATOM     18  C   UNL     1      32.768 -14.129 -24.487  0.00  0.00    +0.021 C 
ATOM     19  C   UNL     1      34.135 -15.233 -22.829  0.00  0.00    +0.021 C 
BRANCH  15  20
ATOM     20  S   UNL     1      34.112 -16.351 -25.315  0.00  0.00    +0.057 S 
ATOM     21  O   UNL     1      35.304 -15.872 -26.000  0.00  0.00    -0.153 OA
ATOM     22  O   UNL     1      34.121 -17.659 -24.674  0.00  0.00    -0.153 OA
BRANCH  20  23
ATOM     23  N   UNL     1      32.789 -16.280 -26.393  0.00  0.00    -0.203 NA
ATOM     24  H   UNL     1      33.049 -16.710 -27.281  0.00  0.00    +0.144 HD
ATOM     25  H   UNL     1      32.531 -15.305 -26.551  0.00  0.00    +0.144 HD
ENDBRANCH  20  23
ENDBRANCH  15  20
ENDBRANCH   4  14
BRANCH   6  26
ATOM     26  O   UNL     1      33.309  -8.340 -23.675  0.00  0.00    -0.453 OA
BRANCH  26  27
ATOM     27  C   UNL     1      34.525  -7.618 -23.616  0.00  0.00    +0.208 C 
BRANCH  27  28
ATOM     28  C   UNL     1      34.345  -6.303 -24.372  0.00  0.00    +0.044 C 
ATOM     29  C   UNL     1      35.150  -6.314 -25.678  0.00  0.00    +0.004 C 
ATOM     30  C   UNL     1      32.859  -6.035 -24.647  0.00  0.00    +0.004 C 
ATOM     31  C   UNL     1      34.944  -5.030 -26.479  0.00  0.00    +0.000 C 
ATOM     32  C   UNL     1      32.658  -4.751 -25.449  0.00  0.00    +0.000 C 
ATOM     33  C   UNL     1      33.466  -4.763 -26.743  0.00  0.00    +0.000 C 
ENDBRANCH  27  28
ENDBRANCH  26  27
ENDBRANCH   6  26
TORSDOF 6
ENDMDL
MODEL 8
REMARK VINA RESULT:     -10.9      5.625      8.143
REMARK  Name = 4566
REMARK  6 active torsions:
REMARK  status: ('A' for Active; 'I' for Inactive)
REMARK    1  A    between atoms: N_4  and  C_14
REMARK    2  A    between atoms: C_6  and  O_26
REMARK    3  A    between atoms: C_15  and  S_20
REMARK    4  A    between atoms: S_20  and  N_23
REMARK    5  A    between atoms: O_26  and  C_27
REMARK    6  A    between atoms: C_27  and  C_28
REMARK                            x       y       z     vdW  Elec       q    Type
REMARK                         _______ _______ _______ _____ _____    ______ ____
ROOT
ATOM      1  N   UNL     1      35.171 -18.607 -21.186  0.00  0.00    -0.293 NA
ATOM      2  N   UNL     1      34.766 -16.201 -23.938  0.00  0.00    -0.266 NA
ATOM      3  N   UNL     1      35.166 -19.621 -23.405  0.00  0.00    -0.316 NA
ATOM      4  N   UNL     1      35.407 -20.918 -21.473  0.00  0.00    -0.238 N 
ATOM      5  N   UNL     1      34.896 -18.022 -25.217  0.00  0.00    -0.296 N 
ATOM      6  C   UNL     1      35.010 -17.369 -21.705  0.00  0.00    +0.288 C 
ATOM      7  C   UNL     1      34.925 -17.249 -23.076  0.00  0.00    +0.215 C 
ATOM      8  C   UNL     1      35.004 -18.368 -23.894  0.00  0.00    +0.196 C 
ATOM      9  C   UNL     1      35.238 -19.642 -22.057  0.00  0.00    +0.207 C 
ATOM     10  C   UNL     1      34.754 -16.714 -25.209  0.00  0.00    +0.164 C 
ATOM     11  H   UNL     1      34.676 -15.252 -23.693  0.00  0.00    +0.126 HD
ATOM     12  H   UNL     1      35.454 -21.651 -22.130  0.00  0.00    +0.166 HD
ATOM     13  H   UNL     1      34.921 -18.620 -25.998  0.00  0.00    +0.150 HD
ENDROOT
BRANCH   4  14
ATOM     14  C   UNL     1      35.523 -21.346 -20.139  0.00  0.00    +0.059 C 
ATOM     15  C   UNL     1      35.752 -22.199 -17.488  0.00  0.00    +0.122 C 
ATOM     16  C   UNL     1      36.730 -21.193 -19.455  0.00  0.00    +0.017 C 
ATOM     17  C   UNL     1      34.430 -21.929 -19.492  0.00  0.00    +0.017 C 
ATOM     18  C   UNL     1      36.846 -21.618 -18.131  0.00  0.00    +0.021 C 
ATOM     19  C   UNL     1      34.545 -22.355 -18.168  0.00  0.00    +0.021 C 
BRANCH  15  20
ATOM     20  S   UNL     1      35.896 -22.733 -15.832  0.00  0.00    +0.057 S 
ATOM     21  O   UNL     1      37.010 -22.025 -15.216  0.00  0.00    -0.153 OA
ATOM     22  O   UNL     1      34.578 -22.683 -15.214  0.00  0.00    -0.153 OA
BRANCH  20  23
ATOM     23  N   UNL     1      36.335 -24.369 -16.053  0.00  0.00    -0.203 NA
ATOM     24  H   UNL     1      35.909 -24.722 -16.910  0.00  0.00    +0.144 HD
ATOM     25  H   UNL     1      36.008 -24.919 -15.259  0.00  0.00    +0.144 HD
ENDBRANCH  20  23
ENDBRANCH  15  20
ENDBRANCH   4  14
BRANCH   6  26
ATOM     26  O   UNL     1      34.937 -16.298 -20.850  0.00  0.00    -0.453 OA
BRANCH  26  27
ATOM     27  C   UNL     1      33.644 -15.825 -20.519  0.00  0.00    +0.208 C 
BRANCH  27  28
ATOM     28  C   UNL     1      33.512 -14.387 -21.018  0.00  0.00    +0.044 C 
ATOM     29  C   UNL     1      33.093 -14.362 -22.494  0.00  0.00    +0.004 C 
ATOM     30  C   UNL     1      32.516 -13.603 -20.153  0.00  0.00    +0.004 C 
ATOM     31  C   UNL     1      32.902 -12.935 -23.003  0.00  0.00    +0.000 C 
ATOM     32  C   UNL     1      32.326 -12.177 -20.666  0.00  0.00    +0.000 C 
ATOM     33  C   UNL     1      31.917 -12.156 -22.136  0.00  0.00    +0.000 C 
ENDBRANCH  27  28
ENDBRANCH  26  27
ENDBRANCH   6  26
TORSDOF 6
ENDMDL
MODEL 9
REMARK VINA RESULT:     -10.6      3.578      7.656
REMARK  Name = 4566
REMARK  6 active torsions:
REMARK  status: ('A' for Active; 'I' for Inactive)
REMARK    1  A    between atoms: N_4  and  C_14
REMARK    2  A    between atoms: C_6  and  O_26
REMARK    3  A    between atoms: C_15  and  S_20
REMARK    4  A    between atoms: S_20  and  N_23
REMARK    5  A    between atoms: O_26  and  C_27
REMARK    6  A    between atoms: C_27  and  C_28
REMARK                            x       y       z     vdW  Elec       q    Type
REMARK                         _______ _______ _______ _____ _____    ______ ____
ROOT
ATOM      1  N   UNL     1      35.737 -23.678 -15.814  0.00  0.00    -0.293 NA
ATOM      2  N   UNL     1      36.273 -25.724 -12.805  0.00  0.00    -0.266 NA
ATOM      3  N   UNL     1      38.065 -23.806 -15.097  0.00  0.00    -0.316 NA
ATOM      4  N   UNL     1      37.438 -22.571 -16.982  0.00  0.00    -0.238 N 
ATOM      5  N   UNL     1      38.408 -25.160 -13.106  0.00  0.00    -0.296 N 
ATOM      6  C   UNL     1      35.335 -24.468 -14.794  0.00  0.00    +0.288 C 
ATOM      7  C   UNL     1      36.294 -24.932 -13.918  0.00  0.00    +0.215 C 
ATOM      8  C   UNL     1      37.631 -24.595 -14.085  0.00  0.00    +0.196 C 
ATOM      9  C   UNL     1      37.060 -23.400 -15.901  0.00  0.00    +0.207 C 
ATOM     10  C   UNL     1      37.563 -25.832 -12.355  0.00  0.00    +0.164 C 
ATOM     11  H   UNL     1      35.478 -26.141 -12.401  0.00  0.00    +0.126 HD
ATOM     12  H   UNL     1      38.405 -22.387 -17.021  0.00  0.00    +0.166 HD
ATOM     13  H   UNL     1      39.383 -25.081 -12.993  0.00  0.00    +0.150 HD
ENDROOT
BRANCH   4  14
ATOM     14  C   UNL     1      36.704 -21.959 -18.013  0.00  0.00    +0.059 C 
ATOM     15  C   UNL     1      35.248 -20.744 -20.065  0.00  0.00    +0.122 C 
ATOM     16  C   UNL     1      35.364 -22.295 -18.216  0.00  0.00    +0.017 C 
ATOM     17  C   UNL     1      37.314 -21.013 -18.842  0.00  0.00    +0.017 C 
ATOM     18  C   UNL     1      34.636 -21.688 -19.240  0.00  0.00    +0.021 C 
ATOM     19  C   UNL     1      36.586 -20.407 -19.866  0.00  0.00    +0.021 C 
BRANCH  15  20
ATOM     20  S   UNL     1      34.337 -19.985 -21.347  0.00  0.00    +0.057 S 
ATOM     21  O   UNL     1      34.966 -20.319 -22.618  0.00  0.00    -0.153 OA
ATOM     22  O   UNL     1      32.924 -20.271 -21.142  0.00  0.00    -0.153 OA
BRANCH  20  23
ATOM     23  N   UNL     1      34.616 -18.333 -21.011  0.00  0.00    -0.203 NA
ATOM     24  H   UNL     1      35.446 -18.019 -21.514  0.00  0.00    +0.144 HD
ATOM     25  H   UNL     1      34.760 -18.210 -20.008  0.00  0.00    +0.144 HD
ENDBRANCH  20  23
ENDBRANCH  15  20
ENDBRANCH   4  14
BRANCH   6  26
ATOM     26  O   UNL     1      34.000 -24.768 -14.676  0.00  0.00    -0.453 OA
BRANCH  26  27
ATOM     27  C   UNL     1      33.097 -23.680 -14.632  0.00  0.00    +0.208 C 
BRANCH  27  28
ATOM     28  C   UNL     1      31.799 -24.099 -15.320  0.00  0.00    +0.044 C 
ATOM     29  C   UNL     1      30.914 -24.909 -14.363  0.00  0.00    +0.004 C 
ATOM     30  C   UNL     1      31.048 -22.872 -15.854  0.00  0.00    +0.004 C 
ATOM     31  C   UNL     1      29.586 -25.294 -15.011  0.00  0.00    +0.000 C 
ATOM     32  C   UNL     1      29.720 -23.262 -16.500  0.00  0.00    +0.000 C 
ATOM     33  C   UNL     1      28.846 -24.073 -15.547  0.00  0.00    +0.000 C 
ENDBRANCH  27  28
ENDBRANCH  26  27
ENDBRANCH   6  26
TORSDOF 6
ENDMDL
