MODEL 1
REMARK VINA RESULT:     -12.9      0.000      0.000
REMARK  Name = 447655
REMARK  6 active torsions:
REMARK  status: ('A' for Active; 'I' for Inactive)
REMARK    1  A    between atoms: N_4  and  C_14
REMARK    2  A    between atoms: C_6  and  O_26
REMARK    3  A    between atoms: C_15  and  S_20
REMARK    4  A    between atoms: S_20  and  N_23
REMARK    5  A    between atoms: O_26  and  C_27
REMARK    6  A    between atoms: C_27  and  C_28
REMARK                            x       y       z     vdW  Elec       q    Type
REMARK                         _______ _______ _______ _____ _____    ______ ____
ROOT
ATOM      1  N   UNL     1      33.405 -23.046 -16.674  0.00  0.00    -0.293 NA
ATOM      2  N   UNL     1      29.774 -22.691 -17.139  0.00  0.00    -0.266 NA
ATOM      3  N   UNL     1      32.082 -23.699 -14.732  0.00  0.00    -0.316 NA
ATOM      4  N   UNL     1      34.418 -23.824 -14.711  0.00  0.00    -0.238 N 
ATOM      5  N   UNL     1      29.684 -23.462 -15.050  0.00  0.00    -0.296 N 
ATOM      6  C   UNL     1      32.294 -22.730 -17.377  0.00  0.00    +0.288 C 
ATOM      7  C   UNL     1      31.070 -22.896 -16.763  0.00  0.00    +0.215 C 
ATOM      8  C   UNL     1      30.988 -23.374 -15.462  0.00  0.00    +0.196 C 
ATOM      9  C   UNL     1      33.232 -23.505 -15.412  0.00  0.00    +0.207 C 
ATOM     10  C   UNL     1      28.979 -23.044 -16.079  0.00  0.00    +0.164 C 
ATOM     11  H   UNL     1      29.466 -22.353 -18.010  0.00  0.00    +0.126 HD
ATOM     12  H   UNL     1      34.262 -24.156 -13.798  0.00  0.00    +0.166 HD
ATOM     13  H   UNL     1      29.347 -23.768 -14.176  0.00  0.00    +0.150 HD
ENDROOT
BRANCH   4  14
ATOM     14  C   UNL     1      35.778 -23.761 -15.066  0.00  0.00    +0.060 C 
ATOM     15  C   UNL     1      37.979 -24.762 -15.121  0.00  0.00    +0.123 C 
ATOM     16  C   UNL     1      36.631 -24.825 -14.769  0.00  0.00    +0.035 C 
ATOM     17  C   UNL     1      36.279 -22.632 -15.721  0.00  0.00    +0.015 C 
ATOM     18  C   UNL     1      38.477 -23.634 -15.774  0.00  0.00    +0.020 C 
ATOM     19  C   UNL     1      37.626 -22.569 -16.073  0.00  0.00    +0.003 C 
BRANCH  15  20
ATOM     20  S   UNL     1      39.044 -26.094 -14.748  0.00  0.00    +0.057 S 
ATOM     21  O   UNL     1      39.639 -25.854 -13.442  0.00  0.00    -0.153 OA
ATOM     22  O   UNL     1      38.331 -27.339 -15.001  0.00  0.00    -0.153 OA
BRANCH  20  23
ATOM     23  N   UNL     1      40.245 -25.898 -15.948  0.00  0.00    -0.203 NA
ATOM     24  H   UNL     1      41.124 -25.629 -15.506  0.00  0.00    +0.144 HD
ATOM     25  H   UNL     1      39.956 -25.170 -16.601  0.00  0.00    +0.144 HD
ENDBRANCH  20  23
ENDBRANCH  15  20
ENDBRANCH   4  14
BRANCH   6  26
ATOM     26  O   UNL     1      32.435 -22.261 -18.660  0.00  0.00    -0.453 OA
BRANCH  26  27
ATOM     27  C   UNL     1      33.633 -22.588 -19.337  0.00  0.00    +0.208 C 
BRANCH  27  28
ATOM     28  C   UNL     1      34.383 -21.294 -19.646  0.00  0.00    +0.044 C 
ATOM     29  C   UNL     1      35.851 -21.585 -19.986  0.00  0.00    +0.004 C 
ATOM     30  C   UNL     1      33.700 -20.530 -20.788  0.00  0.00    +0.004 C 
ATOM     31  C   UNL     1      36.609 -20.311 -20.350  0.00  0.00    +0.000 C 
ATOM     32  C   UNL     1      34.462 -19.258 -21.151  0.00  0.00    +0.000 C 
ATOM     33  C   UNL     1      35.922 -19.551 -21.480  0.00  0.00    +0.000 C 
ENDBRANCH  27  28
ENDBRANCH  26  27
ENDBRANCH   6  26
TORSDOF 6
ENDMDL
MODEL 2
REMARK VINA RESULT:     -12.9      1.675      2.216
REMARK  Name = 447655
REMARK  6 active torsions:
REMARK  status: ('A' for Active; 'I' for Inactive)
REMARK    1  A    between atoms: N_4  and  C_14
REMARK    2  A    between atoms: C_6  and  O_26
REMARK    3  A    between atoms: C_15  and  S_20
REMARK    4  A    between atoms: S_20  and  N_23
REMARK    5  A    between atoms: O_26  and  C_27
REMARK    6  A    between atoms: C_27  and  C_28
REMARK                            x       y       z     vdW  Elec       q    Type
REMARK                         _______ _______ _______ _____ _____    ______ ____
ROOT
ATOM      1  N   UNL     1      33.493 -23.901 -14.901  0.00  0.00    -0.293 NA
ATOM      2  N   UNL     1      30.099 -23.994 -16.314  0.00  0.00    -0.266 NA
ATOM      3  N   UNL     1      31.875 -25.107 -13.531  0.00  0.00    -0.316 NA
ATOM      4  N   UNL     1      34.108 -24.892 -12.870  0.00  0.00    -0.238 N 
ATOM      5  N   UNL     1      29.635 -25.163 -14.475  0.00  0.00    -0.296 N 
ATOM      6  C   UNL     1      32.557 -23.619 -15.834  0.00  0.00    +0.288 C 
ATOM      7  C   UNL     1      31.273 -24.078 -15.623  0.00  0.00    +0.215 C 
ATOM      8  C   UNL     1      30.959 -24.808 -14.484  0.00  0.00    +0.196 C 
ATOM      9  C   UNL     1      33.099 -24.619 -13.822  0.00  0.00    +0.207 C 
ATOM     10  C   UNL     1      29.146 -24.659 -15.588  0.00  0.00    +0.164 C 
ATOM     11  H   UNL     1      29.962 -23.541 -17.177  0.00  0.00    +0.126 HD
ATOM     12  H   UNL     1      33.794 -25.416 -12.098  0.00  0.00    +0.166 HD
ATOM     13  H   UNL     1      29.155 -25.680 -13.787  0.00  0.00    +0.150 HD
ENDROOT
BRANCH   4  14
ATOM     14  C   UNL     1      35.475 -24.564 -12.813  0.00  0.00    +0.060 C 
ATOM     15  C   UNL     1      37.745 -24.893 -13.582  0.00  0.00    +0.123 C 
ATOM     16  C   UNL     1      36.389 -25.220 -13.639  0.00  0.00    +0.035 C 
ATOM     17  C   UNL     1      35.922 -23.577 -11.930  0.00  0.00    +0.015 C 
ATOM     18  C   UNL     1      38.188 -23.908 -12.699  0.00  0.00    +0.020 C 
ATOM     19  C   UNL     1      37.276 -23.251 -11.873  0.00  0.00    +0.003 C 
BRANCH  15  20
ATOM     20  S   UNL     1      38.886 -25.715 -14.617  0.00  0.00    +0.057 S 
ATOM     21  O   UNL     1      40.022 -26.131 -13.807  0.00  0.00    -0.153 OA
ATOM     22  O   UNL     1      38.164 -26.699 -15.411  0.00  0.00    -0.153 OA
BRANCH  20  23
ATOM     23  N   UNL     1      39.376 -24.438 -15.641  0.00  0.00    -0.203 NA
ATOM     24  H   UNL     1      39.993 -23.808 -15.127  0.00  0.00    +0.144 HD
ATOM     25  H   UNL     1      38.555 -23.924 -15.960  0.00  0.00    +0.144 HD
ENDBRANCH  20  23
ENDBRANCH  15  20
ENDBRANCH   4  14
BRANCH   6  26
ATOM     26  O   UNL     1      32.923 -22.893 -16.941  0.00  0.00    -0.453 OA
BRANCH  26  27
ATOM     27  C   UNL     1      34.219 -23.121 -17.460  0.00  0.00    +0.208 C 
BRANCH  27  28
ATOM     28  C   UNL     1      34.298 -22.504 -18.855  0.00  0.00    +0.044 C 
ATOM     29  C   UNL     1      33.096 -21.584 -19.110  0.00  0.00    +0.004 C 
ATOM     30  C   UNL     1      35.617 -21.740 -19.036  0.00  0.00    +0.004 C 
ATOM     31  C   UNL     1      33.179 -20.914 -20.478  0.00  0.00    +0.000 C 
ATOM     32  C   UNL     1      35.696 -21.068 -20.404  0.00  0.00    +0.000 C 
ATOM     33  C   UNL     1      34.495 -20.163 -20.658  0.00  0.00    +0.000 C 
ENDBRANCH  27  28
ENDBRANCH  26  27
ENDBRANCH   6  26
TORSDOF 6
ENDMDL
MODEL 3
REMARK VINA RESULT:     -12.7      2.664      5.498
REMARK  Name = 447655
REMARK  6 active torsions:
REMARK  status: ('A' for Active; 'I' for Inactive)
REMARK    1  A    between atoms: N_4  and  C_14
REMARK    2  A    between atoms: C_6  and  O_26
REMARK    3  A    between atoms: C_15  and  S_20
REMARK    4  A    between atoms: S_20  and  N_23
REMARK    5  A    between atoms: O_26  and  C_27
REMARK    6  A    between atoms: C_27  and  C_28
REMARK                            x       y       z     vdW  Elec       q    Type
REMARK                         _______ _______ _______ _____ _____    ______ ____
ROOT
ATOM      1  N   UNL     1      35.265 -23.433 -16.495  0.00  0.00    -0.293 NA
ATOM      2  N   UNL     1      33.135 -22.079 -19.170  0.00  0.00    -0.266 NA
ATOM      3  N   UNL     1      36.456 -22.054 -18.117  0.00  0.00    -0.316 NA
ATOM      4  N   UNL     1      37.566 -23.042 -16.311  0.00  0.00    -0.238 N 
ATOM      5  N   UNL     1      35.039 -21.163 -19.880  0.00  0.00    -0.296 N 
ATOM      6  C   UNL     1      34.091 -23.254 -17.141  0.00  0.00    +0.288 C 
ATOM      7  C   UNL     1      34.091 -22.474 -18.279  0.00  0.00    +0.215 C 
ATOM      8  C   UNL     1      35.264 -21.893 -18.741  0.00  0.00    +0.196 C 
ATOM      9  C   UNL     1      36.360 -22.829 -17.016  0.00  0.00    +0.207 C 
ATOM     10  C   UNL     1      33.750 -21.295 -20.111  0.00  0.00    +0.164 C 
ATOM     11  H   UNL     1      32.179 -22.312 -19.142  0.00  0.00    +0.126 HD
ATOM     12  H   UNL     1      38.345 -22.591 -16.711  0.00  0.00    +0.166 HD
ATOM     13  H   UNL     1      35.695 -20.653 -20.408  0.00  0.00    +0.150 HD
ENDROOT
BRANCH   4  14
ATOM     14  C   UNL     1      37.871 -23.772 -15.147  0.00  0.00    +0.060 C 
ATOM     15  C   UNL     1      37.379 -24.363 -12.854  0.00  0.00    +0.123 C 
ATOM     16  C   UNL     1      37.076 -23.639 -14.007  0.00  0.00    +0.035 C 
ATOM     17  C   UNL     1      38.971 -24.634 -15.129  0.00  0.00    +0.015 C 
ATOM     18  C   UNL     1      38.478 -25.223 -12.839  0.00  0.00    +0.020 C 
ATOM     19  C   UNL     1      39.273 -25.358 -13.977  0.00  0.00    +0.003 C 
BRANCH  15  20
ATOM     20  S   UNL     1      36.384 -24.195 -11.430  0.00  0.00    +0.057 S 
ATOM     21  O   UNL     1      36.114 -25.523 -10.899  0.00  0.00    -0.153 OA
ATOM     22  O   UNL     1      36.975 -23.179 -10.570  0.00  0.00    -0.153 OA
BRANCH  20  23
ATOM     23  N   UNL     1      34.946 -23.569 -12.109  0.00  0.00    -0.203 NA
ATOM     24  H   UNL     1      34.146 -23.889 -11.562  0.00  0.00    +0.144 HD
ATOM     25  H   UNL     1      34.854 -23.897 -13.070  0.00  0.00    +0.144 HD
ENDBRANCH  20  23
ENDBRANCH  15  20
ENDBRANCH   4  14
BRANCH   6  26
ATOM     26  O   UNL     1      32.961 -23.853 -16.640  0.00  0.00    -0.453 OA
BRANCH  26  27
ATOM     27  C   UNL     1      32.539 -23.452 -15.350  0.00  0.00    +0.208 C 
BRANCH  27  28
ATOM     28  C   UNL     1      31.012 -23.455 -15.317  0.00  0.00    +0.044 C 
ATOM     29  C   UNL     1      30.441 -22.780 -16.572  0.00  0.00    +0.004 C 
ATOM     30  C   UNL     1      30.476 -24.886 -15.176  0.00  0.00    +0.004 C 
ATOM     31  C   UNL     1      28.915 -22.818 -16.588  0.00  0.00    +0.000 C 
ATOM     32  C   UNL     1      28.950 -24.920 -15.194  0.00  0.00    +0.000 C 
ATOM     33  C   UNL     1      28.386 -24.241 -16.438  0.00  0.00    +0.000 C 
ENDBRANCH  27  28
ENDBRANCH  26  27
ENDBRANCH   6  26
TORSDOF 6
ENDMDL
MODEL 4
REMARK VINA RESULT:     -11.8      3.476      7.392
REMARK  Name = 447655
REMARK  6 active torsions:
REMARK  status: ('A' for Active; 'I' for Inactive)
REMARK    1  A    between atoms: N_4  and  C_14
REMARK    2  A    between atoms: C_6  and  O_26
REMARK    3  A    between atoms: C_15  and  S_20
REMARK    4  A    between atoms: S_20  and  N_23
REMARK    5  A    between atoms: O_26  and  C_27
REMARK    6  A    between atoms: C_27  and  C_28
REMARK                            x       y       z     vdW  Elec       q    Type
REMARK                         _______ _______ _______ _____ _____    ______ ____
ROOT
ATOM      1  N   UNL     1      35.075 -23.292 -16.361  0.00  0.00    -0.293 NA
ATOM      2  N   UNL     1      35.792 -25.172 -13.282  0.00  0.00    -0.266 NA
ATOM      3  N   UNL     1      37.440 -23.371 -15.768  0.00  0.00    -0.316 NA
ATOM      4  N   UNL     1      36.702 -22.242 -17.679  0.00  0.00    -0.238 N 
ATOM      5  N   UNL     1      37.903 -24.617 -13.732  0.00  0.00    -0.296 N 
ATOM      6  C   UNL     1      34.736 -24.028 -15.279  0.00  0.00    +0.288 C 
ATOM      7  C   UNL     1      35.745 -24.441 -14.434  0.00  0.00    +0.215 C 
ATOM      8  C   UNL     1      37.068 -24.107 -14.693  0.00  0.00    +0.196 C 
ATOM      9  C   UNL     1      36.389 -23.014 -16.536  0.00  0.00    +0.207 C 
ATOM     10  C   UNL     1      37.105 -25.251 -12.899  0.00  0.00    +0.164 C 
ATOM     11  H   UNL     1      35.024 -25.570 -12.813  0.00  0.00    +0.126 HD
ATOM     12  H   UNL     1      37.663 -22.056 -17.781  0.00  0.00    +0.166 HD
ATOM     13  H   UNL     1      38.882 -24.528 -13.676  0.00  0.00    +0.150 HD
ENDROOT
BRANCH   4  14
ATOM     14  C   UNL     1      35.907 -21.689 -18.699  0.00  0.00    +0.060 C 
ATOM     15  C   UNL     1      35.644 -20.167 -20.561  0.00  0.00    +0.123 C 
ATOM     16  C   UNL     1      36.433 -20.714 -19.549  0.00  0.00    +0.035 C 
ATOM     17  C   UNL     1      34.587 -22.117 -18.868  0.00  0.00    +0.015 C 
ATOM     18  C   UNL     1      34.326 -20.596 -20.727  0.00  0.00    +0.020 C 
ATOM     19  C   UNL     1      33.798 -21.571 -19.880  0.00  0.00    +0.003 C 
BRANCH  15  20
ATOM     20  S   UNL     1      36.304 -18.948 -21.621  0.00  0.00    +0.057 S 
ATOM     21  O   UNL     1      37.744 -18.891 -21.415  0.00  0.00    -0.153 OA
ATOM     22  O   UNL     1      35.772 -19.164 -22.960  0.00  0.00    -0.153 OA
BRANCH  20  23
ATOM     23  N   UNL     1      35.597 -17.534 -20.973  0.00  0.00    -0.203 NA
ATOM     24  H   UNL     1      36.207 -16.736 -21.153  0.00  0.00    +0.144 HD
ATOM     25  H   UNL     1      35.473 -17.647 -19.967  0.00  0.00    +0.144 HD
ENDBRANCH  20  23
ENDBRANCH  15  20
ENDBRANCH   4  14
BRANCH   6  26
ATOM     26  O   UNL     1      33.412 -24.328 -15.072  0.00  0.00    -0.453 OA
BRANCH  26  27
ATOM     27  C   UNL     1      32.734 -23.590 -14.073  0.00  0.00    +0.208 C 
BRANCH  27  28
ATOM     28  C   UNL     1      31.230 -23.732 -14.303  0.00  0.00    +0.044 C 
ATOM     29  C   UNL     1      30.779 -22.866 -15.487  0.00  0.00    +0.004 C 
ATOM     30  C   UNL     1      30.852 -25.202 -14.528  0.00  0.00    +0.004 C 
ATOM     31  C   UNL     1      29.288 -23.031 -15.771  0.00  0.00    +0.000 C 
ATOM     32  C   UNL     1      29.361 -25.363 -14.813  0.00  0.00    +0.000 C 
ATOM     33  C   UNL     1      28.915 -24.495 -15.984  0.00  0.00    +0.000 C 
ENDBRANCH  27  28
ENDBRANCH  26  27
ENDBRANCH   6  26
TORSDOF 6
ENDMDL
MODEL 5
REMARK VINA RESULT:     -11.8      3.450      6.986
REMARK  Name = 447655
REMARK  6 active torsions:
REMARK  status: ('A' for Active; 'I' for Inactive)
REMARK    1  A    between atoms: N_4  and  C_14
REMARK    2  A    between atoms: C_6  and  O_26
REMARK    3  A    between atoms: C_15  and  S_20
REMARK    4  A    between atoms: S_20  and  N_23
REMARK    5  A    between atoms: O_26  and  C_27
REMARK    6  A    between atoms: C_27  and  C_28
REMARK                            x       y       z     vdW  Elec       q    Type
REMARK                         _______ _______ _______ _____ _____    ______ ____
ROOT
ATOM      1  N   UNL     1      33.876 -22.874 -16.878  0.00  0.00    -0.293 NA
ATOM      2  N   UNL     1      31.840 -24.580 -14.334  0.00  0.00    -0.266 NA
ATOM      3  N   UNL     1      31.530 -23.138 -17.490  0.00  0.00    -0.316 NA
ATOM      4  N   UNL     1      33.051 -22.088 -18.924  0.00  0.00    -0.238 N 
ATOM      5  N   UNL     1      30.193 -24.266 -15.801  0.00  0.00    -0.296 N 
ATOM      6  C   UNL     1      33.679 -23.490 -15.691  0.00  0.00    +0.288 C 
ATOM      7  C   UNL     1      32.407 -23.935 -15.395  0.00  0.00    +0.215 C 
ATOM      8  C   UNL     1      31.365 -23.751 -16.293  0.00  0.00    +0.196 C 
ATOM      9  C   UNL     1      32.803 -22.738 -17.692  0.00  0.00    +0.207 C 
ATOM     10  C   UNL     1      30.512 -24.757 -14.623  0.00  0.00    +0.164 C 
ATOM     11  H   UNL     1      32.300 -24.865 -13.511  0.00  0.00    +0.126 HD
ATOM     12  H   UNL     1      32.254 -22.002 -19.495  0.00  0.00    +0.166 HD
ATOM     13  H   UNL     1      29.308 -24.269 -16.234  0.00  0.00    +0.150 HD
ENDROOT
BRANCH   4  14
ATOM     14  C   UNL     1      34.215 -21.539 -19.491  0.00  0.00    +0.060 C 
ATOM     15  C   UNL     1      35.276 -19.961 -20.987  0.00  0.00    +0.123 C 
ATOM     16  C   UNL     1      34.121 -20.505 -20.425  0.00  0.00    +0.035 C 
ATOM     17  C   UNL     1      35.472 -22.024 -19.119  0.00  0.00    +0.015 C 
ATOM     18  C   UNL     1      36.529 -20.448 -20.614  0.00  0.00    +0.020 C 
ATOM     19  C   UNL     1      36.626 -21.480 -19.680  0.00  0.00    +0.003 C 
BRANCH  15  20
ATOM     20  S   UNL     1      35.155 -18.669 -22.155  0.00  0.00    +0.057 S 
ATOM     21  O   UNL     1      34.367 -19.143 -23.284  0.00  0.00    -0.153 OA
ATOM     22  O   UNL     1      34.761 -17.452 -21.458  0.00  0.00    -0.153 OA
BRANCH  20  23
ATOM     23  N   UNL     1      36.785 -18.517 -22.644  0.00  0.00    -0.203 NA
ATOM     24  H   UNL     1      37.397 -18.721 -21.853  0.00  0.00    +0.144 HD
ATOM     25  H   UNL     1      36.954 -17.566 -22.968  0.00  0.00    +0.144 HD
ENDBRANCH  20  23
ENDBRANCH  15  20
ENDBRANCH   4  14
BRANCH   6  26
ATOM     26  O   UNL     1      34.747 -23.645 -14.840  0.00  0.00    -0.453 OA
BRANCH  26  27
ATOM     27  C   UNL     1      35.932 -22.943 -15.162  0.00  0.00    +0.208 C 
BRANCH  27  28
ATOM     28  C   UNL     1      37.095 -23.583 -14.405  0.00  0.00    +0.044 C 
ATOM     29  C   UNL     1      36.847 -23.536 -12.891  0.00  0.00    +0.004 C 
ATOM     30  C   UNL     1      37.319 -25.026 -14.876  0.00  0.00    +0.004 C 
ATOM     31  C   UNL     1      37.971 -24.217 -12.114  0.00  0.00    +0.000 C 
ATOM     32  C   UNL     1      38.442 -25.705 -14.096  0.00  0.00    +0.000 C 
ATOM     33  C   UNL     1      38.197 -25.648 -12.592  0.00  0.00    +0.000 C 
ENDBRANCH  27  28
ENDBRANCH  26  27
ENDBRANCH   6  26
TORSDOF 6
ENDMDL
MODEL 6
REMARK VINA RESULT:     -11.4      6.770      9.732
REMARK  Name = 447655
REMARK  6 active torsions:
REMARK  status: ('A' for Active; 'I' for Inactive)
REMARK    1  A    between atoms: N_4  and  C_14
REMARK    2  A    between atoms: C_6  and  O_26
REMARK    3  A    between atoms: C_15  and  S_20
REMARK    4  A    between atoms: S_20  and  N_23
REMARK    5  A    between atoms: O_26  and  C_27
REMARK    6  A    between atoms: C_27  and  C_28
REMARK                            x       y       z     vdW  Elec       q    Type
REMARK                         _______ _______ _______ _____ _____    ______ ____
ROOT
ATOM      1  N   UNL     1      34.735 -16.618 -22.916  0.00  0.00    -0.293 NA
ATOM      2  N   UNL     1      33.481 -14.010 -25.186  0.00  0.00    -0.266 NA
ATOM      3  N   UNL     1      34.092 -17.440 -25.120  0.00  0.00    -0.316 NA
ATOM      4  N   UNL     1      34.923 -18.883 -23.478  0.00  0.00    -0.238 N 
ATOM      5  N   UNL     1      33.265 -15.708 -26.613  0.00  0.00    -0.296 N 
ATOM      6  C   UNL     1      34.402 -15.350 -23.245  0.00  0.00    +0.288 C 
ATOM      7  C   UNL     1      33.910 -15.117 -24.513  0.00  0.00    +0.215 C 
ATOM      8  C   UNL     1      33.767 -16.159 -25.419  0.00  0.00    +0.196 C 
ATOM      9  C   UNL     1      34.562 -17.571 -23.862  0.00  0.00    +0.207 C 
ATOM     10  C   UNL     1      33.104 -14.414 -26.441  0.00  0.00    +0.164 C 
ATOM     11  H   UNL     1      33.448 -13.091 -24.836  0.00  0.00    +0.126 HD
ATOM     12  H   UNL     1      34.788 -19.555 -24.185  0.00  0.00    +0.166 HD
ATOM     13  H   UNL     1      33.067 -16.236 -27.421  0.00  0.00    +0.150 HD
ENDROOT
BRANCH   4  14
ATOM     14  C   UNL     1      35.439 -19.416 -22.283  0.00  0.00    +0.060 C 
ATOM     15  C   UNL     1      35.220 -20.889 -20.376  0.00  0.00    +0.123 C 
ATOM     16  C   UNL     1      34.707 -20.360 -21.561  0.00  0.00    +0.035 C 
ATOM     17  C   UNL     1      36.690 -19.003 -21.814  0.00  0.00    +0.015 C 
ATOM     18  C   UNL     1      36.468 -20.474 -19.911  0.00  0.00    +0.020 C 
ATOM     19  C   UNL     1      37.202 -19.531 -20.630  0.00  0.00    +0.003 C 
BRANCH  15  20
ATOM     20  S   UNL     1      34.302 -22.069 -19.476  0.00  0.00    +0.057 S 
ATOM     21  O   UNL     1      33.031 -21.469 -19.094  0.00  0.00    -0.153 OA
ATOM     22  O   UNL     1      34.316 -23.325 -20.213  0.00  0.00    -0.153 OA
BRANCH  20  23
ATOM     23  N   UNL     1      35.272 -22.242 -18.080  0.00  0.00    -0.203 NA
ATOM     24  H   UNL     1      35.033 -21.512 -17.408  0.00  0.00    +0.144 HD
ATOM     25  H   UNL     1      36.255 -22.158 -18.338  0.00  0.00    +0.144 HD
ENDBRANCH  20  23
ENDBRANCH  15  20
ENDBRANCH   4  14
BRANCH   6  26
ATOM     26  O   UNL     1      34.564 -14.358 -22.308  0.00  0.00    -0.453 OA
BRANCH  26  27
ATOM     27  C   UNL     1      33.511 -14.169 -21.382  0.00  0.00    +0.208 C 
BRANCH  27  28
ATOM     28  C   UNL     1      32.636 -13.017 -21.875  0.00  0.00    +0.044 C 
ATOM     29  C   UNL     1      31.933 -12.328 -20.697  0.00  0.00    +0.004 C 
ATOM     30  C   UNL     1      33.468 -12.010 -22.679  0.00  0.00    +0.004 C 
ATOM     31  C   UNL     1      31.094 -11.139 -21.159  0.00  0.00    +0.000 C 
ATOM     32  C   UNL     1      32.626 -10.822 -23.137  0.00  0.00    +0.000 C 
ATOM     33  C   UNL     1      31.923 -10.145 -21.965  0.00  0.00    +0.000 C 
ENDBRANCH  27  28
ENDBRANCH  26  27
ENDBRANCH   6  26
TORSDOF 6
ENDMDL
MODEL 7
REMARK VINA RESULT:     -11.3      2.187      5.215
REMARK  Name = 447655
REMARK  6 active torsions:
REMARK  status: ('A' for Active; 'I' for Inactive)
REMARK    1  A    between atoms: N_4  and  C_14
REMARK    2  A    between atoms: C_6  and  O_26
REMARK    3  A    between atoms: C_15  and  S_20
REMARK    4  A    between atoms: S_20  and  N_23
REMARK    5  A    between atoms: O_26  and  C_27
REMARK    6  A    between atoms: C_27  and  C_28
REMARK                            x       y       z     vdW  Elec       q    Type
REMARK                         _______ _______ _______ _____ _____    ______ ____
ROOT
ATOM      1  N   UNL     1      34.908 -22.522 -17.828  0.00  0.00    -0.293 NA
ATOM      2  N   UNL     1      33.118 -21.054 -20.686  0.00  0.00    -0.266 NA
ATOM      3  N   UNL     1      36.245 -20.970 -19.152  0.00  0.00    -0.316 NA
ATOM      4  N   UNL     1      37.134 -22.049 -17.277  0.00  0.00    -0.238 N 
ATOM      5  N   UNL     1      35.052 -20.005 -21.038  0.00  0.00    -0.296 N 
ATOM      6  C   UNL     1      33.832 -22.343 -18.626  0.00  0.00    +0.288 C 
ATOM      7  C   UNL     1      33.954 -21.477 -19.693  0.00  0.00    +0.215 C 
ATOM      8  C   UNL     1      35.149 -20.812 -19.933  0.00  0.00    +0.196 C 
ATOM      9  C   UNL     1      36.032 -21.833 -18.136  0.00  0.00    +0.207 C 
ATOM     10  C   UNL     1      33.819 -20.173 -21.467  0.00  0.00    +0.164 C 
ATOM     11  H   UNL     1      32.182 -21.330 -20.816  0.00  0.00    +0.126 HD
ATOM     12  H   UNL     1      37.936 -21.535 -17.524  0.00  0.00    +0.166 HD
ATOM     13  H   UNL     1      35.750 -19.428 -21.426  0.00  0.00    +0.150 HD
ENDROOT
BRANCH   4  14
ATOM     14  C   UNL     1      37.306 -22.853 -16.136  0.00  0.00    +0.060 C 
ATOM     15  C   UNL     1      38.518 -24.579 -14.950  0.00  0.00    +0.123 C 
ATOM     16  C   UNL     1      38.347 -23.782 -16.082  0.00  0.00    +0.035 C 
ATOM     17  C   UNL     1      36.436 -22.724 -15.050  0.00  0.00    +0.015 C 
ATOM     18  C   UNL     1      37.647 -24.448 -13.868  0.00  0.00    +0.020 C 
ATOM     19  C   UNL     1      36.606 -23.521 -13.918  0.00  0.00    +0.003 C 
BRANCH  15  20
ATOM     20  S   UNL     1      39.820 -25.739 -14.886  0.00  0.00    +0.057 S 
ATOM     21  O   UNL     1      40.491 -25.748 -16.178  0.00  0.00    -0.153 OA
ATOM     22  O   UNL     1      40.590 -25.503 -13.672  0.00  0.00    -0.153 OA
BRANCH  20  23
ATOM     23  N   UNL     1      38.949 -27.199 -14.706  0.00  0.00    -0.203 NA
ATOM     24  H   UNL     1      38.325 -27.124 -13.903  0.00  0.00    +0.144 HD
ATOM     25  H   UNL     1      39.603 -27.968 -14.558  0.00  0.00    +0.144 HD
ENDBRANCH  20  23
ENDBRANCH  15  20
ENDBRANCH   4  14
BRANCH   6  26
ATOM     26  O   UNL     1      32.675 -23.027 -18.342  0.00  0.00    -0.453 OA
BRANCH  26  27
ATOM     27  C   UNL     1      31.942 -22.607 -17.206  0.00  0.00    +0.208 C 
BRANCH  27  28
ATOM     28  C   UNL     1      31.830 -23.785 -16.241  0.00  0.00    +0.044 C 
ATOM     29  C   UNL     1      32.736 -23.575 -15.020  0.00  0.00    +0.004 C 
ATOM     30  C   UNL     1      30.372 -23.995 -15.809  0.00  0.00    +0.004 C 
ATOM     31  C   UNL     1      32.601 -24.715 -14.014  0.00  0.00    +0.000 C 
ATOM     32  C   UNL     1      30.241 -25.134 -14.802  0.00  0.00    +0.000 C 
ATOM     33  C   UNL     1      31.150 -24.926 -13.594  0.00  0.00    +0.000 C 
ENDBRANCH  27  28
ENDBRANCH  26  27
ENDBRANCH   6  26
TORSDOF 6
ENDMDL
MODEL 8
REMARK VINA RESULT:     -11.3      2.632      5.477
REMARK  Name = 447655
REMARK  6 active torsions:
REMARK  status: ('A' for Active; 'I' for Inactive)
REMARK    1  A    between atoms: N_4  and  C_14
REMARK    2  A    between atoms: C_6  and  O_26
REMARK    3  A    between atoms: C_15  and  S_20
REMARK    4  A    between atoms: S_20  and  N_23
REMARK    5  A    between atoms: O_26  and  C_27
REMARK    6  A    between atoms: C_27  and  C_28
REMARK                            x       y       z     vdW  Elec       q    Type
REMARK                         _______ _______ _______ _____ _____    ______ ____
ROOT
ATOM      1  N   UNL     1      34.695 -22.830 -17.553  0.00  0.00    -0.293 NA
ATOM      2  N   UNL     1      33.509 -20.973 -20.497  0.00  0.00    -0.266 NA
ATOM      3  N   UNL     1      36.410 -21.474 -18.634  0.00  0.00    -0.316 NA
ATOM      4  N   UNL     1      36.890 -22.758 -16.739  0.00  0.00    -0.238 N 
ATOM      5  N   UNL     1      35.615 -20.250 -20.579  0.00  0.00    -0.296 N 
ATOM      6  C   UNL     1      33.762 -22.442 -18.450  0.00  0.00    +0.288 C 
ATOM      7  C   UNL     1      34.145 -21.568 -19.446  0.00  0.00    +0.215 C 
ATOM      8  C   UNL     1      35.452 -21.104 -19.518  0.00  0.00    +0.196 C 
ATOM      9  C   UNL     1      35.945 -22.328 -17.698  0.00  0.00    +0.207 C 
ATOM     10  C   UNL     1      34.429 -20.193 -21.147  0.00  0.00    +0.164 C 
ATOM     11  H   UNL     1      32.562 -21.083 -20.743  0.00  0.00    +0.126 HD
ATOM     12  H   UNL     1      37.788 -22.377 -16.869  0.00  0.00    +0.166 HD
ATOM     13  H   UNL     1      36.437 -19.784 -20.856  0.00  0.00    +0.150 HD
ENDROOT
BRANCH   4  14
ATOM     14  C   UNL     1      36.797 -23.624 -15.634  0.00  0.00    +0.060 C 
ATOM     15  C   UNL     1      37.088 -24.046 -13.270  0.00  0.00    +0.123 C 
ATOM     16  C   UNL     1      37.182 -23.187 -14.365  0.00  0.00    +0.035 C 
ATOM     17  C   UNL     1      36.315 -24.926 -15.803  0.00  0.00    +0.015 C 
ATOM     18  C   UNL     1      36.608 -25.344 -13.441  0.00  0.00    +0.020 C 
ATOM     19  C   UNL     1      36.221 -25.784 -14.708  0.00  0.00    +0.003 C 
BRANCH  15  20
ATOM     20  S   UNL     1      37.571 -23.496 -11.685  0.00  0.00    +0.057 S 
ATOM     21  O   UNL     1      37.089 -22.135 -11.505  0.00  0.00    -0.153 OA
ATOM     22  O   UNL     1      37.219 -24.523 -10.714  0.00  0.00    -0.153 OA
BRANCH  20  23
ATOM     23  N   UNL     1      39.271 -23.462 -11.854  0.00  0.00    -0.203 NA
ATOM     24  H   UNL     1      39.511 -23.344 -12.839  0.00  0.00    +0.144 HD
ATOM     25  H   UNL     1      39.663 -24.339 -11.511  0.00  0.00    +0.144 HD
ENDBRANCH  20  23
ENDBRANCH  15  20
ENDBRANCH   4  14
BRANCH   6  26
ATOM     26  O   UNL     1      32.485 -22.933 -18.331  0.00  0.00    -0.453 OA
BRANCH  26  27
ATOM     27  C   UNL     1      31.766 -22.579 -17.165  0.00  0.00    +0.208 C 
BRANCH  27  28
ATOM     28  C   UNL     1      31.736 -23.786 -16.229  0.00  0.00    +0.044 C 
ATOM     29  C   UNL     1      32.565 -23.514 -14.967  0.00  0.00    +0.004 C 
ATOM     30  C   UNL     1      30.291 -24.154 -15.865  0.00  0.00    +0.004 C 
ATOM     31  C   UNL     1      32.508 -24.687 -13.991  0.00  0.00    +0.000 C 
ATOM     32  C   UNL     1      30.238 -25.325 -14.888  0.00  0.00    +0.000 C 
ATOM     33  C   UNL     1      31.070 -25.055 -13.638  0.00  0.00    +0.000 C 
ENDBRANCH  27  28
ENDBRANCH  26  27
ENDBRANCH   6  26
TORSDOF 6
ENDMDL
MODEL 9
REMARK VINA RESULT:     -10.9      9.458     13.155
REMARK  Name = 447655
REMARK  6 active torsions:
REMARK  status: ('A' for Active; 'I' for Inactive)
REMARK    1  A    between atoms: N_4  and  C_14
REMARK    2  A    between atoms: C_6  and  O_26
REMARK    3  A    between atoms: C_15  and  S_20
REMARK    4  A    between atoms: S_20  and  N_23
REMARK    5  A    between atoms: O_26  and  C_27
REMARK    6  A    between atoms: C_27  and  C_28
REMARK                            x       y       z     vdW  Elec       q    Type
REMARK                         _______ _______ _______ _____ _____    ______ ____
ROOT
ATOM      1  N   UNL     1      33.618 -14.095 -22.510  0.00  0.00    -0.293 NA
ATOM      2  N   UNL     1      34.563 -17.048 -24.487  0.00  0.00    -0.266 NA
ATOM      3  N   UNL     1      32.821 -14.049 -24.814  0.00  0.00    -0.316 NA
ATOM      4  N   UNL     1      32.363 -12.297 -23.334  0.00  0.00    -0.238 N 
ATOM      5  N   UNL     1      33.451 -16.006 -26.112  0.00  0.00    -0.296 N 
ATOM      6  C   UNL     1      34.209 -15.296 -22.693  0.00  0.00    +0.288 C 
ATOM      7  C   UNL     1      34.112 -15.882 -23.938  0.00  0.00    +0.215 C 
ATOM      8  C   UNL     1      33.424 -15.252 -24.967  0.00  0.00    +0.196 C 
ATOM      9  C   UNL     1      32.968 -13.553 -23.568  0.00  0.00    +0.207 C 
ATOM     10  C   UNL     1      34.143 -17.078 -25.791  0.00  0.00    +0.164 C 
ATOM     11  H   UNL     1      35.093 -17.741 -24.030  0.00  0.00    +0.126 HD
ATOM     12  H   UNL     1      31.898 -11.928 -24.119  0.00  0.00    +0.166 HD
ATOM     13  H   UNL     1      33.043 -15.792 -26.983  0.00  0.00    +0.150 HD
ENDROOT
BRANCH   4  14
ATOM     14  C   UNL     1      32.295 -11.472 -22.196  0.00  0.00    +0.060 C 
ATOM     15  C   UNL     1      32.486  -9.286 -21.176  0.00  0.00    +0.123 C 
ATOM     16  C   UNL     1      32.555 -10.104 -22.305  0.00  0.00    +0.035 C 
ATOM     17  C   UNL     1      31.965 -12.018 -20.953  0.00  0.00    +0.015 C 
ATOM     18  C   UNL     1      32.156  -9.835 -19.937  0.00  0.00    +0.020 C 
ATOM     19  C   UNL     1      31.896 -11.201 -19.826  0.00  0.00    +0.003 C 
BRANCH  15  20
ATOM     20  S   UNL     1      32.811  -7.577 -21.315  0.00  0.00    +0.057 S 
ATOM     21  O   UNL     1      33.879  -7.390 -22.286  0.00  0.00    -0.153 OA
ATOM     22  O   UNL     1      31.545  -6.879 -21.489  0.00  0.00    -0.153 OA
BRANCH  20  23
ATOM     23  N   UNL     1      33.417  -7.232 -19.755  0.00  0.00    -0.203 NA
ATOM     24  H   UNL     1      32.758  -7.570 -19.053  0.00  0.00    +0.144 HD
ATOM     25  H   UNL     1      33.536  -6.225 -19.652  0.00  0.00    +0.144 HD
ENDBRANCH  20  23
ENDBRANCH  15  20
ENDBRANCH   4  14
BRANCH   6  26
ATOM     26  O   UNL     1      34.877 -15.873 -21.640  0.00  0.00    -0.453 OA
BRANCH  26  27
ATOM     27  C   UNL     1      35.878 -16.822 -21.956  0.00  0.00    +0.208 C 
BRANCH  27  28
ATOM     28  C   UNL     1      35.686 -18.045 -21.061  0.00  0.00    +0.044 C 
ATOM     29  C   UNL     1      34.505 -18.895 -21.550  0.00  0.00    +0.004 C 
ATOM     30  C   UNL     1      36.971 -18.880 -21.001  0.00  0.00    +0.004 C 
ATOM     31  C   UNL     1      34.326 -20.151 -20.702  0.00  0.00    +0.000 C 
ATOM     32  C   UNL     1      36.787 -20.137 -20.154  0.00  0.00    +0.000 C 
ATOM     33  C   UNL     1      35.608 -20.974 -20.637  0.00  0.00    +0.000 C 
ENDBRANCH  27  28
ENDBRANCH  26  27
ENDBRANCH   6  26
TORSDOF 6
ENDMDL
