MODEL 1
REMARK VINA RESULT:     -13.1      0.000      0.000
REMARK  Name = 42628060
REMARK  6 active torsions:
REMARK  status: ('A' for Active; 'I' for Inactive)
REMARK    1  A    between atoms: N_2  and  C_6
REMARK    2  A    between atoms: C_3  and  C_19
REMARK    3  A    between atoms: C_9  and  N_13
REMARK    4  A    between atoms: C_19  and  N_20
REMARK    5  A    between atoms: C_21  and  N_27
REMARK    6  A    between atoms: C_28  and  C_32
REMARK                            x       y       z     vdW  Elec       q    Type
REMARK                         _______ _______ _______ _____ _____    ______ ____
ROOT
ATOM      1  O   UNL     1      36.750 -20.512 -19.986  0.00  0.00    -0.277 OA
ATOM      2  N   UNL     1      34.927 -21.680 -19.076  0.00  0.00    -0.284 N 
ATOM      3  C   UNL     1      35.580 -20.882 -20.013  0.00  0.00    +0.205 C 
ATOM      4  H   UNL     1      33.979 -21.874 -19.256  0.00  0.00    +0.155 HD
ENDROOT
BRANCH   2   6
ATOM      5  F   UNL     1      33.367 -23.203 -17.341  0.00  0.00    -0.203 F 
ATOM      6  C   UNL     1      35.468 -22.242 -17.896  0.00  0.00    +0.078 C 
ATOM      7  C   UNL     1      34.660 -23.000 -17.048  0.00  0.00    +0.155 C 
ATOM      8  C   UNL     1      36.810 -22.036 -17.579  0.00  0.00    +0.018 C 
ATOM      9  C   UNL     1      36.538 -23.347 -15.568  0.00  0.00    +0.061 C 
ATOM     10  C   UNL     1      35.195 -23.553 -15.884  0.00  0.00    +0.046 C 
ATOM     11  C   UNL     1      37.346 -22.589 -16.415  0.00  0.00    +0.017 C 
BRANCH   9  13
ATOM     12  O   UNL     1      37.682 -25.994 -15.346  0.00  0.00    -0.269 OA
ATOM     13  N   UNL     1      37.095 -23.920 -14.358  0.00  0.00    -0.233 N 
ATOM     14  C   UNL     1      37.590 -25.249 -14.370  0.00  0.00    +0.257 C 
ATOM     15  C   UNL     1      37.167 -23.166 -13.185  0.00  0.00    +0.072 C 
ATOM     16  C   UNL     1      38.105 -25.780 -13.068  0.00  0.00    +0.059 C 
ATOM     17  C   UNL     1      37.662 -23.653 -12.042  0.00  0.00    +0.017 C 
ATOM     18  C   UNL     1      38.138 -25.002 -11.984  0.00  0.00    +0.006 C 
ENDBRANCH   9  13
ENDBRANCH   2   6
BRANCH   3  19
ATOM     19  C   UNL     1      34.625 -20.494 -21.129  0.00  0.00    +0.010 C 
BRANCH  19  20
ATOM     20  N   UNL     1      35.204 -19.408 -21.906  0.00  0.00    +0.394 N 
ATOM     21  C   UNL     1      35.326 -17.140 -22.431  0.00  0.00    +0.049 C 
ATOM     22  C   UNL     1      35.055 -17.927 -23.715  0.00  0.00    -0.005 C 
ATOM     23  C   UNL     1      34.962 -18.097 -21.300  0.00  0.00    -0.057 C 
ATOM     24  C   UNL     1      34.629 -19.314 -23.248  0.00  0.00    -0.075 C 
ATOM     25  H   UNL     1      36.199 -19.630 -21.938  0.00  0.00    -0.079 HD
BRANCH  21  27
ATOM     26  O   UNL     1      35.320 -15.034 -24.381  0.00  0.00    -0.270 OA
ATOM     27  N   UNL     1      34.588 -15.909 -22.362  0.00  0.00    -0.304 N 
ATOM     28  C   UNL     1      34.646 -14.942 -23.358  0.00  0.00    +0.252 C 
ATOM     29  H   UNL     1      34.017 -15.745 -21.576  0.00  0.00    +0.150 HD
BRANCH  28  32
ATOM     30 CL   UNL     1      30.986 -11.326 -21.327  0.00  0.00    -0.075 Cl
ATOM     31  S   UNL     1      32.651 -13.717 -21.896  0.00  0.00    -0.071 S 
ATOM     32  C   UNL     1      33.843 -13.714 -23.125  0.00  0.00    +0.084 C 
ATOM     33  C   UNL     1      33.910 -12.502 -23.777  0.00  0.00    +0.012 C 
ATOM     34  C   UNL     1      32.969 -11.564 -23.260  0.00  0.00    +0.019 C 
ATOM     35  C   UNL     1      32.220 -12.095 -22.233  0.00  0.00    +0.087 C 
ENDBRANCH  28  32
ENDBRANCH  21  27
ENDBRANCH  19  20
ENDBRANCH   3  19
TORSDOF 6
ENDMDL
MODEL 2
REMARK VINA RESULT:     -13.1      4.842     12.333
REMARK  Name = 42628060
REMARK  6 active torsions:
REMARK  status: ('A' for Active; 'I' for Inactive)
REMARK    1  A    between atoms: N_2  and  C_6
REMARK    2  A    between atoms: C_3  and  C_19
REMARK    3  A    between atoms: C_9  and  N_13
REMARK    4  A    between atoms: C_19  and  N_20
REMARK    5  A    between atoms: C_21  and  N_27
REMARK    6  A    between atoms: C_28  and  C_32
REMARK                            x       y       z     vdW  Elec       q    Type
REMARK                         _______ _______ _______ _____ _____    ______ ____
ROOT
ATOM      1  O   UNL     1      33.372 -20.069 -20.626  0.00  0.00    -0.277 OA
ATOM      2  N   UNL     1      35.338 -19.664 -21.845  0.00  0.00    -0.284 N 
ATOM      3  C   UNL     1      34.515 -20.362 -20.963  0.00  0.00    +0.205 C 
ATOM      4  H   UNL     1      36.234 -20.044 -21.997  0.00  0.00    +0.155 HD
ENDROOT
BRANCH   2   6
ATOM      5  F   UNL     1      34.932 -19.667 -24.602  0.00  0.00    -0.203 F 
ATOM      6  C   UNL     1      35.036 -18.475 -22.550  0.00  0.00    +0.078 C 
ATOM      7  C   UNL     1      34.838 -18.511 -23.930  0.00  0.00    +0.155 C 
ATOM      8  C   UNL     1      34.938 -17.266 -21.862  0.00  0.00    +0.018 C 
ATOM      9  C   UNL     1      34.443 -16.127 -23.934  0.00  0.00    +0.061 C 
ATOM     10  C   UNL     1      34.541 -17.336 -24.622  0.00  0.00    +0.046 C 
ATOM     11  C   UNL     1      34.641 -16.091 -22.554  0.00  0.00    +0.017 C 
BRANCH   9  13
ATOM     12  O   UNL     1      33.382 -15.992 -26.621  0.00  0.00    -0.269 OA
ATOM     13  N   UNL     1      34.135 -14.906 -24.653  0.00  0.00    -0.233 N 
ATOM     14  C   UNL     1      33.656 -14.973 -25.987  0.00  0.00    +0.257 C 
ATOM     15  C   UNL     1      34.287 -13.662 -24.036  0.00  0.00    +0.072 C 
ATOM     16  C   UNL     1      33.407 -13.666 -26.671  0.00  0.00    +0.059 C 
ATOM     17  C   UNL     1      34.026 -12.509 -24.659  0.00  0.00    +0.017 C 
ATOM     18  C   UNL     1      33.579 -12.514 -26.020  0.00  0.00    +0.006 C 
ENDBRANCH   9  13
ENDBRANCH   2   6
BRANCH   3  19
ATOM     19  C   UNL     1      35.237 -21.588 -20.429  0.00  0.00    +0.010 C 
BRANCH  19  20
ATOM     20  N   UNL     1      34.965 -21.729 -19.007  0.00  0.00    +0.394 N 
ATOM     21  C   UNL     1      35.640 -22.391 -16.876  0.00  0.00    +0.049 C 
ATOM     22  C   UNL     1      34.316 -23.082 -17.208  0.00  0.00    -0.005 C 
ATOM     23  C   UNL     1      36.185 -21.922 -18.222  0.00  0.00    -0.057 C 
ATOM     24  C   UNL     1      34.139 -22.900 -18.711  0.00  0.00    -0.075 C 
ATOM     25  H   UNL     1      34.491 -20.861 -18.758  0.00  0.00    -0.079 HD
BRANCH  21  27
ATOM     26  O   UNL     1      35.553 -23.115 -14.099  0.00  0.00    -0.270 OA
ATOM     27  N   UNL     1      36.561 -23.249 -16.184  0.00  0.00    -0.304 N 
ATOM     28  C   UNL     1      36.441 -23.545 -14.832  0.00  0.00    +0.252 C 
ATOM     29  H   UNL     1      37.309 -23.644 -16.689  0.00  0.00    +0.150 HD
BRANCH  28  32
ATOM     30 CL   UNL     1      40.969 -26.663 -14.218  0.00  0.00    -0.075 Cl
ATOM     31  S   UNL     1      38.806 -24.907 -15.245  0.00  0.00    -0.071 S 
ATOM     32  C   UNL     1      37.490 -24.429 -14.259  0.00  0.00    +0.084 C 
ATOM     33  C   UNL     1      37.578 -24.953 -12.988  0.00  0.00    +0.012 C 
ATOM     34  C   UNL     1      38.742 -25.758 -12.822  0.00  0.00    +0.019 C 
ATOM     35  C   UNL     1      39.498 -25.818 -13.971  0.00  0.00    +0.087 C 
ENDBRANCH  28  32
ENDBRANCH  21  27
ENDBRANCH  19  20
ENDBRANCH   3  19
TORSDOF 6
ENDMDL
MODEL 3
REMARK VINA RESULT:     -12.5      2.078      2.322
REMARK  Name = 42628060
REMARK  6 active torsions:
REMARK  status: ('A' for Active; 'I' for Inactive)
REMARK    1  A    between atoms: N_2  and  C_6
REMARK    2  A    between atoms: C_3  and  C_19
REMARK    3  A    between atoms: C_9  and  N_13
REMARK    4  A    between atoms: C_19  and  N_20
REMARK    5  A    between atoms: C_21  and  N_27
REMARK    6  A    between atoms: C_28  and  C_32
REMARK                            x       y       z     vdW  Elec       q    Type
REMARK                         _______ _______ _______ _____ _____    ______ ____
ROOT
ATOM      1  O   UNL     1      32.677 -22.029 -18.837  0.00  0.00    -0.277 OA
ATOM      2  N   UNL     1      34.980 -21.608 -19.019  0.00  0.00    -0.284 N 
ATOM      3  C   UNL     1      33.648 -21.567 -19.427  0.00  0.00    +0.205 C 
ATOM      4  H   UNL     1      35.633 -21.188 -19.624  0.00  0.00    +0.155 HD
ENDROOT
BRANCH   2   6
ATOM      5  F   UNL     1      37.532 -20.974 -18.096  0.00  0.00    -0.203 F 
ATOM      6  C   UNL     1      35.503 -22.182 -17.837  0.00  0.00    +0.078 C 
ATOM      7  C   UNL     1      36.785 -21.844 -17.402  0.00  0.00    +0.155 C 
ATOM      8  C   UNL     1      34.736 -23.090 -17.106  0.00  0.00    +0.018 C 
ATOM      9  C   UNL     1      36.530 -23.320 -15.506  0.00  0.00    +0.061 C 
ATOM     10  C   UNL     1      37.298 -22.413 -16.236  0.00  0.00    +0.046 C 
ATOM     11  C   UNL     1      35.249 -23.659 -15.940  0.00  0.00    +0.017 C 
BRANCH   9  13
ATOM     12  O   UNL     1      37.710 -25.954 -15.313  0.00  0.00    -0.269 OA
ATOM     13  N   UNL     1      37.064 -23.913 -14.295  0.00  0.00    -0.233 N 
ATOM     14  C   UNL     1      37.581 -25.233 -14.323  0.00  0.00    +0.257 C 
ATOM     15  C   UNL     1      37.092 -23.185 -13.103  0.00  0.00    +0.072 C 
ATOM     16  C   UNL     1      38.070 -25.785 -13.020  0.00  0.00    +0.059 C 
ATOM     17  C   UNL     1      37.565 -23.689 -11.959  0.00  0.00    +0.017 C 
ATOM     18  C   UNL     1      38.062 -25.032 -11.918  0.00  0.00    +0.006 C 
ENDBRANCH   9  13
ENDBRANCH   2   6
BRANCH   3  19
ATOM     19  C   UNL     1      33.530 -20.853 -20.763  0.00  0.00    +0.010 C 
BRANCH  19  20
ATOM     20  N   UNL     1      34.550 -19.819 -20.851  0.00  0.00    +0.394 N 
ATOM     21  C   UNL     1      35.228 -17.705 -21.562  0.00  0.00    +0.049 C 
ATOM     22  C   UNL     1      36.221 -18.743 -22.091  0.00  0.00    -0.005 C 
ATOM     23  C   UNL     1      33.988 -18.508 -21.181  0.00  0.00    -0.057 C 
ATOM     24  C   UNL     1      35.525 -20.086 -21.908  0.00  0.00    -0.075 C 
ATOM     25  H   UNL     1      34.985 -19.821 -19.929  0.00  0.00    -0.079 HD
BRANCH  21  27
ATOM     26  O   UNL     1      34.344 -15.036 -20.983  0.00  0.00    -0.270 OA
ATOM     27  N   UNL     1      34.937 -16.672 -22.517  0.00  0.00    -0.304 N 
ATOM     28  C   UNL     1      34.512 -15.403 -22.144  0.00  0.00    +0.252 C 
ATOM     29  H   UNL     1      35.042 -16.872 -23.475  0.00  0.00    +0.150 HD
BRANCH  28  32
ATOM     30 CL   UNL     1      33.270 -13.292 -27.104  0.00  0.00    -0.075 Cl
ATOM     31  S   UNL     1      33.865 -15.077 -24.807  0.00  0.00    -0.071 S 
ATOM     32  C   UNL     1      34.226 -14.456 -23.253  0.00  0.00    +0.084 C 
ATOM     33  C   UNL     1      34.204 -13.079 -23.229  0.00  0.00    +0.012 C 
ATOM     34  C   UNL     1      33.885 -12.526 -24.503  0.00  0.00    +0.019 C 
ATOM     35  C   UNL     1      33.676 -13.502 -25.452  0.00  0.00    +0.087 C 
ENDBRANCH  28  32
ENDBRANCH  21  27
ENDBRANCH  19  20
ENDBRANCH   3  19
TORSDOF 6
ENDMDL
MODEL 4
REMARK VINA RESULT:     -12.2      4.731     12.598
REMARK  Name = 42628060
REMARK  6 active torsions:
REMARK  status: ('A' for Active; 'I' for Inactive)
REMARK    1  A    between atoms: N_2  and  C_6
REMARK    2  A    between atoms: C_3  and  C_19
REMARK    3  A    between atoms: C_9  and  N_13
REMARK    4  A    between atoms: C_19  and  N_20
REMARK    5  A    between atoms: C_21  and  N_27
REMARK    6  A    between atoms: C_28  and  C_32
REMARK                            x       y       z     vdW  Elec       q    Type
REMARK                         _______ _______ _______ _____ _____    ______ ____
ROOT
ATOM      1  O   UNL     1      35.785 -15.323 -23.991  0.00  0.00    -0.277 OA
ATOM      2  N   UNL     1      33.474 -15.054 -23.671  0.00  0.00    -0.284 N 
ATOM      3  C   UNL     1      34.651 -15.775 -23.865  0.00  0.00    +0.205 C 
ATOM      4  H   UNL     1      32.648 -15.583 -23.595  0.00  0.00    +0.155 HD
ENDROOT
BRANCH   2   6
ATOM      5  F   UNL     1      32.000 -13.886 -21.616  0.00  0.00    -0.203 F 
ATOM      6  C   UNL     1      33.329 -13.651 -23.570  0.00  0.00    +0.078 C 
ATOM      7  C   UNL     1      32.584 -13.097 -22.529  0.00  0.00    +0.155 C 
ATOM      8  C   UNL     1      33.930 -12.820 -24.516  0.00  0.00    +0.018 C 
ATOM      9  C   UNL     1      33.043 -10.882 -23.378  0.00  0.00    +0.061 C 
ATOM     10  C   UNL     1      32.441 -11.712 -22.433  0.00  0.00    +0.046 C 
ATOM     11  C   UNL     1      33.788 -11.435 -24.419  0.00  0.00    +0.017 C 
BRANCH   9  13
ATOM     12  O   UNL     1      35.178  -8.956 -23.685  0.00  0.00    -0.269 OA
ATOM     13  N   UNL     1      32.894  -9.443 -23.279  0.00  0.00    -0.233 N 
ATOM     14  C   UNL     1      34.031  -8.605 -23.410  0.00  0.00    +0.257 C 
ATOM     15  C   UNL     1      31.635  -8.873 -23.077  0.00  0.00    +0.072 C 
ATOM     16  C   UNL     1      33.797  -7.135 -23.248  0.00  0.00    +0.059 C 
ATOM     17  C   UNL     1      31.448  -7.554 -22.969  0.00  0.00    +0.017 C 
ATOM     18  C   UNL     1      32.565  -6.662 -23.051  0.00  0.00    +0.006 C 
ENDBRANCH   9  13
ENDBRANCH   2   6
BRANCH   3  19
ATOM     19  C   UNL     1      34.354 -17.264 -23.913  0.00  0.00    +0.010 C 
BRANCH  19  20
ATOM     20  N   UNL     1      35.274 -17.970 -23.035  0.00  0.00    +0.394 N 
ATOM     21  C   UNL     1      35.678 -19.612 -21.429  0.00  0.00    +0.049 C 
ATOM     22  C   UNL     1      36.184 -18.269 -20.897  0.00  0.00    -0.005 C 
ATOM     23  C   UNL     1      34.732 -19.248 -22.570  0.00  0.00    -0.057 C 
ATOM     24  C   UNL     1      35.565 -17.220 -21.813  0.00  0.00    -0.075 C 
ATOM     25  H   UNL     1      36.109 -18.100 -23.605  0.00  0.00    -0.079 HD
BRANCH  21  27
ATOM     26  O   UNL     1      36.914 -21.596 -19.763  0.00  0.00    -0.270 OA
ATOM     27  N   UNL     1      35.034 -20.406 -20.420  0.00  0.00    -0.304 N 
ATOM     28  C   UNL     1      35.714 -21.348 -19.658  0.00  0.00    +0.252 C 
ATOM     29  H   UNL     1      34.070 -20.279 -20.263  0.00  0.00    +0.150 HD
BRANCH  28  32
ATOM     30 CL   UNL     1      34.078 -24.062 -15.125  0.00  0.00    -0.075 Cl
ATOM     31  S   UNL     1      35.602 -22.552 -17.178  0.00  0.00    -0.071 S 
ATOM     32  C   UNL     1      34.899 -22.106 -18.674  0.00  0.00    +0.084 C 
ATOM     33  C   UNL     1      33.593 -22.532 -18.779  0.00  0.00    +0.012 C 
ATOM     34  C   UNL     1      33.164 -23.233 -17.616  0.00  0.00    +0.019 C 
ATOM     35  C   UNL     1      34.157 -23.316 -16.666  0.00  0.00    +0.087 C 
ENDBRANCH  28  32
ENDBRANCH  21  27
ENDBRANCH  19  20
ENDBRANCH   3  19
TORSDOF 6
ENDMDL
MODEL 5
REMARK VINA RESULT:     -12.2      5.061     12.416
REMARK  Name = 42628060
REMARK  6 active torsions:
REMARK  status: ('A' for Active; 'I' for Inactive)
REMARK    1  A    between atoms: N_2  and  C_6
REMARK    2  A    between atoms: C_3  and  C_19
REMARK    3  A    between atoms: C_9  and  N_13
REMARK    4  A    between atoms: C_19  and  N_20
REMARK    5  A    between atoms: C_21  and  N_27
REMARK    6  A    between atoms: C_28  and  C_32
REMARK                            x       y       z     vdW  Elec       q    Type
REMARK                         _______ _______ _______ _____ _____    ______ ____
ROOT
ATOM      1  O   UNL     1      33.844 -13.260 -25.834  0.00  0.00    -0.277 OA
ATOM      2  N   UNL     1      32.905 -13.726 -23.733  0.00  0.00    -0.284 N 
ATOM      3  C   UNL     1      33.448 -14.043 -24.976  0.00  0.00    +0.205 C 
ATOM      4  H   UNL     1      32.634 -14.487 -23.170  0.00  0.00    +0.155 HD
ENDROOT
BRANCH   2   6
ATOM      5  F   UNL     1      31.648 -13.376 -21.271  0.00  0.00    -0.203 F 
ATOM      6  C   UNL     1      32.697 -12.439 -23.185  0.00  0.00    +0.078 C 
ATOM      7  C   UNL     1      32.064 -12.298 -21.950  0.00  0.00    +0.155 C 
ATOM      8  C   UNL     1      33.124 -11.309 -23.882  0.00  0.00    +0.018 C 
ATOM      9  C   UNL     1      32.287  -9.897 -22.110  0.00  0.00    +0.061 C 
ATOM     10  C   UNL     1      31.859 -11.026 -21.412  0.00  0.00    +0.046 C 
ATOM     11  C   UNL     1      32.919 -10.038 -23.345  0.00  0.00    +0.017 C 
BRANCH   9  13
ATOM     12  O   UNL     1      32.810  -9.136 -19.369  0.00  0.00    -0.269 OA
ATOM     13  N   UNL     1      32.073  -8.576 -21.552  0.00  0.00    -0.233 N 
ATOM     14  C   UNL     1      32.332  -8.339 -20.177  0.00  0.00    +0.257 C 
ATOM     15  C   UNL     1      31.634  -7.526 -22.363  0.00  0.00    +0.072 C 
ATOM     16  C   UNL     1      32.041  -6.961 -19.673  0.00  0.00    +0.059 C 
ATOM     17  C   UNL     1      31.414  -6.294 -21.894  0.00  0.00    +0.017 C 
ATOM     18  C   UNL     1      31.618  -6.008 -20.506  0.00  0.00    +0.006 C 
ENDBRANCH   9  13
ENDBRANCH   2   6
BRANCH   3  19
ATOM     19  C   UNL     1      33.490 -15.550 -25.163  0.00  0.00    +0.010 C 
BRANCH  19  20
ATOM     20  N   UNL     1      34.655 -16.090 -24.478  0.00  0.00    +0.394 N 
ATOM     21  C   UNL     1      35.633 -17.733 -23.144  0.00  0.00    +0.049 C 
ATOM     22  C   UNL     1      35.874 -16.367 -22.497  0.00  0.00    -0.005 C 
ATOM     23  C   UNL     1      34.492 -17.503 -24.130  0.00  0.00    -0.057 C 
ATOM     24  C   UNL     1      34.915 -15.418 -23.205  0.00  0.00    -0.075 C 
ATOM     25  H   UNL     1      35.418 -15.952 -25.140  0.00  0.00    -0.079 HD
BRANCH  21  27
ATOM     26  O   UNL     1      37.469 -18.977 -21.322  0.00  0.00    -0.270 OA
ATOM     27  N   UNL     1      35.328 -18.759 -22.186  0.00  0.00    -0.304 N 
ATOM     28  C   UNL     1      36.285 -19.306 -21.341  0.00  0.00    +0.252 C 
ATOM     29  H   UNL     1      34.402 -19.089 -22.127  0.00  0.00    +0.150 HD
BRANCH  28  32
ATOM     30 CL   UNL     1      33.067 -22.794 -18.499  0.00  0.00    -0.075 Cl
ATOM     31  S   UNL     1      34.135 -20.678 -20.287  0.00  0.00    -0.071 S 
ATOM     32  C   UNL     1      35.814 -20.378 -20.425  0.00  0.00    +0.084 C 
ATOM     33  C   UNL     1      36.557 -21.217 -19.624  0.00  0.00    +0.012 C 
ATOM     34  C   UNL     1      35.736 -22.119 -18.888  0.00  0.00    +0.019 C 
ATOM     35  C   UNL     1      34.397 -21.934 -19.154  0.00  0.00    +0.087 C 
ENDBRANCH  28  32
ENDBRANCH  21  27
ENDBRANCH  19  20
ENDBRANCH   3  19
TORSDOF 6
ENDMDL
MODEL 6
REMARK VINA RESULT:     -11.9      1.645      2.059
REMARK  Name = 42628060
REMARK  6 active torsions:
REMARK  status: ('A' for Active; 'I' for Inactive)
REMARK    1  A    between atoms: N_2  and  C_6
REMARK    2  A    between atoms: C_3  and  C_19
REMARK    3  A    between atoms: C_9  and  N_13
REMARK    4  A    between atoms: C_19  and  N_20
REMARK    5  A    between atoms: C_21  and  N_27
REMARK    6  A    between atoms: C_28  and  C_32
REMARK                            x       y       z     vdW  Elec       q    Type
REMARK                         _______ _______ _______ _____ _____    ______ ____
ROOT
ATOM      1  O   UNL     1      36.516 -19.288 -20.967  0.00  0.00    -0.277 OA
ATOM      2  N   UNL     1      34.881 -20.955 -20.716  0.00  0.00    -0.284 N 
ATOM      3  C   UNL     1      35.536 -19.909 -21.364  0.00  0.00    +0.205 C 
ATOM      4  H   UNL     1      34.103 -21.336 -21.183  0.00  0.00    +0.155 HD
ENDROOT
BRANCH   2   6
ATOM      5  F   UNL     1      32.999 -22.379 -19.237  0.00  0.00    -0.203 F 
ATOM      6  C   UNL     1      35.206 -21.533 -19.467  0.00  0.00    +0.078 C 
ATOM      7  C   UNL     1      34.240 -22.240 -18.750  0.00  0.00    +0.155 C 
ATOM      8  C   UNL     1      36.494 -21.393 -18.949  0.00  0.00    +0.018 C 
ATOM      9  C   UNL     1      35.851 -22.667 -17.001  0.00  0.00    +0.061 C 
ATOM     10  C   UNL     1      34.563 -22.808 -17.517  0.00  0.00    +0.046 C 
ATOM     11  C   UNL     1      36.817 -21.961 -17.716  0.00  0.00    +0.017 C 
BRANCH   9  13
ATOM     12  O   UNL     1      38.534 -23.148 -16.034  0.00  0.00    -0.269 OA
ATOM     13  N   UNL     1      36.187 -23.257 -15.719  0.00  0.00    -0.233 N 
ATOM     14  C   UNL     1      37.546 -23.478 -15.377  0.00  0.00    +0.257 C 
ATOM     15  C   UNL     1      35.182 -23.590 -14.807  0.00  0.00    +0.072 C 
ATOM     16  C   UNL     1      37.802 -24.132 -14.056  0.00  0.00    +0.059 C 
ATOM     17  C   UNL     1      35.440 -24.143 -13.618  0.00  0.00    +0.017 C 
ATOM     18  C   UNL     1      36.791 -24.428 -13.237  0.00  0.00    +0.006 C 
ENDBRANCH   9  13
ENDBRANCH   2   6
BRANCH   3  19
ATOM     19  C   UNL     1      34.855 -19.603 -22.688  0.00  0.00    +0.010 C 
BRANCH  19  20
ATOM     20  N   UNL     1      35.367 -18.348 -23.217  0.00  0.00    +0.394 N 
ATOM     21  C   UNL     1      35.292 -16.021 -23.327  0.00  0.00    +0.049 C 
ATOM     22  C   UNL     1      35.176 -16.584 -24.746  0.00  0.00    -0.005 C 
ATOM     23  C   UNL     1      34.960 -17.195 -22.412  0.00  0.00    -0.057 C 
ATOM     24  C   UNL     1      34.864 -18.064 -24.561  0.00  0.00    -0.075 C 
ATOM     25  H   UNL     1      36.379 -18.472 -23.212  0.00  0.00    -0.079 HD
BRANCH  21  27
ATOM     26  O   UNL     1      34.510 -14.945 -20.783  0.00  0.00    -0.270 OA
ATOM     27  N   UNL     1      34.432 -14.893 -23.100  0.00  0.00    -0.304 N 
ATOM     28  C   UNL     1      34.106 -14.440 -21.828  0.00  0.00    +0.252 C 
ATOM     29  H   UNL     1      34.057 -14.421 -23.880  0.00  0.00    +0.150 HD
BRANCH  28  32
ATOM     30 CL   UNL     1      31.429  -9.744 -23.003  0.00  0.00    -0.075 Cl
ATOM     31  S   UNL     1      33.226 -12.108 -23.012  0.00  0.00    -0.071 S 
ATOM     32  C   UNL     1      33.182 -13.278 -21.763  0.00  0.00    +0.084 C 
ATOM     33  C   UNL     1      32.242 -12.975 -20.803  0.00  0.00    +0.012 C 
ATOM     34  C   UNL     1      31.548 -11.766 -21.098  0.00  0.00    +0.019 C 
ATOM     35  C   UNL     1      31.984 -11.191 -22.271  0.00  0.00    +0.087 C 
ENDBRANCH  28  32
ENDBRANCH  21  27
ENDBRANCH  19  20
ENDBRANCH   3  19
TORSDOF 6
ENDMDL
MODEL 7
REMARK VINA RESULT:     -11.7      2.925      3.620
REMARK  Name = 42628060
REMARK  6 active torsions:
REMARK  status: ('A' for Active; 'I' for Inactive)
REMARK    1  A    between atoms: N_2  and  C_6
REMARK    2  A    between atoms: C_3  and  C_19
REMARK    3  A    between atoms: C_9  and  N_13
REMARK    4  A    between atoms: C_19  and  N_20
REMARK    5  A    between atoms: C_21  and  N_27
REMARK    6  A    between atoms: C_28  and  C_32
REMARK                            x       y       z     vdW  Elec       q    Type
REMARK                         _______ _______ _______ _____ _____    ______ ____
ROOT
ATOM      1  O   UNL     1      35.824 -18.166 -20.648  0.00  0.00    -0.277 OA
ATOM      2  N   UNL     1      36.134 -20.436 -21.164  0.00  0.00    -0.284 N 
ATOM      3  C   UNL     1      36.261 -19.063 -21.363  0.00  0.00    +0.205 C 
ATOM      4  H   UNL     1      36.546 -21.014 -21.845  0.00  0.00    +0.155 HD
ENDROOT
BRANCH   2   6
ATOM      5  F   UNL     1      33.357 -20.642 -21.058  0.00  0.00    -0.203 F 
ATOM      6  C   UNL     1      35.481 -21.096 -20.096  0.00  0.00    +0.078 C 
ATOM      7  C   UNL     1      34.089 -21.182 -20.073  0.00  0.00    +0.155 C 
ATOM      8  C   UNL     1      36.232 -21.660 -19.064  0.00  0.00    +0.018 C 
ATOM      9  C   UNL     1      34.199 -22.396 -17.987  0.00  0.00    +0.061 C 
ATOM     10  C   UNL     1      33.448 -21.832 -19.018  0.00  0.00    +0.046 C 
ATOM     11  C   UNL     1      35.590 -22.310 -18.009  0.00  0.00    +0.017 C 
BRANCH   9  13
ATOM     12  O   UNL     1      31.335 -22.651 -17.674  0.00  0.00    -0.269 OA
ATOM     13  N   UNL     1      33.533 -23.071 -16.890  0.00  0.00    -0.233 N 
ATOM     14  C   UNL     1      32.115 -23.092 -16.830  0.00  0.00    +0.257 C 
ATOM     15  C   UNL     1      34.276 -23.720 -15.901  0.00  0.00    +0.072 C 
ATOM     16  C   UNL     1      31.509 -23.770 -15.641  0.00  0.00    +0.059 C 
ATOM     17  C   UNL     1      33.709 -24.348 -14.866  0.00  0.00    +0.017 C 
ATOM     18  C   UNL     1      32.283 -24.366 -14.731  0.00  0.00    +0.006 C 
ENDBRANCH   9  13
ENDBRANCH   2   6
BRANCH   3  19
ATOM     19  C   UNL     1      37.039 -18.787 -22.638  0.00  0.00    +0.010 C 
BRANCH  19  20
ATOM     20  N   UNL     1      36.151 -18.195 -23.628  0.00  0.00    +0.394 N 
ATOM     21  C   UNL     1      34.806 -16.427 -24.334  0.00  0.00    +0.049 C 
ATOM     22  C   UNL     1      33.973 -17.712 -24.342  0.00  0.00    -0.005 C 
ATOM     23  C   UNL     1      36.011 -16.747 -23.455  0.00  0.00    -0.057 C 
ATOM     24  C   UNL     1      34.788 -18.717 -23.538  0.00  0.00    -0.075 C 
ATOM     25  H   UNL     1      36.585 -18.427 -24.520  0.00  0.00    -0.079 HD
BRANCH  21  27
ATOM     26  O   UNL     1      34.530 -15.587 -21.602  0.00  0.00    -0.270 OA
ATOM     27  N   UNL     1      34.071 -15.288 -23.856  0.00  0.00    -0.304 N 
ATOM     28  C   UNL     1      33.991 -14.956 -22.509  0.00  0.00    +0.252 C 
ATOM     29  H   UNL     1      33.604 -14.719 -24.511  0.00  0.00    +0.150 HD
BRANCH  28  32
ATOM     30 CL   UNL     1      31.581  -9.981 -22.689  0.00  0.00    -0.075 Cl
ATOM     31  S   UNL     1      33.182 -12.420 -23.238  0.00  0.00    -0.071 S 
ATOM     32  C   UNL     1      33.170 -13.763 -22.176  0.00  0.00    +0.084 C 
ATOM     33  C   UNL     1      32.353 -13.554 -21.087  0.00  0.00    +0.012 C 
ATOM     34  C   UNL     1      31.729 -12.274 -21.125  0.00  0.00    +0.019 C 
ATOM     35  C   UNL     1      32.092 -11.554 -22.241  0.00  0.00    +0.087 C 
ENDBRANCH  28  32
ENDBRANCH  21  27
ENDBRANCH  19  20
ENDBRANCH   3  19
TORSDOF 6
ENDMDL
MODEL 8
REMARK VINA RESULT:     -11.7      3.129      4.024
REMARK  Name = 42628060
REMARK  6 active torsions:
REMARK  status: ('A' for Active; 'I' for Inactive)
REMARK    1  A    between atoms: N_2  and  C_6
REMARK    2  A    between atoms: C_3  and  C_19
REMARK    3  A    between atoms: C_9  and  N_13
REMARK    4  A    between atoms: C_19  and  N_20
REMARK    5  A    between atoms: C_21  and  N_27
REMARK    6  A    between atoms: C_28  and  C_32
REMARK                            x       y       z     vdW  Elec       q    Type
REMARK                         _______ _______ _______ _____ _____    ______ ____
ROOT
ATOM      1  O   UNL     1      35.232 -17.850 -21.205  0.00  0.00    -0.277 OA
ATOM      2  N   UNL     1      35.551 -20.124 -21.696  0.00  0.00    -0.284 N 
ATOM      3  C   UNL     1      35.679 -18.752 -21.906  0.00  0.00    +0.205 C 
ATOM      4  H   UNL     1      35.972 -20.707 -22.367  0.00  0.00    +0.155 HD
ENDROOT
BRANCH   2   6
ATOM      5  F   UNL     1      36.943 -21.649 -19.826  0.00  0.00    -0.203 F 
ATOM      6  C   UNL     1      34.887 -20.775 -20.631  0.00  0.00    +0.078 C 
ATOM      7  C   UNL     1      35.613 -21.532 -19.711  0.00  0.00    +0.155 C 
ATOM      8  C   UNL     1      33.502 -20.662 -20.502  0.00  0.00    +0.018 C 
ATOM      9  C   UNL     1      33.571 -22.060 -18.533  0.00  0.00    +0.061 C 
ATOM     10  C   UNL     1      34.955 -22.174 -18.661  0.00  0.00    +0.046 C 
ATOM     11  C   UNL     1      32.844 -21.304 -19.452  0.00  0.00    +0.017 C 
BRANCH   9  13
ATOM     12  O   UNL     1      34.853 -23.601 -16.448  0.00  0.00    -0.269 OA
ATOM     13  N   UNL     1      32.886 -22.728 -17.443  0.00  0.00    -0.233 N 
ATOM     14  C   UNL     1      33.628 -23.489 -16.503  0.00  0.00    +0.257 C 
ATOM     15  C   UNL     1      31.502 -22.610 -17.297  0.00  0.00    +0.072 C 
ATOM     16  C   UNL     1      32.840 -24.183 -15.437  0.00  0.00    +0.059 C 
ATOM     17  C   UNL     1      30.825 -23.214 -16.316  0.00  0.00    +0.017 C 
ATOM     18  C   UNL     1      31.516 -24.029 -15.363  0.00  0.00    +0.006 C 
ENDBRANCH   9  13
ENDBRANCH   2   6
BRANCH   3  19
ATOM     19  C   UNL     1      36.472 -18.487 -23.175  0.00  0.00    +0.010 C 
BRANCH  19  20
ATOM     20  N   UNL     1      35.751 -17.533 -24.005  0.00  0.00    +0.394 N 
ATOM     21  C   UNL     1      34.586 -15.526 -24.230  0.00  0.00    +0.049 C 
ATOM     22  C   UNL     1      33.712 -16.665 -24.763  0.00  0.00    -0.005 C 
ATOM     23  C   UNL     1      35.647 -16.214 -23.376  0.00  0.00    -0.057 C 
ATOM     24  C   UNL     1      34.369 -17.941 -24.252  0.00  0.00    -0.075 C 
ATOM     25  H   UNL     1      36.293 -17.496 -24.867  0.00  0.00    -0.079 HD
BRANCH  21  27
ATOM     26  O   UNL     1      34.237 -12.759 -24.909  0.00  0.00    -0.270 OA
ATOM     27  N   UNL     1      33.839 -14.549 -23.488  0.00  0.00    -0.304 N 
ATOM     28  C   UNL     1      33.724 -13.225 -23.894  0.00  0.00    +0.252 C 
ATOM     29  H   UNL     1      33.391 -14.828 -22.657  0.00  0.00    +0.150 HD
BRANCH  28  32
ATOM     30 CL   UNL     1      31.521  -8.748 -21.506  0.00  0.00    -0.075 Cl
ATOM     31  S   UNL     1      33.044 -10.637 -23.216  0.00  0.00    -0.071 S 
ATOM     32  C   UNL     1      32.939 -12.332 -23.002  0.00  0.00    +0.084 C 
ATOM     33  C   UNL     1      32.090 -12.672 -21.971  0.00  0.00    +0.012 C 
ATOM     34  C   UNL     1      31.518 -11.524 -21.350  0.00  0.00    +0.019 C 
ATOM     35  C   UNL     1      31.952 -10.352 -21.929  0.00  0.00    +0.087 C 
ENDBRANCH  28  32
ENDBRANCH  21  27
ENDBRANCH  19  20
ENDBRANCH   3  19
TORSDOF 6
ENDMDL
MODEL 9
REMARK VINA RESULT:     -11.7      5.131     12.502
REMARK  Name = 42628060
REMARK  6 active torsions:
REMARK  status: ('A' for Active; 'I' for Inactive)
REMARK    1  A    between atoms: N_2  and  C_6
REMARK    2  A    between atoms: C_3  and  C_19
REMARK    3  A    between atoms: C_9  and  N_13
REMARK    4  A    between atoms: C_19  and  N_20
REMARK    5  A    between atoms: C_21  and  N_27
REMARK    6  A    between atoms: C_28  and  C_32
REMARK                            x       y       z     vdW  Elec       q    Type
REMARK                         _______ _______ _______ _____ _____    ______ ____
ROOT
ATOM      1  O   UNL     1      33.816 -13.742 -26.031  0.00  0.00    -0.277 OA
ATOM      2  N   UNL     1      33.226 -14.118 -23.789  0.00  0.00    -0.284 N 
ATOM      3  C   UNL     1      33.615 -14.486 -25.076  0.00  0.00    +0.205 C 
ATOM      4  H   UNL     1      33.105 -14.852 -23.145  0.00  0.00    +0.155 HD
ENDROOT
BRANCH   2   6
ATOM      5  F   UNL     1      31.773 -13.682 -21.452  0.00  0.00    -0.203 F 
ATOM      6  C   UNL     1      32.983 -12.813 -23.301  0.00  0.00    +0.078 C 
ATOM      7  C   UNL     1      32.252 -12.629 -22.128  0.00  0.00    +0.155 C 
ATOM      8  C   UNL     1      33.474 -11.708 -23.997  0.00  0.00    +0.018 C 
ATOM      9  C   UNL     1      32.504 -10.236 -22.346  0.00  0.00    +0.061 C 
ATOM     10  C   UNL     1      32.013 -11.340 -21.650  0.00  0.00    +0.046 C 
ATOM     11  C   UNL     1      33.235 -10.419 -23.519  0.00  0.00    +0.017 C 
BRANCH   9  13
ATOM     12  O   UNL     1      31.072  -8.165 -23.770  0.00  0.00    -0.269 OA
ATOM     13  N   UNL     1      32.255  -8.896 -21.850  0.00  0.00    -0.233 N 
ATOM     14  C   UNL     1      31.572  -7.956 -22.665  0.00  0.00    +0.257 C 
ATOM     15  C   UNL     1      32.664  -8.528 -20.566  0.00  0.00    +0.072 C 
ATOM     16  C   UNL     1      31.398  -6.584 -22.095  0.00  0.00    +0.059 C 
ATOM     17  C   UNL     1      32.466  -7.304 -20.067  0.00  0.00    +0.017 C 
ATOM     18  C   UNL     1      31.820  -6.302 -20.860  0.00  0.00    +0.006 C 
ENDBRANCH   9  13
ENDBRANCH   2   6
BRANCH   3  19
ATOM     19  C   UNL     1      33.765 -15.995 -25.168  0.00  0.00    +0.010 C 
BRANCH  19  20
ATOM     20  N   UNL     1      34.706 -16.451 -24.156  0.00  0.00    +0.394 N 
ATOM     21  C   UNL     1      35.314 -17.979 -22.504  0.00  0.00    +0.049 C 
ATOM     22  C   UNL     1      35.334 -16.572 -21.903  0.00  0.00    -0.005 C 
ATOM     23  C   UNL     1      34.485 -17.848 -23.779  0.00  0.00    -0.057 C 
ATOM     24  C   UNL     1      34.587 -15.701 -22.906  0.00  0.00    -0.075 C 
ATOM     25  H   UNL     1      35.619 -16.318 -24.590  0.00  0.00    -0.079 HD
BRANCH  21  27
ATOM     26  O   UNL     1      36.805 -19.908 -20.989  0.00  0.00    -0.270 OA
ATOM     27  N   UNL     1      34.778 -18.964 -21.605  0.00  0.00    -0.304 N 
ATOM     28  C   UNL     1      35.580 -19.862 -20.911  0.00  0.00    +0.252 C 
ATOM     29  H   UNL     1      33.803 -19.005 -21.477  0.00  0.00    +0.150 HD
BRANCH  28  32
ATOM     30 CL   UNL     1      34.466 -23.694 -17.081  0.00  0.00    -0.075 Cl
ATOM     31  S   UNL     1      35.766 -21.725 -18.884  0.00  0.00    -0.071 S 
ATOM     32  C   UNL     1      34.871 -20.835 -20.040  0.00  0.00    +0.084 C 
ATOM     33  C   UNL     1      33.530 -21.153 -20.014  0.00  0.00    +0.012 C 
ATOM     34  C   UNL     1      33.235 -22.140 -19.030  0.00  0.00    +0.019 C 
ATOM     35  C   UNL     1      34.360 -22.539 -18.343  0.00  0.00    +0.087 C 
ENDBRANCH  28  32
ENDBRANCH  21  27
ENDBRANCH  19  20
ENDBRANCH   3  19
TORSDOF 6
ENDMDL
