MODEL 1
REMARK VINA RESULT:     -12.8      0.000      0.000
REMARK  Name = 71360
REMARK  8 active torsions:
REMARK  status: ('A' for Active; 'I' for Inactive)
REMARK    1  A    between atoms: N_1  and  C_18
REMARK    2  A    between atoms: C_2  and  C_11
REMARK    3  A    between atoms: C_18  and  C_19
REMARK    4  A    between atoms: C_19  and  C_20
REMARK    5  A    between atoms: C_20  and  O_21
REMARK    6  A    between atoms: O_21  and  C_22
REMARK    7  A    between atoms: C_23  and  O_31
REMARK    8  A    between atoms: C_27  and  C_29
REMARK                            x       y       z     vdW  Elec       q    Type
REMARK                         _______ _______ _______ _____ _____    ______ ____
ROOT
ATOM      1  N   UNL     1      35.365 -17.146 -24.435  0.00  0.00    +0.387 N 
ATOM      2  C   UNL     1      34.978 -18.803 -22.046  0.00  0.00    +0.039 C 
ATOM      3  C   UNL     1      35.731 -17.464 -22.008  0.00  0.00    -0.017 C 
ATOM      4  C   UNL     1      35.043 -19.398 -23.462  0.00  0.00    -0.017 C 
ATOM      5  C   UNL     1      35.244 -16.521 -23.111  0.00  0.00    -0.077 C 
ATOM      6  C   UNL     1      34.579 -18.386 -24.512  0.00  0.00    -0.077 C 
ATOM      7  H   UNL     1      36.346 -17.386 -24.582  0.00  0.00    -0.080 HD
ENDROOT
BRANCH   2  11
ATOM      8  F   UNL     1      33.580 -23.574 -17.517  0.00  0.00    -0.204 F 
ATOM      9  O   UNL     1      36.846 -20.794 -19.694  0.00  0.00    -0.354 OA
ATOM     10  N   UNL     1      36.747 -19.826 -20.686  0.00  0.00    -0.081 NA
ATOM     11  C   UNL     1      35.452 -19.770 -20.984  0.00  0.00    +0.100 A 
ATOM     12  C   UNL     1      34.676 -20.664 -20.233  0.00  0.00    +0.054 A 
ATOM     13  C   UNL     1      35.608 -21.293 -19.425  0.00  0.00    +0.179 A 
ATOM     14  C   UNL     1      33.325 -21.026 -20.122  0.00  0.00    +0.007 C 
ATOM     15  C   UNL     1      35.301 -22.279 -18.494  0.00  0.00    +0.070 C 
ATOM     16  C   UNL     1      32.979 -22.018 -19.193  0.00  0.00    +0.030 C 
ATOM     17  C   UNL     1      33.950 -22.631 -18.394  0.00  0.00    +0.143 C 
ENDBRANCH   2  11
BRANCH   1  18
ATOM     18  C   UNL     1      34.949 -16.212 -25.482  0.00  0.00    -0.074 C 
BRANCH  18  19
ATOM     19  C   UNL     1      33.453 -15.939 -25.383  0.00  0.00    +0.025 C 
BRANCH  19  20
ATOM     20  C   UNL     1      33.159 -14.446 -25.320  0.00  0.00    +0.203 C 
BRANCH  20  21
ATOM     21  O   UNL     1      33.984 -13.857 -24.323  0.00  0.00    -0.472 OA
BRANCH  21  22
ATOM     22  C   UNL     1      33.421 -12.868 -23.560  0.00  0.00    +0.172 C 
ATOM     23  C   UNL     1      32.715 -13.191 -22.406  0.00  0.00    +0.172 C 
ATOM     24  C   UNL     1      33.563 -11.542 -23.954  0.00  0.00    +0.040 C 
ATOM     25  C   UNL     1      32.146 -12.176 -21.637  0.00  0.00    +0.043 C 
ATOM     26  C   UNL     1      32.995 -10.527 -23.185  0.00  0.00    +0.006 C 
ATOM     27  C   UNL     1      32.285 -10.844 -22.027  0.00  0.00    +0.038 C 
BRANCH  27  29
ATOM     28  O   UNL     1      31.537  -8.633 -21.679  0.00  0.00    -0.291 OA
ATOM     29  C   UNL     1      31.693  -9.785 -21.224  0.00  0.00    +0.174 C 
ATOM     30  C   UNL     1      31.244 -10.064 -19.795  0.00  0.00    +0.077 C 
ENDBRANCH  27  29
BRANCH  23  31
ATOM     31  O   UNL     1      32.572 -14.488 -22.014  0.00  0.00    -0.468 OA
ATOM     32  C   UNL     1      32.688 -14.760 -20.619  0.00  0.00    +0.253 C 
ENDBRANCH  23  31
ENDBRANCH  21  22
ENDBRANCH  20  21
ENDBRANCH  19  20
ENDBRANCH  18  19
ENDBRANCH   1  18
TORSDOF 8
ENDMDL
MODEL 2
REMARK VINA RESULT:     -12.6      3.912     10.448
REMARK  Name = 71360
REMARK  8 active torsions:
REMARK  status: ('A' for Active; 'I' for Inactive)
REMARK    1  A    between atoms: N_1  and  C_18
REMARK    2  A    between atoms: C_2  and  C_11
REMARK    3  A    between atoms: C_18  and  C_19
REMARK    4  A    between atoms: C_19  and  C_20
REMARK    5  A    between atoms: C_20  and  O_21
REMARK    6  A    between atoms: O_21  and  C_22
REMARK    7  A    between atoms: C_23  and  O_31
REMARK    8  A    between atoms: C_27  and  C_29
REMARK                            x       y       z     vdW  Elec       q    Type
REMARK                         _______ _______ _______ _____ _____    ______ ____
ROOT
ATOM      1  N   UNL     1      35.892 -19.578 -20.900  0.00  0.00    +0.387 N 
ATOM      2  C   UNL     1      35.468 -18.298 -23.505  0.00  0.00    +0.039 C 
ATOM      3  C   UNL     1      36.494 -17.777 -22.487  0.00  0.00    -0.017 C 
ATOM      4  C   UNL     1      34.359 -19.075 -22.777  0.00  0.00    -0.017 C 
ATOM      5  C   UNL     1      37.003 -18.904 -21.584  0.00  0.00    -0.077 C 
ATOM      6  C   UNL     1      34.945 -20.155 -21.865  0.00  0.00    -0.077 C 
ATOM      7  H   UNL     1      35.392 -18.880 -20.348  0.00  0.00    -0.080 HD
ENDROOT
BRANCH   2  11
ATOM      8  F   UNL     1      33.366 -11.956 -24.272  0.00  0.00    -0.204 F 
ATOM      9  O   UNL     1      34.216 -16.274 -26.211  0.00  0.00    -0.354 OA
ATOM     10  N   UNL     1      34.701 -17.464 -25.684  0.00  0.00    -0.081 NA
ATOM     11  C   UNL     1      34.925 -17.204 -24.398  0.00  0.00    +0.100 A 
ATOM     12  C   UNL     1      34.610 -15.885 -24.041  0.00  0.00    +0.054 A 
ATOM     13  C   UNL     1      34.162 -15.333 -25.229  0.00  0.00    +0.179 A 
ATOM     14  C   UNL     1      34.639 -15.087 -22.887  0.00  0.00    +0.007 C 
ATOM     15  C   UNL     1      33.732 -14.018 -25.369  0.00  0.00    +0.070 C 
ATOM     16  C   UNL     1      34.212 -13.756 -22.992  0.00  0.00    +0.030 C 
ATOM     17  C   UNL     1      33.767 -13.233 -24.211  0.00  0.00    +0.143 C 
ENDBRANCH   2  11
BRANCH   1  18
ATOM     18  C   UNL     1      36.398 -20.614 -19.999  0.00  0.00    -0.074 C 
BRANCH  18  19
ATOM     19  C   UNL     1      35.609 -21.906 -20.182  0.00  0.00    +0.025 C 
BRANCH  19  20
ATOM     20  C   UNL     1      34.500 -22.035 -19.147  0.00  0.00    +0.203 C 
BRANCH  20  21
ATOM     21  O   UNL     1      34.967 -22.834 -18.070  0.00  0.00    -0.472 OA
BRANCH  21  22
ATOM     22  C   UNL     1      34.045 -23.198 -17.124  0.00  0.00    +0.172 C 
ATOM     23  C   UNL     1      34.454 -23.832 -15.955  0.00  0.00    +0.172 C 
ATOM     24  C   UNL     1      32.700 -22.926 -17.348  0.00  0.00    +0.040 C 
ATOM     25  C   UNL     1      33.505 -24.197 -14.999  0.00  0.00    +0.043 C 
ATOM     26  C   UNL     1      31.751 -23.292 -16.393  0.00  0.00    +0.006 C 
ATOM     27  C   UNL     1      32.154 -23.928 -15.219  0.00  0.00    +0.038 C 
BRANCH  27  29
ATOM     28  O   UNL     1      31.278 -23.963 -13.028  0.00  0.00    -0.291 OA
ATOM     29  C   UNL     1      31.165 -24.308 -14.222  0.00  0.00    +0.174 C 
ATOM     30  C   UNL     1      29.955 -25.145 -14.621  0.00  0.00    +0.077 C 
ENDBRANCH  27  29
BRANCH  23  31
ATOM     31  O   UNL     1      35.770 -24.100 -15.729  0.00  0.00    -0.468 OA
ATOM     32  C   UNL     1      36.080 -25.346 -15.109  0.00  0.00    +0.253 C 
ENDBRANCH  23  31
ENDBRANCH  21  22
ENDBRANCH  20  21
ENDBRANCH  19  20
ENDBRANCH  18  19
ENDBRANCH   1  18
TORSDOF 8
ENDMDL
MODEL 3
REMARK VINA RESULT:     -12.5      2.475      4.217
REMARK  Name = 71360
REMARK  8 active torsions:
REMARK  status: ('A' for Active; 'I' for Inactive)
REMARK    1  A    between atoms: N_1  and  C_18
REMARK    2  A    between atoms: C_2  and  C_11
REMARK    3  A    between atoms: C_18  and  C_19
REMARK    4  A    between atoms: C_19  and  C_20
REMARK    5  A    between atoms: C_20  and  O_21
REMARK    6  A    between atoms: O_21  and  C_22
REMARK    7  A    between atoms: C_23  and  O_31
REMARK    8  A    between atoms: C_27  and  C_29
REMARK                            x       y       z     vdW  Elec       q    Type
REMARK                         _______ _______ _______ _____ _____    ______ ____
ROOT
ATOM      1  N   UNL     1      34.816 -20.000 -20.698  0.00  0.00    +0.387 N 
ATOM      2  C   UNL     1      34.386 -22.307 -18.937  0.00  0.00    +0.039 C 
ATOM      3  C   UNL     1      33.273 -21.299 -19.264  0.00  0.00    -0.017 C 
ATOM      4  C   UNL     1      35.760 -21.636 -19.099  0.00  0.00    -0.017 C 
ATOM      5  C   UNL     1      33.498 -20.646 -20.630  0.00  0.00    -0.077 C 
ATOM      6  C   UNL     1      35.896 -20.972 -20.471  0.00  0.00    -0.077 C 
ATOM      7  H   UNL     1      34.862 -19.300 -19.958  0.00  0.00    -0.080 HD
ENDROOT
BRANCH   2  11
ATOM      8  F   UNL     1      30.328 -24.323 -13.968  0.00  0.00    -0.204 F 
ATOM      9  O   UNL     1      34.781 -23.923 -15.741  0.00  0.00    -0.354 OA
ATOM     10  N   UNL     1      35.279 -23.393 -16.924  0.00  0.00    -0.081 NA
ATOM     11  C   UNL     1      34.209 -22.954 -17.582  0.00  0.00    +0.100 A 
ATOM     12  C   UNL     1      33.010 -23.170 -16.887  0.00  0.00    +0.054 A 
ATOM     13  C   UNL     1      33.426 -23.788 -15.720  0.00  0.00    +0.179 A 
ATOM     14  C   UNL     1      31.641 -22.929 -17.079  0.00  0.00    +0.007 C 
ATOM     15  C   UNL     1      32.572 -24.199 -14.703  0.00  0.00    +0.070 C 
ATOM     16  C   UNL     1      30.751 -23.330 -16.073  0.00  0.00    +0.030 C 
ATOM     17  C   UNL     1      31.209 -23.954 -14.907  0.00  0.00    +0.143 C 
ENDBRANCH   2  11
BRANCH   1  18
ATOM     18  C   UNL     1      34.992 -19.333 -21.988  0.00  0.00    -0.074 C 
BRANCH  18  19
ATOM     19  C   UNL     1      35.811 -18.058 -21.817  0.00  0.00    +0.025 C 
BRANCH  19  20
ATOM     20  C   UNL     1      34.950 -16.902 -21.326  0.00  0.00    +0.203 C 
BRANCH  20  21
ATOM     21  O   UNL     1      34.512 -16.147 -22.447  0.00  0.00    -0.472 OA
BRANCH  21  22
ATOM     22  C   UNL     1      33.797 -15.008 -22.184  0.00  0.00    +0.172 C 
ATOM     23  C   UNL     1      33.607 -14.055 -23.179  0.00  0.00    +0.172 C 
ATOM     24  C   UNL     1      33.266 -14.818 -20.913  0.00  0.00    +0.040 C 
ATOM     25  C   UNL     1      32.877 -12.899 -22.900  0.00  0.00    +0.043 C 
ATOM     26  C   UNL     1      32.536 -13.663 -20.633  0.00  0.00    +0.006 C 
ATOM     27  C   UNL     1      32.342 -12.703 -21.626  0.00  0.00    +0.038 C 
BRANCH  27  29
ATOM     28  O   UNL     1      30.759 -11.035 -22.151  0.00  0.00    -0.291 OA
ATOM     29  C   UNL     1      31.580 -11.499 -21.335  0.00  0.00    +0.174 C 
ATOM     30  C   UNL     1      31.772 -10.771 -20.009  0.00  0.00    +0.077 C 
ENDBRANCH  27  29
BRANCH  23  31
ATOM     31  O   UNL     1      34.124 -14.235 -24.427  0.00  0.00    -0.468 OA
ATOM     32  C   UNL     1      33.206 -14.567 -25.467  0.00  0.00    +0.253 C 
ENDBRANCH  23  31
ENDBRANCH  21  22
ENDBRANCH  20  21
ENDBRANCH  19  20
ENDBRANCH  18  19
ENDBRANCH   1  18
TORSDOF 8
ENDMDL
MODEL 4
REMARK VINA RESULT:     -12.3      4.586     11.460
REMARK  Name = 71360
REMARK  8 active torsions:
REMARK  status: ('A' for Active; 'I' for Inactive)
REMARK    1  A    between atoms: N_1  and  C_18
REMARK    2  A    between atoms: C_2  and  C_11
REMARK    3  A    between atoms: C_18  and  C_19
REMARK    4  A    between atoms: C_19  and  C_20
REMARK    5  A    between atoms: C_20  and  O_21
REMARK    6  A    between atoms: O_21  and  C_22
REMARK    7  A    between atoms: C_23  and  O_31
REMARK    8  A    between atoms: C_27  and  C_29
REMARK                            x       y       z     vdW  Elec       q    Type
REMARK                         _______ _______ _______ _____ _____    ______ ____
ROOT
ATOM      1  N   UNL     1      36.425 -20.415 -20.680  0.00  0.00    +0.387 N 
ATOM      2  C   UNL     1      35.292 -18.273 -22.334  0.00  0.00    +0.039 C 
ATOM      3  C   UNL     1      34.525 -19.568 -22.021  0.00  0.00    -0.017 C 
ATOM      4  C   UNL     1      36.805 -18.527 -22.234  0.00  0.00    -0.017 C 
ATOM      5  C   UNL     1      34.976 -20.173 -20.689  0.00  0.00    -0.077 C 
ATOM      6  C   UNL     1      37.173 -19.168 -20.894  0.00  0.00    -0.077 C 
ATOM      7  H   UNL     1      36.643 -21.049 -21.449  0.00  0.00    -0.080 HD
ENDROOT
BRANCH   2  11
ATOM      8  F   UNL     1      33.381 -12.889 -25.881  0.00  0.00    -0.204 F 
ATOM      9  O   UNL     1      34.447 -17.578 -25.767  0.00  0.00    -0.354 OA
ATOM     10  N   UNL     1      34.842 -18.429 -24.743  0.00  0.00    -0.081 NA
ATOM     11  C   UNL     1      34.888 -17.661 -23.657  0.00  0.00    +0.100 A 
ATOM     12  C   UNL     1      34.541 -16.327 -23.912  0.00  0.00    +0.054 A 
ATOM     13  C   UNL     1      34.267 -16.324 -25.269  0.00  0.00    +0.179 A 
ATOM     14  C   UNL     1      34.419 -15.130 -23.189  0.00  0.00    +0.007 C 
ATOM     15  C   UNL     1      33.874 -15.199 -25.987  0.00  0.00    +0.070 C 
ATOM     16  C   UNL     1      34.024 -13.976 -23.882  0.00  0.00    +0.030 C 
ATOM     17  C   UNL     1      33.756 -14.012 -25.255  0.00  0.00    +0.143 C 
ENDBRANCH   2  11
BRANCH   1  18
ATOM     18  C   UNL     1      36.830 -21.045 -19.423  0.00  0.00    -0.074 C 
BRANCH  18  19
ATOM     19  C   UNL     1      35.775 -22.047 -18.969  0.00  0.00    +0.025 C 
BRANCH  19  20
ATOM     20  C   UNL     1      35.693 -22.123 -17.450  0.00  0.00    +0.203 C 
BRANCH  20  21
ATOM     21  O   UNL     1      36.852 -22.784 -16.960  0.00  0.00    -0.472 OA
BRANCH  21  22
ATOM     22  C   UNL     1      36.757 -23.363 -15.722  0.00  0.00    +0.172 C 
ATOM     23  C   UNL     1      37.881 -23.920 -15.121  0.00  0.00    +0.172 C 
ATOM     24  C   UNL     1      35.525 -23.387 -15.077  0.00  0.00    +0.040 C 
ATOM     25  C   UNL     1      37.771 -24.507 -13.860  0.00  0.00    +0.043 C 
ATOM     26  C   UNL     1      35.415 -23.974 -13.816  0.00  0.00    +0.006 C 
ATOM     27  C   UNL     1      36.538 -24.535 -13.208  0.00  0.00    +0.038 C 
BRANCH  27  29
ATOM     28  O   UNL     1      36.839 -26.302 -11.675  0.00  0.00    -0.291 OA
ATOM     29  C   UNL     1      36.424 -25.146 -11.893  0.00  0.00    +0.174 C 
ATOM     30  C   UNL     1      35.787 -24.377 -10.741  0.00  0.00    +0.077 C 
ENDBRANCH  27  29
BRANCH  23  31
ATOM     31  O   UNL     1      39.090 -23.900 -15.748  0.00  0.00    -0.468 OA
ATOM     32  C   UNL     1      40.025 -24.914 -15.386  0.00  0.00    +0.253 C 
ENDBRANCH  23  31
ENDBRANCH  21  22
ENDBRANCH  20  21
ENDBRANCH  19  20
ENDBRANCH  18  19
ENDBRANCH   1  18
TORSDOF 8
ENDMDL
MODEL 5
REMARK VINA RESULT:     -12.2      1.717      2.440
REMARK  Name = 71360
REMARK  8 active torsions:
REMARK  status: ('A' for Active; 'I' for Inactive)
REMARK    1  A    between atoms: N_1  and  C_18
REMARK    2  A    between atoms: C_2  and  C_11
REMARK    3  A    between atoms: C_18  and  C_19
REMARK    4  A    between atoms: C_19  and  C_20
REMARK    5  A    between atoms: C_20  and  O_21
REMARK    6  A    between atoms: O_21  and  C_22
REMARK    7  A    between atoms: C_23  and  O_31
REMARK    8  A    between atoms: C_27  and  C_29
REMARK                            x       y       z     vdW  Elec       q    Type
REMARK                         _______ _______ _______ _____ _____    ______ ____
ROOT
ATOM      1  N   UNL     1      33.873 -15.593 -23.447  0.00  0.00    +0.387 N 
ATOM      2  C   UNL     1      35.679 -17.530 -22.185  0.00  0.00    +0.039 C 
ATOM      3  C   UNL     1      34.933 -17.829 -23.495  0.00  0.00    -0.017 C 
ATOM      4  C   UNL     1      34.912 -16.469 -21.378  0.00  0.00    -0.017 C 
ATOM      5  C   UNL     1      34.634 -16.543 -24.270  0.00  0.00    -0.077 C 
ATOM      6  C   UNL     1      34.614 -15.233 -22.229  0.00  0.00    -0.077 C 
ATOM      7  H   UNL     1      33.005 -16.047 -23.163  0.00  0.00    -0.080 HD
ENDROOT
BRANCH   2  11
ATOM      8  F   UNL     1      33.448 -23.001 -18.973  0.00  0.00    -0.204 F 
ATOM      9  O   UNL     1      37.152 -20.261 -20.353  0.00  0.00    -0.354 OA
ATOM     10  N   UNL     1      37.230 -19.081 -21.082  0.00  0.00    -0.081 NA
ATOM     11  C   UNL     1      35.970 -18.777 -21.381  0.00  0.00    +0.100 A 
ATOM     12  C   UNL     1      35.047 -19.709 -20.883  0.00  0.00    +0.054 A 
ATOM     13  C   UNL     1      35.848 -20.634 -20.235  0.00  0.00    +0.179 A 
ATOM     14  C   UNL     1      33.657 -19.896 -20.887  0.00  0.00    +0.007 C 
ATOM     15  C   UNL     1      35.369 -21.761 -19.576  0.00  0.00    +0.070 C 
ATOM     16  C   UNL     1      33.139 -21.023 -20.232  0.00  0.00    +0.030 C 
ATOM     17  C   UNL     1      33.980 -21.937 -19.589  0.00  0.00    +0.143 C 
ENDBRANCH   2  11
BRANCH   1  18
ATOM     18  C   UNL     1      33.546 -14.394 -24.219  0.00  0.00    -0.074 C 
BRANCH  18  19
ATOM     19  C   UNL     1      34.428 -13.229 -23.786  0.00  0.00    +0.025 C 
BRANCH  19  20
ATOM     20  C   UNL     1      33.901 -11.902 -24.314  0.00  0.00    +0.203 C 
BRANCH  20  21
ATOM     21  O   UNL     1      32.657 -11.619 -23.688  0.00  0.00    -0.472 OA
BRANCH  21  22
ATOM     22  C   UNL     1      32.599 -10.494 -22.907  0.00  0.00    +0.172 C 
ATOM     23  C   UNL     1      31.950 -10.529 -21.677  0.00  0.00    +0.172 C 
ATOM     24  C   UNL     1      33.194  -9.322 -23.360  0.00  0.00    +0.040 C 
ATOM     25  C   UNL     1      31.897  -9.377 -20.891  0.00  0.00    +0.043 C 
ATOM     26  C   UNL     1      33.141  -8.170 -22.574  0.00  0.00    +0.006 C 
ATOM     27  C   UNL     1      32.492  -8.198 -21.340  0.00  0.00    +0.038 C 
BRANCH  27  29
ATOM     28  O   UNL     1      33.088  -6.903 -19.460  0.00  0.00    -0.291 OA
ATOM     29  C   UNL     1      32.437  -6.998 -20.521  0.00  0.00    +0.174 C 
ATOM     30  C   UNL     1      31.573  -5.816 -20.946  0.00  0.00    +0.077 C 
ENDBRANCH  27  29
BRANCH  23  31
ATOM     31  O   UNL     1      31.366 -11.674 -21.227  0.00  0.00    -0.468 OA
ATOM     32  C   UNL     1      32.229 -12.676 -20.695  0.00  0.00    +0.253 C 
ENDBRANCH  23  31
ENDBRANCH  21  22
ENDBRANCH  20  21
ENDBRANCH  19  20
ENDBRANCH  18  19
ENDBRANCH   1  18
TORSDOF 8
ENDMDL
MODEL 6
REMARK VINA RESULT:     -12.1      3.673      6.280
REMARK  Name = 71360
REMARK  8 active torsions:
REMARK  status: ('A' for Active; 'I' for Inactive)
REMARK    1  A    between atoms: N_1  and  C_18
REMARK    2  A    between atoms: C_2  and  C_11
REMARK    3  A    between atoms: C_18  and  C_19
REMARK    4  A    between atoms: C_19  and  C_20
REMARK    5  A    between atoms: C_20  and  O_21
REMARK    6  A    between atoms: O_21  and  C_22
REMARK    7  A    between atoms: C_23  and  O_31
REMARK    8  A    between atoms: C_27  and  C_29
REMARK                            x       y       z     vdW  Elec       q    Type
REMARK                         _______ _______ _______ _____ _____    ______ ____
ROOT
ATOM      1  N   UNL     1      31.912 -12.543 -22.341  0.00  0.00    +0.387 N 
ATOM      2  C   UNL     1      34.005 -14.533 -21.825  0.00  0.00    +0.039 C 
ATOM      3  C   UNL     1      33.643 -14.065 -23.243  0.00  0.00    -0.017 C 
ATOM      4  C   UNL     1      32.801 -14.338 -20.888  0.00  0.00    -0.017 C 
ATOM      5  C   UNL     1      33.076 -12.643 -23.232  0.00  0.00    -0.077 C 
ATOM      6  C   UNL     1      32.266 -12.906 -20.961  0.00  0.00    -0.077 C 
ATOM      7  H   UNL     1      31.207 -13.203 -22.669  0.00  0.00    -0.080 HD
ENDROOT
BRANCH   2  11
ATOM      8  F   UNL     1      35.362 -20.282 -25.040  0.00  0.00    -0.204 F 
ATOM      9  O   UNL     1      35.431 -17.728 -20.964  0.00  0.00    -0.354 OA
ATOM     10  N   UNL     1      35.022 -16.437 -20.655  0.00  0.00    -0.081 NA
ATOM     11  C   UNL     1      34.545 -15.945 -21.796  0.00  0.00    +0.100 A 
ATOM     12  C   UNL     1      34.619 -16.855 -22.860  0.00  0.00    +0.054 A 
ATOM     13  C   UNL     1      35.189 -17.976 -22.281  0.00  0.00    +0.179 A 
ATOM     14  C   UNL     1      34.284 -16.888 -24.222  0.00  0.00    +0.007 C 
ATOM     15  C   UNL     1      35.464 -19.157 -22.962  0.00  0.00    +0.070 C 
ATOM     16  C   UNL     1      34.547 -18.064 -24.941  0.00  0.00    +0.030 C 
ATOM     17  C   UNL     1      35.126 -19.176 -24.320  0.00  0.00    +0.143 C 
ENDBRANCH   2  11
BRANCH   1  18
ATOM     18  C   UNL     1      31.349 -11.193 -22.385  0.00  0.00    -0.074 C 
BRANCH  18  19
ATOM     19  C   UNL     1      32.463 -10.153 -22.328  0.00  0.00    +0.025 C 
BRANCH  19  20
ATOM     20  C   UNL     1      32.073  -8.964 -21.461  0.00  0.00    +0.203 C 
BRANCH  20  21
ATOM     21  O   UNL     1      33.146  -8.033 -21.449  0.00  0.00    -0.472 OA
BRANCH  21  22
ATOM     22  C   UNL     1      33.381  -7.344 -22.610  0.00  0.00    +0.172 C 
ATOM     23  C   UNL     1      32.379  -6.562 -23.175  0.00  0.00    +0.172 C 
ATOM     24  C   UNL     1      34.630  -7.439 -23.215  0.00  0.00    +0.040 C 
ATOM     25  C   UNL     1      32.629  -5.866 -24.358  0.00  0.00    +0.043 C 
ATOM     26  C   UNL     1      34.880  -6.743 -24.398  0.00  0.00    +0.006 C 
ATOM     27  C   UNL     1      33.880  -5.958 -24.969  0.00  0.00    +0.038 C 
BRANCH  27  29
ATOM     28  O   UNL     1      33.219  -4.702 -26.854  0.00  0.00    -0.291 OA
ATOM     29  C   UNL     1      34.142  -5.231 -26.202  0.00  0.00    +0.174 C 
ATOM     30  C   UNL     1      35.567  -5.100 -26.729  0.00  0.00    +0.077 C 
ENDBRANCH  27  29
BRANCH  23  31
ATOM     31  O   UNL     1      31.154  -6.465 -22.587  0.00  0.00    -0.468 OA
ATOM     32  C   UNL     1      30.937  -5.352 -21.722  0.00  0.00    +0.253 C 
ENDBRANCH  23  31
ENDBRANCH  21  22
ENDBRANCH  20  21
ENDBRANCH  19  20
ENDBRANCH  18  19
ENDBRANCH   1  18
TORSDOF 8
ENDMDL
MODEL 7
REMARK VINA RESULT:     -12.1      4.120     11.214
REMARK  Name = 71360
REMARK  8 active torsions:
REMARK  status: ('A' for Active; 'I' for Inactive)
REMARK    1  A    between atoms: N_1  and  C_18
REMARK    2  A    between atoms: C_2  and  C_11
REMARK    3  A    between atoms: C_18  and  C_19
REMARK    4  A    between atoms: C_19  and  C_20
REMARK    5  A    between atoms: C_20  and  O_21
REMARK    6  A    between atoms: O_21  and  C_22
REMARK    7  A    between atoms: C_23  and  O_31
REMARK    8  A    between atoms: C_27  and  C_29
REMARK                            x       y       z     vdW  Elec       q    Type
REMARK                         _______ _______ _______ _____ _____    ______ ____
ROOT
ATOM      1  N   UNL     1      34.575 -22.070 -19.865  0.00  0.00    +0.387 N 
ATOM      2  C   UNL     1      34.872 -19.378 -20.993  0.00  0.00    +0.039 C 
ATOM      3  C   UNL     1      33.529 -20.124 -20.982  0.00  0.00    -0.017 C 
ATOM      4  C   UNL     1      36.030 -20.388 -20.951  0.00  0.00    -0.017 C 
ATOM      5  C   UNL     1      33.455 -21.120 -19.821  0.00  0.00    -0.077 C 
ATOM      6  C   UNL     1      35.867 -21.373 -19.791  0.00  0.00    -0.077 C 
ATOM      7  H   UNL     1      34.534 -22.563 -20.758  0.00  0.00    -0.080 HD
ENDROOT
BRANCH   2  11
ATOM      8  F   UNL     1      34.590 -13.061 -23.282  0.00  0.00    -0.204 F 
ATOM      9  O   UNL     1      35.321 -17.732 -24.166  0.00  0.00    -0.354 OA
ATOM     10  N   UNL     1      35.290 -18.860 -23.356  0.00  0.00    -0.081 NA
ATOM     11  C   UNL     1      34.989 -18.403 -22.143  0.00  0.00    +0.100 A 
ATOM     12  C   UNL     1      34.818 -17.012 -22.106  0.00  0.00    +0.054 A 
ATOM     13  C   UNL     1      35.038 -16.630 -23.418  0.00  0.00    +0.179 A 
ATOM     14  C   UNL     1      34.507 -16.029 -21.154  0.00  0.00    +0.007 C 
ATOM     15  C   UNL     1      34.977 -15.317 -23.874  0.00  0.00    +0.070 C 
ATOM     16  C   UNL     1      34.436 -14.694 -21.579  0.00  0.00    +0.030 C 
ATOM     17  C   UNL     1      34.667 -14.347 -22.914  0.00  0.00    +0.143 C 
ENDBRANCH   2  11
BRANCH   1  18
ATOM     18  C   UNL     1      34.459 -23.048 -18.784  0.00  0.00    -0.074 C 
BRANCH  18  19
ATOM     19  C   UNL     1      33.265 -22.716 -17.896  0.00  0.00    +0.025 C 
BRANCH  19  20
ATOM     20  C   UNL     1      33.244 -23.578 -16.641  0.00  0.00    +0.203 C 
BRANCH  20  21
ATOM     21  O   UNL     1      34.143 -23.027 -15.689  0.00  0.00    -0.472 OA
BRANCH  21  22
ATOM     22  C   UNL     1      35.289 -23.736 -15.437  0.00  0.00    +0.172 C 
ATOM     23  C   UNL     1      36.528 -23.108 -15.500  0.00  0.00    +0.172 C 
ATOM     24  C   UNL     1      35.195 -25.086 -15.121  0.00  0.00    +0.040 C 
ATOM     25  C   UNL     1      37.688 -23.840 -15.241  0.00  0.00    +0.043 C 
ATOM     26  C   UNL     1      36.354 -25.819 -14.862  0.00  0.00    +0.006 C 
ATOM     27  C   UNL     1      37.600 -25.195 -14.923  0.00  0.00    +0.038 C 
BRANCH  27  29
ATOM     28  O   UNL     1      38.860 -27.189 -14.856  0.00  0.00    -0.291 OA
ATOM     29  C   UNL     1      38.809 -25.959 -14.653  0.00  0.00    +0.174 C 
ATOM     30  C   UNL     1      40.052 -25.262 -14.111  0.00  0.00    +0.077 C 
ENDBRANCH  27  29
BRANCH  23  31
ATOM     31  O   UNL     1      36.627 -21.785 -15.808  0.00  0.00    -0.468 OA
ATOM     32  C   UNL     1      37.503 -21.432 -16.877  0.00  0.00    +0.253 C 
ENDBRANCH  23  31
ENDBRANCH  21  22
ENDBRANCH  20  21
ENDBRANCH  19  20
ENDBRANCH  18  19
ENDBRANCH   1  18
TORSDOF 8
ENDMDL
MODEL 8
REMARK VINA RESULT:     -12.0      3.337      6.321
REMARK  Name = 71360
REMARK  8 active torsions:
REMARK  status: ('A' for Active; 'I' for Inactive)
REMARK    1  A    between atoms: N_1  and  C_18
REMARK    2  A    between atoms: C_2  and  C_11
REMARK    3  A    between atoms: C_18  and  C_19
REMARK    4  A    between atoms: C_19  and  C_20
REMARK    5  A    between atoms: C_20  and  O_21
REMARK    6  A    between atoms: O_21  and  C_22
REMARK    7  A    between atoms: C_23  and  O_31
REMARK    8  A    between atoms: C_27  and  C_29
REMARK                            x       y       z     vdW  Elec       q    Type
REMARK                         _______ _______ _______ _____ _____    ______ ____
ROOT
ATOM      1  N   UNL     1      31.582 -11.995 -21.954  0.00  0.00    +0.387 N 
ATOM      2  C   UNL     1      33.717 -13.904 -22.590  0.00  0.00    +0.039 C 
ATOM      3  C   UNL     1      33.178 -12.896 -23.617  0.00  0.00    -0.017 C 
ATOM      4  C   UNL     1      32.642 -14.190 -21.527  0.00  0.00    -0.017 C 
ATOM      5  C   UNL     1      32.623 -11.645 -22.930  0.00  0.00    -0.077 C 
ATOM      6  C   UNL     1      32.107 -12.893 -20.915  0.00  0.00    -0.077 C 
ATOM      7  H   UNL     1      30.838 -12.488 -22.449  0.00  0.00    -0.080 HD
ENDROOT
BRANCH   2  11
ATOM      8  F   UNL     1      36.522 -19.984 -21.965  0.00  0.00    -0.204 F 
ATOM      9  O   UNL     1      34.773 -16.530 -24.819  0.00  0.00    -0.354 OA
ATOM     10  N   UNL     1      34.221 -15.282 -24.558  0.00  0.00    -0.081 NA
ATOM     11  C   UNL     1      34.251 -15.164 -23.233  0.00  0.00    +0.100 A 
ATOM     12  C   UNL     1      34.800 -16.285 -22.593  0.00  0.00    +0.054 A 
ATOM     13  C   UNL     1      35.119 -17.127 -23.645  0.00  0.00    +0.179 A 
ATOM     14  C   UNL     1      35.072 -16.701 -21.282  0.00  0.00    +0.007 C 
ATOM     15  C   UNL     1      35.698 -18.383 -23.497  0.00  0.00    +0.070 C 
ATOM     16  C   UNL     1      35.657 -17.963 -21.095  0.00  0.00    +0.030 C 
ATOM     17  C   UNL     1      35.964 -18.786 -22.184  0.00  0.00    +0.143 C 
ENDBRANCH   2  11
BRANCH   1  18
ATOM     18  C   UNL     1      31.022 -10.786 -21.348  0.00  0.00    -0.074 C 
BRANCH  18  19
ATOM     19  C   UNL     1      31.723 -10.482 -20.029  0.00  0.00    +0.025 C 
BRANCH  19  20
ATOM     20  C   UNL     1      31.864  -8.984 -19.803  0.00  0.00    +0.203 C 
BRANCH  20  21
ATOM     21  O   UNL     1      32.898  -8.487 -20.641  0.00  0.00    -0.472 OA
BRANCH  21  22
ATOM     22  C   UNL     1      32.563  -7.478 -21.505  0.00  0.00    +0.172 C 
ATOM     23  C   UNL     1      33.138  -7.420 -22.771  0.00  0.00    +0.172 C 
ATOM     24  C   UNL     1      31.644  -6.515 -21.101  0.00  0.00    +0.040 C 
ATOM     25  C   UNL     1      32.789  -6.387 -23.641  0.00  0.00    +0.043 C 
ATOM     26  C   UNL     1      31.295  -5.483 -21.972  0.00  0.00    +0.006 C 
ATOM     27  C   UNL     1      31.868  -5.418 -23.241  0.00  0.00    +0.038 C 
BRANCH  27  29
ATOM     28  O   UNL     1      30.606  -3.525 -23.863  0.00  0.00    -0.291 OA
ATOM     29  C   UNL     1      31.504  -4.342 -24.150  0.00  0.00    +0.174 C 
ATOM     30  C   UNL     1      32.221  -4.189 -25.486  0.00  0.00    +0.077 C 
ENDBRANCH  27  29
BRANCH  23  31
ATOM     31  O   UNL     1      34.038  -8.360 -23.173  0.00  0.00    -0.468 OA
ATOM     32  C   UNL     1      35.212  -7.892 -23.834  0.00  0.00    +0.253 C 
ENDBRANCH  23  31
ENDBRANCH  21  22
ENDBRANCH  20  21
ENDBRANCH  19  20
ENDBRANCH  18  19
ENDBRANCH   1  18
TORSDOF 8
ENDMDL
MODEL 9
REMARK VINA RESULT:     -12.0      3.597      9.642
REMARK  Name = 71360
REMARK  8 active torsions:
REMARK  status: ('A' for Active; 'I' for Inactive)
REMARK    1  A    between atoms: N_1  and  C_18
REMARK    2  A    between atoms: C_2  and  C_11
REMARK    3  A    between atoms: C_18  and  C_19
REMARK    4  A    between atoms: C_19  and  C_20
REMARK    5  A    between atoms: C_20  and  O_21
REMARK    6  A    between atoms: O_21  and  C_22
REMARK    7  A    between atoms: C_23  and  O_31
REMARK    8  A    between atoms: C_27  and  C_29
REMARK                            x       y       z     vdW  Elec       q    Type
REMARK                         _______ _______ _______ _____ _____    ______ ____
ROOT
ATOM      1  N   UNL     1      34.213 -16.307 -24.208  0.00  0.00    +0.387 N 
ATOM      2  C   UNL     1      33.637 -13.600 -23.235  0.00  0.00    +0.039 C 
ATOM      3  C   UNL     1      34.243 -14.689 -22.336  0.00  0.00    -0.017 C 
ATOM      4  C   UNL     1      32.845 -14.251 -24.381  0.00  0.00    -0.017 C 
ATOM      5  C   UNL     1      35.042 -15.705 -23.156  0.00  0.00    -0.077 C 
ATOM      6  C   UNL     1      33.695 -15.282 -25.127  0.00  0.00    -0.077 C 
ATOM      7  H   UNL     1      33.416 -16.760 -23.761  0.00  0.00    -0.080 HD
ENDROOT
BRANCH   2  11
ATOM      8  F   UNL     1      31.647  -7.243 -22.308  0.00  0.00    -0.204 F 
ATOM      9  O   UNL     1      31.464 -11.854 -20.951  0.00  0.00    -0.354 OA
ATOM     10  N   UNL     1      32.078 -13.003 -21.435  0.00  0.00    -0.081 NA
ATOM     11  C   UNL     1      32.819 -12.591 -22.460  0.00  0.00    +0.100 A 
ATOM     12  C   UNL     1      32.728 -11.210 -22.685  0.00  0.00    +0.054 A 
ATOM     13  C   UNL     1      31.855 -10.785 -21.698  0.00  0.00    +0.179 A 
ATOM     14  C   UNL     1      33.259 -10.266 -23.577  0.00  0.00    +0.007 C 
ATOM     15  C   UNL     1      31.452  -9.465 -21.522  0.00  0.00    +0.070 C 
ATOM     16  C   UNL     1      32.876  -8.925 -23.428  0.00  0.00    +0.030 C 
ATOM     17  C   UNL     1      31.989  -8.534 -22.419  0.00  0.00    +0.143 C 
ENDBRANCH   2  11
BRANCH   1  18
ATOM     18  C   UNL     1      34.974 -17.316 -24.945  0.00  0.00    -0.074 C 
BRANCH  18  19
ATOM     19  C   UNL     1      34.328 -18.687 -24.784  0.00  0.00    +0.025 C 
BRANCH  19  20
ATOM     20  C   UNL     1      34.992 -19.492 -23.675  0.00  0.00    +0.203 C 
BRANCH  20  21
ATOM     21  O   UNL     1      34.576 -18.975 -22.419  0.00  0.00    -0.472 OA
BRANCH  21  22
ATOM     22  C   UNL     1      34.518 -19.860 -21.374  0.00  0.00    +0.172 C 
ATOM     23  C   UNL     1      35.689 -20.321 -20.782  0.00  0.00    +0.172 C 
ATOM     24  C   UNL     1      33.277 -20.290 -20.918  0.00  0.00    +0.040 C 
ATOM     25  C   UNL     1      35.617 -21.222 -19.719  0.00  0.00    +0.043 C 
ATOM     26  C   UNL     1      33.205 -21.191 -19.855  0.00  0.00    +0.006 C 
ATOM     27  C   UNL     1      34.375 -21.657 -19.256  0.00  0.00    +0.038 C 
BRANCH  27  29
ATOM     28  O   UNL     1      35.325 -22.972 -17.543  0.00  0.00    -0.291 OA
ATOM     29  C   UNL     1      34.301 -22.596 -18.148  0.00  0.00    +0.174 C 
ATOM     30  C   UNL     1      32.952 -23.145 -17.696  0.00  0.00    +0.077 C 
ENDBRANCH  27  29
BRANCH  23  31
ATOM     31  O   UNL     1      36.907 -19.903 -21.225  0.00  0.00    -0.468 OA
ATOM     32  C   UNL     1      37.450 -18.731 -20.619  0.00  0.00    +0.253 C 
ENDBRANCH  23  31
ENDBRANCH  21  22
ENDBRANCH  20  21
ENDBRANCH  19  20
ENDBRANCH  18  19
ENDBRANCH   1  18
TORSDOF 8
ENDMDL
