MODEL 1
REMARK VINA RESULT:     -13.9      0.000      0.000
REMARK  Name = 5287728
REMARK  9 active torsions:
REMARK  status: ('A' for Active; 'I' for Inactive)
REMARK    1  A    between atoms: S_1  and  N_4
REMARK    2  A    between atoms: S_1  and  N_22
REMARK    3  A    between atoms: C_5  and  N_10
REMARK    4  A    between atoms: N_10  and  C_13
REMARK    5  A    between atoms: C_13  and  C_14
REMARK    6  A    between atoms: C_15  and  O_20
REMARK    7  A    between atoms: N_22  and  C_24
REMARK    8  A    between atoms: C_27  and  O_30
REMARK    9  A    between atoms: O_30  and  C_32
REMARK                            x       y       z     vdW  Elec       q    Type
REMARK                         _______ _______ _______ _____ _____    ______ ____
ROOT
ATOM      1  S   UNL     1      33.314 -13.674 -23.785  0.00  0.00    +0.113 S 
ATOM      2  O   UNL     1      34.283 -12.615 -23.569  0.00  0.00    -0.138 OA
ATOM      3  O   UNL     1      32.740 -13.878 -25.103  0.00  0.00    -0.138 OA
ENDROOT
BRANCH   1   4
ATOM      4  N   UNL     1      34.014 -15.149 -23.261  0.00  0.00    -0.143 NA
ATOM      5  C   UNL     1      35.784 -17.301 -22.425  0.00  0.00    -0.059 C 
ATOM      6  C   UNL     1      35.141 -17.272 -23.816  0.00  0.00    -0.002 C 
ATOM      7  C   UNL     1      34.915 -16.529 -21.425  0.00  0.00    -0.002 C 
ATOM      8  C   UNL     1      34.875 -15.838 -24.268  0.00  0.00    +0.095 C 
ATOM      9  C   UNL     1      34.651 -15.107 -21.911  0.00  0.00    +0.095 C 
BRANCH   5  10
ATOM     10  N   UNL     1      35.955 -18.681 -21.981  0.00  0.00    +0.388 N 
ATOM     11  H   UNL     1      36.488 -18.689 -21.111  0.00  0.00    -0.084 HD
ATOM     12  H   UNL     1      36.450 -19.200 -22.706  0.00  0.00    -0.084 HD
BRANCH  10  13
ATOM     13  C   UNL     1      34.663 -19.313 -21.754  0.00  0.00    -0.051 C 
BRANCH  13  14
ATOM     14  C   UNL     1      34.738 -20.374 -20.689  0.00  0.00    -0.010 C 
ATOM     15  C   UNL     1      33.579 -20.978 -20.217  0.00  0.00    +0.128 C 
ATOM     16  C   UNL     1      35.983 -20.735 -20.189  0.00  0.00    -0.003 C 
ATOM     17  C   UNL     1      33.667 -21.959 -19.230  0.00  0.00    +0.036 C 
ATOM     18  C   UNL     1      36.070 -21.715 -19.200  0.00  0.00    -0.000 C 
ATOM     19  C   UNL     1      34.913 -22.327 -18.722  0.00  0.00    +0.003 C 
BRANCH  15  20
ATOM     20  O   UNL     1      32.355 -20.630 -20.703  0.00  0.00    -0.506 OA
ATOM     21  H   UNL     1      32.018 -21.050 -21.470  0.00  0.00    +0.292 HD
ENDBRANCH  15  20
ENDBRANCH  13  14
ENDBRANCH  10  13
ENDBRANCH   5  10
ENDBRANCH   1   4
BRANCH   1  22
ATOM     22  N   UNL     1      32.060 -13.481 -22.615  0.00  0.00    -0.205 N 
ATOM     23  H   UNL     1      31.426 -14.207 -22.414  0.00  0.00    +0.175 HD
BRANCH  22  24
ATOM     24  C   UNL     1      31.985 -12.208 -21.947  0.00  0.00    +0.069 C 
ATOM     25  C   UNL     1      31.708 -11.062 -22.683  0.00  0.00    +0.053 C 
ATOM     26  C   UNL     1      32.191 -12.140 -20.575  0.00  0.00    +0.016 C 
ATOM     27  C   UNL     1      31.637  -9.829 -22.035  0.00  0.00    +0.147 C 
ATOM     28  C   UNL     1      32.119 -10.907 -19.928  0.00  0.00    +0.004 C 
ATOM     29  C   UNL     1      31.841  -9.752 -20.658  0.00  0.00    +0.038 C 
BRANCH  27  30
ATOM     30  O   UNL     1      31.367  -8.701 -22.748  0.00  0.00    -0.453 OA
BRANCH  30  32
ATOM     31  F   UNL     1      35.618  -5.939 -24.858  0.00  0.00    -0.204 F 
ATOM     32  C   UNL     1      32.440  -8.005 -23.281  0.00  0.00    +0.145 C 
ATOM     33  C   UNL     1      33.719  -8.501 -23.105  0.00  0.00    +0.040 C 
ATOM     34  C   UNL     1      32.203  -6.832 -23.973  0.00  0.00    +0.040 C 
ATOM     35  C   UNL     1      34.798  -7.799 -23.642  0.00  0.00    +0.033 C 
ATOM     36  C   UNL     1      33.283  -6.129 -24.509  0.00  0.00    +0.033 C 
ATOM     37  C   UNL     1      34.580  -6.613 -24.343  0.00  0.00    +0.140 C 
ENDBRANCH  30  32
ENDBRANCH  27  30
ENDBRANCH  22  24
ENDBRANCH   1  22
TORSDOF 9
ENDMDL
MODEL 2
REMARK VINA RESULT:     -13.9      3.616      6.490
REMARK  Name = 5287728
REMARK  9 active torsions:
REMARK  status: ('A' for Active; 'I' for Inactive)
REMARK    1  A    between atoms: S_1  and  N_4
REMARK    2  A    between atoms: S_1  and  N_22
REMARK    3  A    between atoms: C_5  and  N_10
REMARK    4  A    between atoms: N_10  and  C_13
REMARK    5  A    between atoms: C_13  and  C_14
REMARK    6  A    between atoms: C_15  and  O_20
REMARK    7  A    between atoms: N_22  and  C_24
REMARK    8  A    between atoms: C_27  and  O_30
REMARK    9  A    between atoms: O_30  and  C_32
REMARK                            x       y       z     vdW  Elec       q    Type
REMARK                         _______ _______ _______ _____ _____    ______ ____
ROOT
ATOM      1  S   UNL     1      36.250 -18.766 -21.290  0.00  0.00    +0.113 S 
ATOM      2  O   UNL     1      35.679 -17.492 -20.891  0.00  0.00    -0.138 OA
ATOM      3  O   UNL     1      37.684 -18.978 -21.211  0.00  0.00    -0.138 OA
ENDROOT
BRANCH   1   4
ATOM      4  N   UNL     1      35.466 -20.002 -20.397  0.00  0.00    -0.143 NA
ATOM      5  C   UNL     1      34.221 -22.456 -19.456  0.00  0.00    -0.059 C 
ATOM      6  C   UNL     1      33.396 -21.223 -19.837  0.00  0.00    -0.002 C 
ATOM      7  C   UNL     1      35.626 -22.037 -19.011  0.00  0.00    -0.002 C 
ATOM      8  C   UNL     1      34.114 -20.389 -20.897  0.00  0.00    +0.095 C 
ATOM      9  C   UNL     1      36.311 -21.192 -20.081  0.00  0.00    +0.095 C 
BRANCH   5  10
ATOM     10  N   UNL     1      33.554 -23.193 -18.385  0.00  0.00    +0.388 N 
ATOM     11  H   UNL     1      34.208 -23.326 -17.613  0.00  0.00    -0.084 HD
ATOM     12  H   UNL     1      33.247 -24.095 -18.749  0.00  0.00    -0.084 HD
BRANCH  10  13
ATOM     13  C   UNL     1      32.391 -22.463 -17.904  0.00  0.00    -0.051 C 
BRANCH  13  14
ATOM     14  C   UNL     1      31.876 -23.022 -16.605  0.00  0.00    -0.010 C 
ATOM     15  C   UNL     1      30.512 -23.048 -16.344  0.00  0.00    +0.128 C 
ATOM     16  C   UNL     1      32.788 -23.510 -15.678  0.00  0.00    -0.003 C 
ATOM     17  C   UNL     1      30.052 -23.570 -15.135  0.00  0.00    +0.036 C 
ATOM     18  C   UNL     1      32.328 -24.031 -14.468  0.00  0.00    -0.000 C 
ATOM     19  C   UNL     1      30.961 -24.061 -14.197  0.00  0.00    +0.003 C 
BRANCH  15  20
ATOM     20  O   UNL     1      29.611 -22.573 -17.249  0.00  0.00    -0.506 OA
ATOM     21  H   UNL     1      29.870 -22.435 -18.140  0.00  0.00    +0.292 HD
ENDBRANCH  15  20
ENDBRANCH  13  14
ENDBRANCH  10  13
ENDBRANCH   5  10
ENDBRANCH   1   4
BRANCH   1  22
ATOM     22  N   UNL     1      35.686 -19.115 -22.883  0.00  0.00    -0.205 N 
ATOM     23  H   UNL     1      35.731 -20.025 -23.259  0.00  0.00    +0.175 HD
BRANCH  22  24
ATOM     24  C   UNL     1      35.148 -18.014 -23.638  0.00  0.00    +0.069 C 
ATOM     25  C   UNL     1      35.379 -16.712 -23.211  0.00  0.00    +0.053 C 
ATOM     26  C   UNL     1      34.403 -18.266 -24.783  0.00  0.00    +0.016 C 
ATOM     27  C   UNL     1      34.856 -15.645 -23.943  0.00  0.00    +0.147 C 
ATOM     28  C   UNL     1      33.880 -17.199 -25.513  0.00  0.00    +0.004 C 
ATOM     29  C   UNL     1      34.107 -15.889 -25.094  0.00  0.00    +0.038 C 
BRANCH  27  30
ATOM     30  O   UNL     1      35.077 -14.366 -23.532  0.00  0.00    -0.453 OA
BRANCH  30  32
ATOM     31  F   UNL     1      30.907 -11.691 -21.165  0.00  0.00    -0.204 F 
ATOM     32  C   UNL     1      34.025 -13.691 -22.935  0.00  0.00    +0.145 C 
ATOM     33  C   UNL     1      33.430 -14.232 -21.809  0.00  0.00    +0.040 C 
ATOM     34  C   UNL     1      33.598 -12.494 -23.479  0.00  0.00    +0.040 C 
ATOM     35  C   UNL     1      32.371 -13.552 -21.208  0.00  0.00    +0.033 C 
ATOM     36  C   UNL     1      32.538 -11.815 -22.879  0.00  0.00    +0.033 C 
ATOM     37  C   UNL     1      31.925 -12.344 -21.743  0.00  0.00    +0.140 C 
ENDBRANCH  30  32
ENDBRANCH  27  30
ENDBRANCH  22  24
ENDBRANCH   1  22
TORSDOF 9
ENDMDL
MODEL 3
REMARK VINA RESULT:     -13.3      3.567     11.226
REMARK  Name = 5287728
REMARK  9 active torsions:
REMARK  status: ('A' for Active; 'I' for Inactive)
REMARK    1  A    between atoms: S_1  and  N_4
REMARK    2  A    between atoms: S_1  and  N_22
REMARK    3  A    between atoms: C_5  and  N_10
REMARK    4  A    between atoms: N_10  and  C_13
REMARK    5  A    between atoms: C_13  and  C_14
REMARK    6  A    between atoms: C_15  and  O_20
REMARK    7  A    between atoms: N_22  and  C_24
REMARK    8  A    between atoms: C_27  and  O_30
REMARK    9  A    between atoms: O_30  and  C_32
REMARK                            x       y       z     vdW  Elec       q    Type
REMARK                         _______ _______ _______ _____ _____    ______ ____
ROOT
ATOM      1  S   UNL     1      33.728 -14.446 -21.576  0.00  0.00    +0.113 S 
ATOM      2  O   UNL     1      34.838 -14.388 -20.642  0.00  0.00    -0.138 OA
ATOM      3  O   UNL     1      32.588 -15.301 -21.300  0.00  0.00    -0.138 OA
ENDROOT
BRANCH   1   4
ATOM      4  N   UNL     1      33.162 -12.847 -21.829  0.00  0.00    -0.143 NA
ATOM      5  C   UNL     1      31.663 -10.454 -22.525  0.00  0.00    -0.059 C 
ATOM      6  C   UNL     1      32.879 -10.915 -23.336  0.00  0.00    -0.002 C 
ATOM      7  C   UNL     1      31.771 -10.952 -21.079  0.00  0.00    -0.002 C 
ATOM      8  C   UNL     1      33.048 -12.430 -23.257  0.00  0.00    +0.095 C 
ATOM      9  C   UNL     1      31.957 -12.466 -21.034  0.00  0.00    +0.095 C 
BRANCH   5  10
ATOM     10  N   UNL     1      31.569  -8.997 -22.548  0.00  0.00    +0.388 N 
ATOM     11  H   UNL     1      30.840  -8.699 -21.899  0.00  0.00    -0.084 HD
ATOM     12  H   UNL     1      31.344  -8.698 -23.496  0.00  0.00    -0.084 HD
BRANCH  10  13
ATOM     13  C   UNL     1      32.833  -8.392 -22.155  0.00  0.00    -0.051 C 
BRANCH  13  14
ATOM     14  C   UNL     1      33.374  -7.480 -23.223  0.00  0.00    -0.010 C 
ATOM     15  C   UNL     1      32.562  -6.505 -23.790  0.00  0.00    +0.128 C 
ATOM     16  C   UNL     1      34.694  -7.632 -23.629  0.00  0.00    -0.003 C 
ATOM     17  C   UNL     1      33.079  -5.669 -24.778  0.00  0.00    +0.036 C 
ATOM     18  C   UNL     1      35.210  -6.795 -24.619  0.00  0.00    -0.000 C 
ATOM     19  C   UNL     1      34.403  -5.814 -25.193  0.00  0.00    +0.003 C 
BRANCH  15  20
ATOM     20  O   UNL     1      31.267  -6.350 -23.396  0.00  0.00    -0.506 OA
ATOM     21  H   UNL     1      30.804  -7.069 -23.012  0.00  0.00    +0.292 HD
ENDBRANCH  15  20
ENDBRANCH  13  14
ENDBRANCH  10  13
ENDBRANCH   5  10
ENDBRANCH   1   4
BRANCH   1  22
ATOM     22  N   UNL     1      34.375 -14.807 -23.135  0.00  0.00    -0.205 N 
ATOM     23  H   UNL     1      34.529 -14.103 -23.806  0.00  0.00    +0.175 HD
BRANCH  22  24
ATOM     24  C   UNL     1      34.680 -16.187 -23.408  0.00  0.00    +0.069 C 
ATOM     25  C   UNL     1      35.294 -16.961 -22.431  0.00  0.00    +0.053 C 
ATOM     26  C   UNL     1      34.356 -16.729 -24.646  0.00  0.00    +0.016 C 
ATOM     27  C   UNL     1      35.590 -18.298 -22.697  0.00  0.00    +0.147 C 
ATOM     28  C   UNL     1      34.652 -18.066 -24.911  0.00  0.00    +0.004 C 
ATOM     29  C   UNL     1      35.268 -18.850 -23.936  0.00  0.00    +0.038 C 
BRANCH  27  30
ATOM     30  O   UNL     1      36.193 -19.063 -21.746  0.00  0.00    -0.453 OA
BRANCH  30  32
ATOM     31  F   UNL     1      33.030 -22.475 -18.831  0.00  0.00    -0.204 F 
ATOM     32  C   UNL     1      35.395 -19.923 -21.010  0.00  0.00    +0.145 C 
ATOM     33  C   UNL     1      35.994 -20.900 -20.235  0.00  0.00    +0.040 C 
ATOM     34  C   UNL     1      34.021 -19.783 -21.069  0.00  0.00    +0.040 C 
ATOM     35  C   UNL     1      35.190 -21.767 -19.495  0.00  0.00    +0.033 C 
ATOM     36  C   UNL     1      33.217 -20.650 -20.330  0.00  0.00    +0.033 C 
ATOM     37  C   UNL     1      33.802 -21.642 -19.542  0.00  0.00    +0.140 C 
ENDBRANCH  30  32
ENDBRANCH  27  30
ENDBRANCH  22  24
ENDBRANCH   1  22
TORSDOF 9
ENDMDL
MODEL 4
REMARK VINA RESULT:     -13.0      6.349     13.455
REMARK  Name = 5287728
REMARK  9 active torsions:
REMARK  status: ('A' for Active; 'I' for Inactive)
REMARK    1  A    between atoms: S_1  and  N_4
REMARK    2  A    between atoms: S_1  and  N_22
REMARK    3  A    between atoms: C_5  and  N_10
REMARK    4  A    between atoms: N_10  and  C_13
REMARK    5  A    between atoms: C_13  and  C_14
REMARK    6  A    between atoms: C_15  and  O_20
REMARK    7  A    between atoms: N_22  and  C_24
REMARK    8  A    between atoms: C_27  and  O_30
REMARK    9  A    between atoms: O_30  and  C_32
REMARK                            x       y       z     vdW  Elec       q    Type
REMARK                         _______ _______ _______ _____ _____    ______ ____
ROOT
ATOM      1  S   UNL     1      33.672 -22.761 -18.591  0.00  0.00    +0.113 S 
ATOM      2  O   UNL     1      32.313 -22.376 -18.253  0.00  0.00    -0.138 OA
ATOM      3  O   UNL     1      33.923 -24.011 -19.285  0.00  0.00    -0.138 OA
ENDROOT
BRANCH   1   4
ATOM      4  N   UNL     1      34.376 -21.485 -19.496  0.00  0.00    -0.143 NA
ATOM      5  C   UNL     1      35.523 -19.768 -21.543  0.00  0.00    -0.059 C 
ATOM      6  C   UNL     1      36.387 -20.441 -20.472  0.00  0.00    -0.002 C 
ATOM      7  C   UNL     1      34.095 -19.568 -21.024  0.00  0.00    -0.002 C 
ATOM      8  C   UNL     1      35.755 -21.750 -20.001  0.00  0.00    +0.095 C 
ATOM      9  C   UNL     1      33.497 -20.888 -20.545  0.00  0.00    +0.095 C 
BRANCH   5  10
ATOM     10  N   UNL     1      36.104 -18.481 -21.918  0.00  0.00    +0.388 N 
ATOM     11  H   UNL     1      37.112 -18.510 -21.762  0.00  0.00    -0.084 HD
ATOM     12  H   UNL     1      35.678 -17.750 -21.349  0.00  0.00    -0.084 HD
BRANCH  10  13
ATOM     13  C   UNL     1      35.847 -18.189 -23.321  0.00  0.00    -0.051 C 
BRANCH  13  14
ATOM     14  C   UNL     1      35.116 -16.885 -23.497  0.00  0.00    -0.010 C 
ATOM     15  C   UNL     1      34.676 -16.492 -24.755  0.00  0.00    +0.128 C 
ATOM     16  C   UNL     1      34.892 -16.087 -22.382  0.00  0.00    -0.003 C 
ATOM     17  C   UNL     1      34.001 -15.281 -24.900  0.00  0.00    +0.036 C 
ATOM     18  C   UNL     1      34.217 -14.875 -22.528  0.00  0.00    -0.000 C 
ATOM     19  C   UNL     1      33.771 -14.473 -23.786  0.00  0.00    +0.003 C 
BRANCH  15  20
ATOM     20  O   UNL     1      34.892 -17.270 -25.852  0.00  0.00    -0.506 OA
ATOM     21  H   UNL     1      34.291 -17.957 -26.066  0.00  0.00    +0.292 HD
ENDBRANCH  15  20
ENDBRANCH  13  14
ENDBRANCH  10  13
ENDBRANCH   5  10
ENDBRANCH   1   4
BRANCH   1  22
ATOM     22  N   UNL     1      34.611 -22.686 -17.146  0.00  0.00    -0.205 N 
ATOM     23  H   UNL     1      35.488 -22.238 -17.122  0.00  0.00    +0.175 HD
BRANCH  22  24
ATOM     24  C   UNL     1      34.052 -23.309 -15.974  0.00  0.00    +0.069 C 
ATOM     25  C   UNL     1      34.880 -23.623 -14.903  0.00  0.00    +0.053 C 
ATOM     26  C   UNL     1      32.692 -23.590 -15.930  0.00  0.00    +0.016 C 
ATOM     27  C   UNL     1      34.337 -24.228 -13.769  0.00  0.00    +0.147 C 
ATOM     28  C   UNL     1      32.151 -24.194 -14.796  0.00  0.00    +0.004 C 
ATOM     29  C   UNL     1      32.973 -24.513 -13.716  0.00  0.00    +0.038 C 
BRANCH  27  30
ATOM     30  O   UNL     1      35.140 -24.540 -12.716  0.00  0.00    -0.453 OA
BRANCH  30  32
ATOM     31  F   UNL     1      40.340 -25.936 -13.793  0.00  0.00    -0.204 F 
ATOM     32  C   UNL     1      36.452 -24.892 -12.988  0.00  0.00    +0.145 C 
ATOM     33  C   UNL     1      36.702 -25.959 -13.832  0.00  0.00    +0.040 C 
ATOM     34  C   UNL     1      37.477 -24.168 -12.408  0.00  0.00    +0.040 C 
ATOM     35  C   UNL     1      38.022 -26.313 -14.106  0.00  0.00    +0.033 C 
ATOM     36  C   UNL     1      38.798 -24.523 -12.681  0.00  0.00    +0.033 C 
ATOM     37  C   UNL     1      39.071 -25.596 -13.530  0.00  0.00    +0.140 C 
ENDBRANCH  30  32
ENDBRANCH  27  30
ENDBRANCH  22  24
ENDBRANCH   1  22
TORSDOF 9
ENDMDL
MODEL 5
REMARK VINA RESULT:     -13.0      1.551      1.976
REMARK  Name = 5287728
REMARK  9 active torsions:
REMARK  status: ('A' for Active; 'I' for Inactive)
REMARK    1  A    between atoms: S_1  and  N_4
REMARK    2  A    between atoms: S_1  and  N_22
REMARK    3  A    between atoms: C_5  and  N_10
REMARK    4  A    between atoms: N_10  and  C_13
REMARK    5  A    between atoms: C_13  and  C_14
REMARK    6  A    between atoms: C_15  and  O_20
REMARK    7  A    between atoms: N_22  and  C_24
REMARK    8  A    between atoms: C_27  and  O_30
REMARK    9  A    between atoms: O_30  and  C_32
REMARK                            x       y       z     vdW  Elec       q    Type
REMARK                         _______ _______ _______ _____ _____    ______ ____
ROOT
ATOM      1  S   UNL     1      33.684 -14.302 -25.389  0.00  0.00    +0.113 S 
ATOM      2  O   UNL     1      34.490 -14.189 -26.591  0.00  0.00    -0.138 OA
ATOM      3  O   UNL     1      32.237 -14.219 -25.472  0.00  0.00    -0.138 OA
ENDROOT
BRANCH   1   4
ATOM      4  N   UNL     1      34.101 -15.770 -24.605  0.00  0.00    -0.143 NA
ATOM      5  C   UNL     1      35.372 -18.206 -23.655  0.00  0.00    -0.059 C 
ATOM      6  C   UNL     1      34.198 -18.234 -24.640  0.00  0.00    -0.002 C 
ATOM      7  C   UNL     1      35.318 -16.934 -22.802  0.00  0.00    -0.002 C 
ATOM      8  C   UNL     1      34.168 -16.968 -25.492  0.00  0.00    +0.095 C 
ATOM      9  C   UNL     1      35.270 -15.687 -23.681  0.00  0.00    +0.095 C 
BRANCH   5  10
ATOM     10  N   UNL     1      35.333 -19.387 -22.796  0.00  0.00    +0.388 N 
ATOM     11  H   UNL     1      36.285 -19.635 -22.525  0.00  0.00    -0.084 HD
ATOM     12  H   UNL     1      34.899 -20.153 -23.311  0.00  0.00    -0.084 HD
BRANCH  10  13
ATOM     13  C   UNL     1      34.549 -19.128 -21.598  0.00  0.00    -0.051 C 
BRANCH  13  14
ATOM     14  C   UNL     1      34.612 -20.277 -20.627  0.00  0.00    -0.010 C 
ATOM     15  C   UNL     1      35.827 -20.666 -20.079  0.00  0.00    +0.128 C 
ATOM     16  C   UNL     1      33.436 -20.936 -20.292  0.00  0.00    -0.003 C 
ATOM     17  C   UNL     1      35.868 -21.732 -19.181  0.00  0.00    +0.036 C 
ATOM     18  C   UNL     1      33.477 -22.004 -19.395  0.00  0.00    -0.000 C 
ATOM     19  C   UNL     1      34.692 -22.401 -18.840  0.00  0.00    +0.003 C 
BRANCH  15  20
ATOM     20  O   UNL     1      36.985 -20.023 -20.402  0.00  0.00    -0.506 OA
ATOM     21  H   UNL     1      37.662 -19.926 -19.762  0.00  0.00    +0.292 HD
ENDBRANCH  15  20
ENDBRANCH  13  14
ENDBRANCH  10  13
ENDBRANCH   5  10
ENDBRANCH   1   4
BRANCH   1  22
ATOM     22  N   UNL     1      34.279 -13.150 -24.250  0.00  0.00    -0.205 N 
ATOM     23  H   UNL     1      35.184 -12.769 -24.326  0.00  0.00    +0.175 HD
BRANCH  22  24
ATOM     24  C   UNL     1      33.389 -12.773 -23.183  0.00  0.00    +0.069 C 
ATOM     25  C   UNL     1      32.732 -11.549 -23.238  0.00  0.00    +0.053 C 
ATOM     26  C   UNL     1      33.198 -13.636 -22.111  0.00  0.00    +0.016 C 
ATOM     27  C   UNL     1      31.871 -11.184 -22.203  0.00  0.00    +0.147 C 
ATOM     28  C   UNL     1      32.337 -13.269 -21.077  0.00  0.00    +0.004 C 
ATOM     29  C   UNL     1      31.673 -12.044 -21.123  0.00  0.00    +0.038 C 
BRANCH  27  30
ATOM     30  O   UNL     1      31.224  -9.987 -22.248  0.00  0.00    -0.453 OA
BRANCH  30  32
ATOM     31  F   UNL     1      33.991  -5.661 -24.191  0.00  0.00    -0.204 F 
ATOM     32  C   UNL     1      31.922  -8.896 -22.738  0.00  0.00    +0.145 C 
ATOM     33  C   UNL     1      33.104  -8.520 -22.124  0.00  0.00    +0.040 C 
ATOM     34  C   UNL     1      31.420  -8.210 -23.829  0.00  0.00    +0.040 C 
ATOM     35  C   UNL     1      33.806  -7.422 -22.618  0.00  0.00    +0.033 C 
ATOM     36  C   UNL     1      32.122  -7.110 -24.322  0.00  0.00    +0.033 C 
ATOM     37  C   UNL     1      33.315  -6.717 -23.717  0.00  0.00    +0.140 C 
ENDBRANCH  30  32
ENDBRANCH  27  30
ENDBRANCH  22  24
ENDBRANCH   1  22
TORSDOF 9
ENDMDL
MODEL 6
REMARK VINA RESULT:     -12.9      5.767     12.770
REMARK  Name = 5287728
REMARK  9 active torsions:
REMARK  status: ('A' for Active; 'I' for Inactive)
REMARK    1  A    between atoms: S_1  and  N_4
REMARK    2  A    between atoms: S_1  and  N_22
REMARK    3  A    between atoms: C_5  and  N_10
REMARK    4  A    between atoms: N_10  and  C_13
REMARK    5  A    between atoms: C_13  and  C_14
REMARK    6  A    between atoms: C_15  and  O_20
REMARK    7  A    between atoms: N_22  and  C_24
REMARK    8  A    between atoms: C_27  and  O_30
REMARK    9  A    between atoms: O_30  and  C_32
REMARK                            x       y       z     vdW  Elec       q    Type
REMARK                         _______ _______ _______ _____ _____    ______ ____
ROOT
ATOM      1  S   UNL     1      33.851 -22.630 -18.551  0.00  0.00    +0.113 S 
ATOM      2  O   UNL     1      32.572 -22.314 -17.942  0.00  0.00    -0.138 OA
ATOM      3  O   UNL     1      34.024 -23.877 -19.275  0.00  0.00    -0.138 OA
ENDROOT
BRANCH   1   4
ATOM      4  N   UNL     1      34.282 -21.334 -19.587  0.00  0.00    -0.143 NA
ATOM      5  C   UNL     1      34.971 -19.614 -21.828  0.00  0.00    -0.059 C 
ATOM      6  C   UNL     1      36.024 -20.105 -20.829  0.00  0.00    -0.002 C 
ATOM      7  C   UNL     1      33.591 -19.566 -21.164  0.00  0.00    -0.002 C 
ATOM      8  C   UNL     1      35.624 -21.452 -20.230  0.00  0.00    +0.095 C 
ATOM      9  C   UNL     1      33.227 -20.919 -20.559  0.00  0.00    +0.095 C 
BRANCH   5  10
ATOM     10  N   UNL     1      35.334 -18.289 -22.327  0.00  0.00    +0.388 N 
ATOM     11  H   UNL     1      34.646 -17.992 -23.018  0.00  0.00    -0.084 HD
ATOM     12  H   UNL     1      36.262 -18.340 -22.748  0.00  0.00    -0.084 HD
BRANCH  10  13
ATOM     13  C   UNL     1      35.367 -17.321 -21.240  0.00  0.00    -0.051 C 
BRANCH  13  14
ATOM     14  C   UNL     1      34.622 -16.061 -21.591  0.00  0.00    -0.010 C 
ATOM     15  C   UNL     1      34.880 -15.403 -22.786  0.00  0.00    +0.128 C 
ATOM     16  C   UNL     1      33.676 -15.572 -20.698  0.00  0.00    -0.003 C 
ATOM     17  C   UNL     1      34.181 -14.236 -23.095  0.00  0.00    +0.036 C 
ATOM     18  C   UNL     1      32.978 -14.404 -21.007  0.00  0.00    -0.000 C 
ATOM     19  C   UNL     1      33.230 -13.737 -22.205  0.00  0.00    +0.003 C 
BRANCH  15  20
ATOM     20  O   UNL     1      35.806 -15.877 -23.667  0.00  0.00    -0.506 OA
ATOM     21  H   UNL     1      36.377 -15.282 -24.113  0.00  0.00    +0.292 HD
ENDBRANCH  15  20
ENDBRANCH  13  14
ENDBRANCH  10  13
ENDBRANCH   5  10
ENDBRANCH   1   4
BRANCH   1  22
ATOM     22  N   UNL     1      35.062 -22.481 -17.331  0.00  0.00    -0.205 N 
ATOM     23  H   UNL     1      35.839 -21.887 -17.444  0.00  0.00    +0.175 HD
BRANCH  22  24
ATOM     24  C   UNL     1      34.883 -23.268 -16.138  0.00  0.00    +0.069 C 
ATOM     25  C   UNL     1      33.690 -23.181 -15.432  0.00  0.00    +0.053 C 
ATOM     26  C   UNL     1      35.906 -24.104 -15.707  0.00  0.00    +0.016 C 
ATOM     27  C   UNL     1      33.517 -23.942 -14.276  0.00  0.00    +0.147 C 
ATOM     28  C   UNL     1      35.732 -24.865 -14.552  0.00  0.00    +0.004 C 
ATOM     29  C   UNL     1      34.538 -24.785 -13.836  0.00  0.00    +0.038 C 
BRANCH  27  30
ATOM     30  O   UNL     1      32.352 -23.863 -13.577  0.00  0.00    -0.453 OA
BRANCH  30  32
ATOM     31  F   UNL     1      27.654 -24.082 -16.409  0.00  0.00    -0.204 F 
ATOM     32  C   UNL     1      31.167 -23.918 -14.291  0.00  0.00    +0.145 C 
ATOM     33  C   UNL     1      30.601 -22.742 -14.750  0.00  0.00    +0.040 C 
ATOM     34  C   UNL     1      30.580 -25.148 -14.528  0.00  0.00    +0.040 C 
ATOM     35  C   UNL     1      29.408 -22.798 -15.470  0.00  0.00    +0.033 C 
ATOM     36  C   UNL     1      29.386 -25.204 -15.246  0.00  0.00    +0.033 C 
ATOM     37  C   UNL     1      28.800 -24.029 -15.718  0.00  0.00    +0.140 C 
ENDBRANCH  30  32
ENDBRANCH  27  30
ENDBRANCH  22  24
ENDBRANCH   1  22
TORSDOF 9
ENDMDL
MODEL 7
REMARK VINA RESULT:     -12.8      3.145      5.264
REMARK  Name = 5287728
REMARK  9 active torsions:
REMARK  status: ('A' for Active; 'I' for Inactive)
REMARK    1  A    between atoms: S_1  and  N_4
REMARK    2  A    between atoms: S_1  and  N_22
REMARK    3  A    between atoms: C_5  and  N_10
REMARK    4  A    between atoms: N_10  and  C_13
REMARK    5  A    between atoms: C_13  and  C_14
REMARK    6  A    between atoms: C_15  and  O_20
REMARK    7  A    between atoms: N_22  and  C_24
REMARK    8  A    between atoms: C_27  and  O_30
REMARK    9  A    between atoms: O_30  and  C_32
REMARK                            x       y       z     vdW  Elec       q    Type
REMARK                         _______ _______ _______ _____ _____    ______ ____
ROOT
ATOM      1  S   UNL     1      35.563 -18.314 -22.005  0.00  0.00    +0.113 S 
ATOM      2  O   UNL     1      36.985 -18.397 -22.285  0.00  0.00    -0.138 OA
ATOM      3  O   UNL     1      34.603 -18.371 -23.093  0.00  0.00    -0.138 OA
ENDROOT
BRANCH   1   4
ATOM      4  N   UNL     1      35.173 -19.537 -20.869  0.00  0.00    -0.143 NA
ATOM      5  C   UNL     1      34.574 -22.022 -19.483  0.00  0.00    -0.059 C 
ATOM      6  C   UNL     1      33.481 -21.009 -19.840  0.00  0.00    -0.002 C 
ATOM      7  C   UNL     1      35.925 -21.315 -19.331  0.00  0.00    -0.002 C 
ATOM      8  C   UNL     1      33.860 -20.212 -21.086  0.00  0.00    +0.095 C 
ATOM      9  C   UNL     1      36.266 -20.513 -20.584  0.00  0.00    +0.095 C 
BRANCH   5  10
ATOM     10  N   UNL     1      34.229 -22.715 -18.243  0.00  0.00    +0.388 N 
ATOM     11  H   UNL     1      34.585 -22.180 -17.451  0.00  0.00    -0.084 HD
ATOM     12  H   UNL     1      34.646 -23.645 -18.260  0.00  0.00    -0.084 HD
BRANCH  10  13
ATOM     13  C   UNL     1      32.785 -22.853 -18.115  0.00  0.00    -0.051 C 
BRANCH  13  14
ATOM     14  C   UNL     1      32.370 -23.084 -16.686  0.00  0.00    -0.010 C 
ATOM     15  C   UNL     1      31.046 -22.909 -16.304  0.00  0.00    +0.128 C 
ATOM     16  C   UNL     1      33.333 -23.473 -15.764  0.00  0.00    -0.003 C 
ATOM     17  C   UNL     1      30.678 -23.128 -14.977  0.00  0.00    +0.036 C 
ATOM     18  C   UNL     1      32.965 -23.691 -14.436  0.00  0.00    -0.000 C 
ATOM     19  C   UNL     1      31.638 -23.519 -14.043  0.00  0.00    +0.003 C 
BRANCH  15  20
ATOM     20  O   UNL     1      30.096 -22.528 -17.204  0.00  0.00    -0.506 OA
ATOM     21  H   UNL     1      30.350 -22.111 -18.004  0.00  0.00    +0.292 HD
ENDBRANCH  15  20
ENDBRANCH  13  14
ENDBRANCH  10  13
ENDBRANCH   5  10
ENDBRANCH   1   4
BRANCH   1  22
ATOM     22  N   UNL     1      35.299 -16.898 -21.055  0.00  0.00    -0.205 N 
ATOM     23  H   UNL     1      35.577 -16.850 -20.111  0.00  0.00    +0.175 HD
BRANCH  22  24
ATOM     24  C   UNL     1      34.654 -15.788 -21.708  0.00  0.00    +0.069 C 
ATOM     25  C   UNL     1      33.593 -15.147 -21.081  0.00  0.00    +0.053 C 
ATOM     26  C   UNL     1      35.100 -15.373 -22.956  0.00  0.00    +0.016 C 
ATOM     27  C   UNL     1      32.968 -14.072 -21.715  0.00  0.00    +0.147 C 
ATOM     28  C   UNL     1      34.475 -14.299 -23.588  0.00  0.00    +0.004 C 
ATOM     29  C   UNL     1      33.409 -13.649 -22.968  0.00  0.00    +0.038 C 
BRANCH  27  30
ATOM     30  O   UNL     1      31.926 -13.439 -21.109  0.00  0.00    -0.453 OA
BRANCH  30  32
ATOM     31  F   UNL     1      31.898  -7.949 -21.162  0.00  0.00    -0.204 F 
ATOM     32  C   UNL     1      31.920 -12.054 -21.122  0.00  0.00    +0.145 C 
ATOM     33  C   UNL     1      32.115 -11.367 -19.937  0.00  0.00    +0.040 C 
ATOM     34  C   UNL     1      31.718 -11.393 -22.320  0.00  0.00    +0.040 C 
ATOM     35  C   UNL     1      32.108  -9.973 -19.951  0.00  0.00    +0.033 C 
ATOM     36  C   UNL     1      31.710  -9.998 -22.334  0.00  0.00    +0.033 C 
ATOM     37  C   UNL     1      31.905  -9.288 -21.149  0.00  0.00    +0.140 C 
ENDBRANCH  30  32
ENDBRANCH  27  30
ENDBRANCH  22  24
ENDBRANCH   1  22
TORSDOF 9
ENDMDL
MODEL 8
REMARK VINA RESULT:     -12.7      3.863     11.078
REMARK  Name = 5287728
REMARK  9 active torsions:
REMARK  status: ('A' for Active; 'I' for Inactive)
REMARK    1  A    between atoms: S_1  and  N_4
REMARK    2  A    between atoms: S_1  and  N_22
REMARK    3  A    between atoms: C_5  and  N_10
REMARK    4  A    between atoms: N_10  and  C_13
REMARK    5  A    between atoms: C_13  and  C_14
REMARK    6  A    between atoms: C_15  and  O_20
REMARK    7  A    between atoms: N_22  and  C_24
REMARK    8  A    between atoms: C_27  and  O_30
REMARK    9  A    between atoms: O_30  and  C_32
REMARK                            x       y       z     vdW  Elec       q    Type
REMARK                         _______ _______ _______ _____ _____    ______ ____
ROOT
ATOM      1  S   UNL     1      33.764 -15.092 -25.713  0.00  0.00    +0.113 S 
ATOM      2  O   UNL     1      32.738 -16.113 -25.604  0.00  0.00    -0.138 OA
ATOM      3  O   UNL     1      34.164 -14.598 -27.018  0.00  0.00    -0.138 OA
ENDROOT
BRANCH   1   4
ATOM      4  N   UNL     1      33.291 -13.757 -24.746  0.00  0.00    -0.143 NA
ATOM      5  C   UNL     1      33.060 -11.641 -22.765  0.00  0.00    -0.059 C 
ATOM      6  C   UNL     1      32.191 -12.901 -22.711  0.00  0.00    -0.002 C 
ATOM      7  C   UNL     1      33.493 -11.357 -24.208  0.00  0.00    -0.002 C 
ATOM      8  C   UNL     1      32.911 -14.091 -23.343  0.00  0.00    +0.095 C 
ATOM      9  C   UNL     1      34.193 -12.569 -24.817  0.00  0.00    +0.095 C 
BRANCH   5  10
ATOM     10  N   UNL     1      32.321 -10.500 -22.231  0.00  0.00    +0.388 N 
ATOM     11  H   UNL     1      32.418 -10.484 -21.215  0.00  0.00    -0.084 HD
ATOM     12  H   UNL     1      31.339 -10.593 -22.492  0.00  0.00    -0.084 HD
BRANCH  10  13
ATOM     13  C   UNL     1      32.833  -9.252 -22.778  0.00  0.00    -0.051 C 
BRANCH  13  14
ATOM     14  C   UNL     1      32.288  -8.054 -22.047  0.00  0.00    -0.010 C 
ATOM     15  C   UNL     1      32.432  -7.948 -20.669  0.00  0.00    +0.128 C 
ATOM     16  C   UNL     1      31.642  -7.062 -22.774  0.00  0.00    -0.003 C 
ATOM     17  C   UNL     1      31.921  -6.832 -20.007  0.00  0.00    +0.036 C 
ATOM     18  C   UNL     1      31.130  -5.946 -22.111  0.00  0.00    -0.000 C 
ATOM     19  C   UNL     1      31.270  -5.831 -20.729  0.00  0.00    +0.003 C 
BRANCH  15  20
ATOM     20  O   UNL     1      33.065  -8.917 -19.950  0.00  0.00    -0.506 OA
ATOM     21  H   UNL     1      32.854  -9.819 -20.092  0.00  0.00    +0.292 HD
ENDBRANCH  15  20
ENDBRANCH  13  14
ENDBRANCH  10  13
ENDBRANCH   5  10
ENDBRANCH   1   4
BRANCH   1  22
ATOM     22  N   UNL     1      35.147 -15.645 -24.841  0.00  0.00    -0.205 N 
ATOM     23  H   UNL     1      35.933 -15.070 -24.700  0.00  0.00    +0.175 HD
BRANCH  22  24
ATOM     24  C   UNL     1      35.096 -16.990 -24.328  0.00  0.00    +0.069 C 
ATOM     25  C   UNL     1      35.405 -17.228 -22.995  0.00  0.00    +0.053 C 
ATOM     26  C   UNL     1      34.738 -18.033 -25.173  0.00  0.00    +0.016 C 
ATOM     27  C   UNL     1      35.356 -18.531 -22.499  0.00  0.00    +0.147 C 
ATOM     28  C   UNL     1      34.689 -19.335 -24.677  0.00  0.00    +0.004 C 
ATOM     29  C   UNL     1      34.998 -19.584 -23.340  0.00  0.00    +0.038 C 
BRANCH  27  30
ATOM     30  O   UNL     1      35.659 -18.774 -21.194  0.00  0.00    -0.453 OA
BRANCH  30  32
ATOM     31  F   UNL     1      33.712 -23.384 -18.936  0.00  0.00    -0.204 F 
ATOM     32  C   UNL     1      35.168 -19.937 -20.625  0.00  0.00    +0.145 C 
ATOM     33  C   UNL     1      33.801 -20.148 -20.596  0.00  0.00    +0.040 C 
ATOM     34  C   UNL     1      36.057 -20.857 -20.100  0.00  0.00    +0.040 C 
ATOM     35  C   UNL     1      33.307 -21.319 -20.023  0.00  0.00    +0.033 C 
ATOM     36  C   UNL     1      35.563 -22.028 -19.525  0.00  0.00    +0.033 C 
ATOM     37  C   UNL     1      34.188 -22.259 -19.487  0.00  0.00    +0.140 C 
ENDBRANCH  30  32
ENDBRANCH  27  30
ENDBRANCH  22  24
ENDBRANCH   1  22
TORSDOF 9
ENDMDL
MODEL 9
REMARK VINA RESULT:     -12.7      4.546      8.058
REMARK  Name = 5287728
REMARK  9 active torsions:
REMARK  status: ('A' for Active; 'I' for Inactive)
REMARK    1  A    between atoms: S_1  and  N_4
REMARK    2  A    between atoms: S_1  and  N_22
REMARK    3  A    between atoms: C_5  and  N_10
REMARK    4  A    between atoms: N_10  and  C_13
REMARK    5  A    between atoms: C_13  and  C_14
REMARK    6  A    between atoms: C_15  and  O_20
REMARK    7  A    between atoms: N_22  and  C_24
REMARK    8  A    between atoms: C_27  and  O_30
REMARK    9  A    between atoms: O_30  and  C_32
REMARK                            x       y       z     vdW  Elec       q    Type
REMARK                         _______ _______ _______ _____ _____    ______ ____
ROOT
ATOM      1  S   UNL     1      36.201 -20.776 -20.185  0.00  0.00    +0.113 S 
ATOM      2  O   UNL     1      37.263 -19.818 -19.940  0.00  0.00    -0.138 OA
ATOM      3  O   UNL     1      36.389 -21.841 -21.153  0.00  0.00    -0.138 OA
ENDROOT
BRANCH   1   4
ATOM      4  N   UNL     1      35.762 -21.478 -18.683  0.00  0.00    -0.143 NA
ATOM      5  C   UNL     1      35.289 -23.229 -16.410  0.00  0.00    -0.059 C 
ATOM      6  C   UNL     1      34.159 -22.798 -17.351  0.00  0.00    -0.002 C 
ATOM      7  C   UNL     1      36.405 -22.178 -16.406  0.00  0.00    -0.002 C 
ATOM      8  C   UNL     1      34.692 -22.516 -18.754  0.00  0.00    +0.095 C 
ATOM      9  C   UNL     1      36.904 -21.905 -17.822  0.00  0.00    +0.095 C 
BRANCH   5  10
ATOM     10  N   UNL     1      34.770 -23.414 -15.056  0.00  0.00    +0.388 N 
ATOM     11  H   UNL     1      33.780 -23.167 -15.041  0.00  0.00    -0.084 HD
ATOM     12  H   UNL     1      35.295 -22.815 -14.419  0.00  0.00    -0.084 HD
BRANCH  10  13
ATOM     13  C   UNL     1      34.923 -24.797 -14.631  0.00  0.00    -0.051 C 
BRANCH  13  14
ATOM     14  C   UNL     1      36.344 -25.109 -14.242  0.00  0.00    -0.010 C 
ATOM     15  C   UNL     1      37.080 -26.040 -14.964  0.00  0.00    +0.128 C 
ATOM     16  C   UNL     1      36.901 -24.451 -13.153  0.00  0.00    -0.003 C 
ATOM     17  C   UNL     1      38.395 -26.318 -14.591  0.00  0.00    +0.036 C 
ATOM     18  C   UNL     1      38.216 -24.730 -12.779  0.00  0.00    -0.000 C 
ATOM     19  C   UNL     1      38.962 -25.662 -13.498  0.00  0.00    +0.003 C 
BRANCH  15  20
ATOM     20  O   UNL     1      36.540 -26.689 -16.034  0.00  0.00    -0.506 OA
ATOM     21  H   UNL     1      37.069 -27.270 -16.546  0.00  0.00    +0.292 HD
ENDBRANCH  15  20
ENDBRANCH  13  14
ENDBRANCH  10  13
ENDBRANCH   5  10
ENDBRANCH   1   4
BRANCH   1  22
ATOM     22  N   UNL     1      34.769 -19.886 -20.553  0.00  0.00    -0.205 N 
ATOM     23  H   UNL     1      33.956 -19.966 -20.004  0.00  0.00    +0.175 HD
BRANCH  22  24
ATOM     24  C   UNL     1      34.820 -19.020 -21.703  0.00  0.00    +0.069 C 
ATOM     25  C   UNL     1      35.088 -17.668 -21.532  0.00  0.00    +0.053 C 
ATOM     26  C   UNL     1      34.601 -19.548 -22.969  0.00  0.00    +0.016 C 
ATOM     27  C   UNL     1      35.136 -16.830 -22.646  0.00  0.00    +0.147 C 
ATOM     28  C   UNL     1      34.650 -18.710 -24.082  0.00  0.00    +0.004 C 
ATOM     29  C   UNL     1      34.918 -17.351 -23.921  0.00  0.00    +0.038 C 
BRANCH  27  30
ATOM     30  O   UNL     1      35.396 -15.503 -22.488  0.00  0.00    -0.453 OA
BRANCH  30  32
ATOM     31  F   UNL     1      31.151 -12.172 -21.472  0.00  0.00    -0.204 F 
ATOM     32  C   UNL     1      34.325 -14.663 -22.232  0.00  0.00    +0.145 C 
ATOM     33  C   UNL     1      33.898 -13.796 -23.221  0.00  0.00    +0.040 C 
ATOM     34  C   UNL     1      33.711 -14.713 -20.994  0.00  0.00    +0.040 C 
ATOM     35  C   UNL     1      32.819 -12.950 -22.963  0.00  0.00    +0.033 C 
ATOM     36  C   UNL     1      32.633 -13.867 -20.735  0.00  0.00    +0.033 C 
ATOM     37  C   UNL     1      32.188 -12.985 -21.720  0.00  0.00    +0.140 C 
ENDBRANCH  30  32
ENDBRANCH  27  30
ENDBRANCH  22  24
ENDBRANCH   1  22
TORSDOF 9
ENDMDL
