MODEL 1
REMARK VINA RESULT:     -13.1      0.000      0.000
REMARK  Name = 54766013
REMARK  5 active torsions:
REMARK  status: ('A' for Active; 'I' for Inactive)
REMARK    1  A    between atoms: C_3  and  C_11
REMARK    2  A    between atoms: C_4  and  C_18
REMARK    3  A    between atoms: C_5  and  C_24
REMARK    4  A    between atoms: C_24  and  N_25
REMARK    5  A    between atoms: N_25  and  C_28
REMARK                            x       y       z     vdW  Elec       q    Type
REMARK                         _______ _______ _______ _____ _____    ______ ____
ROOT
ATOM      1  N   UNL     1      37.281 -22.346 -16.803  0.00  0.00    -0.315 N 
ATOM      2  N   UNL     1      35.176 -22.442 -17.502  0.00  0.00    -0.317 N 
ATOM      3  C   UNL     1      35.291 -23.036 -16.271  0.00  0.00    +0.063 C 
ATOM      4  C   UNL     1      36.588 -22.988 -15.816  0.00  0.00    +0.085 C 
ATOM      5  C   UNL     1      36.392 -22.037 -17.795  0.00  0.00    +0.164 C 
ATOM      6  H   UNL     1      38.244 -22.142 -16.800  0.00  0.00    +0.148 HD
ATOM      7  H   UNL     1      34.362 -22.342 -18.048  0.00  0.00    +0.148 HD
ENDROOT
BRANCH   3  11
ATOM      8  N   UNL     1      31.770 -24.018 -15.522  0.00  0.00    -0.170 N 
ATOM      9  N   UNL     1      30.474 -23.973 -15.923  0.00  0.00    -0.150 NA
ATOM     10  N   UNL     1      30.645 -25.120 -13.954  0.00  0.00    -0.206 NA
ATOM     11  C   UNL     1      34.117 -23.624 -15.596  0.00  0.00    +0.031 C 
ATOM     12  C   UNL     1      32.895 -23.477 -16.149  0.00  0.00    +0.092 C 
ATOM     13  C   UNL     1      34.208 -24.359 -14.331  0.00  0.00    +0.006 C 
ATOM     14  C   UNL     1      31.844 -24.723 -14.318  0.00  0.00    +0.157 C 
ATOM     15  C   UNL     1      33.126 -24.881 -13.727  0.00  0.00    +0.036 C 
ATOM     16  C   UNL     1      29.855 -24.644 -14.953  0.00  0.00    +0.219 C 
ENDBRANCH   3  11
BRANCH   4  18
ATOM     17  N   UNL     1      38.214 -24.348 -14.798  0.00  0.00    -0.409 NA
ATOM     18  C   UNL     1      37.211 -23.463 -14.606  0.00  0.00    +0.127 C 
ATOM     19  C   UNL     1      36.793 -23.023 -13.360  0.00  0.00    +0.086 C 
ATOM     20  C   UNL     1      38.825 -24.814 -13.685  0.00  0.00    +0.109 C 
ATOM     21  C   UNL     1      37.446 -23.525 -12.240  0.00  0.00    -0.016 C 
ATOM     22  C   UNL     1      38.483 -24.437 -12.397  0.00  0.00    +0.023 C 
ATOM     23  C   UNL     1      39.933 -25.793 -13.892  0.00  0.00    +0.066 C 
ENDBRANCH   4  18
BRANCH   5  24
ATOM     24  C   UNL     1      36.819 -21.332 -19.017  0.00  0.00    +0.128 C 
BRANCH  24  25
ATOM     25  N   UNL     1      35.682 -20.825 -19.766  0.00  0.00    -0.328 N 
ATOM     26  H   UNL     1      34.779 -21.103 -19.490  0.00  0.00    +0.147 HD
BRANCH  25  28
ATOM     27  F   UNL     1      33.523 -20.308 -21.420  0.00  0.00    -0.203 F 
ATOM     28  C   UNL     1      35.803 -19.974 -20.846  0.00  0.00    +0.073 C 
ATOM     29  C   UNL     1      34.705 -19.726 -21.669  0.00  0.00    +0.153 C 
ATOM     30  C   UNL     1      37.029 -19.363 -21.116  0.00  0.00    +0.017 C 
ATOM     31  C   UNL     1      34.829 -18.866 -22.760  0.00  0.00    +0.031 C 
ATOM     32  C   UNL     1      37.153 -18.503 -22.208  0.00  0.00    +0.001 C 
ATOM     33  C   UNL     1      36.054 -18.254 -23.029  0.00  0.00    +0.002 C 
ENDBRANCH  25  28
ENDBRANCH  24  25
ENDBRANCH   5  24
TORSDOF 5
ENDMDL
MODEL 2
REMARK VINA RESULT:     -13.0      3.041      6.806
REMARK  Name = 54766013
REMARK  5 active torsions:
REMARK  status: ('A' for Active; 'I' for Inactive)
REMARK    1  A    between atoms: C_3  and  C_11
REMARK    2  A    between atoms: C_4  and  C_18
REMARK    3  A    between atoms: C_5  and  C_24
REMARK    4  A    between atoms: C_24  and  N_25
REMARK    5  A    between atoms: N_25  and  C_28
REMARK                            x       y       z     vdW  Elec       q    Type
REMARK                         _______ _______ _______ _____ _____    ______ ____
ROOT
ATOM      1  N   UNL     1      35.200 -23.825 -14.638  0.00  0.00    -0.315 N 
ATOM      2  N   UNL     1      33.435 -24.471 -13.456  0.00  0.00    -0.317 N 
ATOM      3  C   UNL     1      33.043 -24.071 -14.708  0.00  0.00    +0.063 C 
ATOM      4  C   UNL     1      34.121 -23.666 -15.461  0.00  0.00    +0.085 C 
ATOM      5  C   UNL     1      34.740 -24.310 -13.446  0.00  0.00    +0.164 C 
ATOM      6  H   UNL     1      36.139 -23.627 -14.863  0.00  0.00    +0.148 HD
ATOM      7  H   UNL     1      32.865 -24.804 -12.725  0.00  0.00    +0.148 HD
ENDROOT
BRANCH   3  11
ATOM      8  N   UNL     1      29.771 -23.095 -16.214  0.00  0.00    -0.170 N 
ATOM      9  N   UNL     1      29.090 -22.168 -16.935  0.00  0.00    -0.150 NA
ATOM     10  N   UNL     1      27.701 -23.890 -16.359  0.00  0.00    -0.206 NA
ATOM     11  C   UNL     1      31.623 -24.105 -15.108  0.00  0.00    +0.031 C 
ATOM     12  C   UNL     1      31.115 -23.086 -15.832  0.00  0.00    +0.092 C 
ATOM     13  C   UNL     1      30.717 -25.199 -14.745  0.00  0.00    +0.006 C 
ATOM     14  C   UNL     1      28.899 -24.132 -15.875  0.00  0.00    +0.157 C 
ATOM     15  C   UNL     1      29.423 -25.209 -15.112  0.00  0.00    +0.036 C 
ATOM     16  C   UNL     1      27.868 -22.695 -16.988  0.00  0.00    +0.219 C 
ENDBRANCH   3  11
BRANCH   4  18
ATOM     17  N   UNL     1      35.427 -22.612 -17.108  0.00  0.00    -0.409 NA
ATOM     18  C   UNL     1      34.232 -23.168 -16.809  0.00  0.00    +0.127 C 
ATOM     19  C   UNL     1      33.179 -23.273 -17.704  0.00  0.00    +0.086 C 
ATOM     20  C   UNL     1      35.570 -22.136 -18.365  0.00  0.00    +0.109 C 
ATOM     21  C   UNL     1      33.365 -22.772 -18.988  0.00  0.00    -0.016 C 
ATOM     22  C   UNL     1      34.580 -22.192 -19.333  0.00  0.00    +0.023 C 
ATOM     23  C   UNL     1      36.887 -21.518 -18.700  0.00  0.00    +0.066 C 
ENDBRANCH   4  18
BRANCH   5  24
ATOM     24  C   UNL     1      35.658 -24.596 -12.328  0.00  0.00    +0.128 C 
BRANCH  24  25
ATOM     25  N   UNL     1      36.448 -25.791 -12.578  0.00  0.00    -0.328 N 
ATOM     26  H   UNL     1      36.120 -26.649 -12.226  0.00  0.00    +0.147 HD
BRANCH  25  28
ATOM     27  F   UNL     1      36.716 -27.224 -14.930  0.00  0.00    -0.203 F 
ATOM     28  C   UNL     1      37.635 -25.782 -13.282  0.00  0.00    +0.073 C 
ATOM     29  C   UNL     1      37.752 -26.511 -14.466  0.00  0.00    +0.153 C 
ATOM     30  C   UNL     1      38.720 -25.044 -12.808  0.00  0.00    +0.017 C 
ATOM     31  C   UNL     1      38.952 -26.501 -15.176  0.00  0.00    +0.031 C 
ATOM     32  C   UNL     1      39.921 -25.035 -13.519  0.00  0.00    +0.001 C 
ATOM     33  C   UNL     1      40.037 -25.763 -14.703  0.00  0.00    +0.002 C 
ENDBRANCH  25  28
ENDBRANCH  24  25
ENDBRANCH   5  24
TORSDOF 5
ENDMDL
MODEL 3
REMARK VINA RESULT:     -12.9      1.604      5.173
REMARK  Name = 54766013
REMARK  5 active torsions:
REMARK  status: ('A' for Active; 'I' for Inactive)
REMARK    1  A    between atoms: C_3  and  C_11
REMARK    2  A    between atoms: C_4  and  C_18
REMARK    3  A    between atoms: C_5  and  C_24
REMARK    4  A    between atoms: C_24  and  N_25
REMARK    5  A    between atoms: N_25  and  C_28
REMARK                            x       y       z     vdW  Elec       q    Type
REMARK                         _______ _______ _______ _____ _____    ______ ____
ROOT
ATOM      1  N   UNL     1      32.966 -22.737 -17.773  0.00  0.00    -0.315 N 
ATOM      2  N   UNL     1      35.185 -22.709 -17.685  0.00  0.00    -0.317 N 
ATOM      3  C   UNL     1      34.677 -23.352 -16.585  0.00  0.00    +0.063 C 
ATOM      4  C   UNL     1      33.302 -23.383 -16.617  0.00  0.00    +0.085 C 
ATOM      5  C   UNL     1      34.128 -22.350 -18.381  0.00  0.00    +0.164 C 
ATOM      6  H   UNL     1      32.053 -22.579 -18.109  0.00  0.00    +0.148 HD
ATOM      7  H   UNL     1      36.131 -22.550 -17.906  0.00  0.00    +0.148 HD
ENDROOT
BRANCH   3  11
ATOM      8  N   UNL     1      37.003 -23.581 -13.676  0.00  0.00    -0.170 N 
ATOM      9  N   UNL     1      37.669 -22.906 -12.705  0.00  0.00    -0.150 NA
ATOM     10  N   UNL     1      38.125 -25.141 -12.560  0.00  0.00    -0.206 NA
ATOM     11  C   UNL     1      35.569 -23.909 -15.550  0.00  0.00    +0.031 C 
ATOM     12  C   UNL     1      36.148 -23.076 -14.659  0.00  0.00    +0.092 C 
ATOM     13  C   UNL     1      35.876 -25.338 -15.443  0.00  0.00    +0.006 C 
ATOM     14  C   UNL     1      37.301 -24.942 -13.564  0.00  0.00    +0.157 C 
ATOM     15  C   UNL     1      36.699 -25.826 -14.498  0.00  0.00    +0.036 C 
ATOM     16  C   UNL     1      38.317 -23.884 -12.075  0.00  0.00    +0.219 C 
ENDBRANCH   3  11
BRANCH   4  18
ATOM     17  N   UNL     1      31.051 -23.896 -16.173  0.00  0.00    -0.409 NA
ATOM     18  C   UNL     1      32.321 -23.930 -15.715  0.00  0.00    +0.127 C 
ATOM     19  C   UNL     1      32.687 -24.448 -14.482  0.00  0.00    +0.086 C 
ATOM     20  C   UNL     1      30.103 -24.404 -15.354  0.00  0.00    +0.109 C 
ATOM     21  C   UNL     1      31.683 -24.962 -13.669  0.00  0.00    -0.016 C 
ATOM     22  C   UNL     1      30.364 -24.944 -14.105  0.00  0.00    +0.023 C 
ATOM     23  C   UNL     1      28.697 -24.366 -15.856  0.00  0.00    +0.066 C 
ENDBRANCH   4  18
BRANCH   5  24
ATOM     24  C   UNL     1      34.119 -21.623 -19.663  0.00  0.00    +0.128 C 
BRANCH  24  25
ATOM     25  N   UNL     1      35.323 -20.827 -19.835  0.00  0.00    -0.328 N 
ATOM     26  H   UNL     1      36.010 -20.862 -19.130  0.00  0.00    +0.147 HD
BRANCH  25  28
ATOM     27  F   UNL     1      37.681 -19.400 -20.086  0.00  0.00    -0.203 F 
ATOM     28  C   UNL     1      35.553 -20.025 -20.934  0.00  0.00    +0.073 C 
ATOM     29  C   UNL     1      36.747 -19.313 -21.044  0.00  0.00    +0.153 C 
ATOM     30  C   UNL     1      34.588 -19.926 -21.937  0.00  0.00    +0.017 C 
ATOM     31  C   UNL     1      36.977 -18.503 -22.155  0.00  0.00    +0.031 C 
ATOM     32  C   UNL     1      34.818 -19.116 -23.049  0.00  0.00    +0.001 C 
ATOM     33  C   UNL     1      36.013 -18.404 -23.159  0.00  0.00    +0.002 C 
ENDBRANCH  25  28
ENDBRANCH  24  25
ENDBRANCH   5  24
TORSDOF 5
ENDMDL
MODEL 4
REMARK VINA RESULT:     -12.8      2.822      7.505
REMARK  Name = 54766013
REMARK  5 active torsions:
REMARK  status: ('A' for Active; 'I' for Inactive)
REMARK    1  A    between atoms: C_3  and  C_11
REMARK    2  A    between atoms: C_4  and  C_18
REMARK    3  A    between atoms: C_5  and  C_24
REMARK    4  A    between atoms: C_24  and  N_25
REMARK    5  A    between atoms: N_25  and  C_28
REMARK                            x       y       z     vdW  Elec       q    Type
REMARK                         _______ _______ _______ _____ _____    ______ ____
ROOT
ATOM      1  N   UNL     1      33.234 -22.928 -15.102  0.00  0.00    -0.315 N 
ATOM      2  N   UNL     1      33.996 -24.465 -13.692  0.00  0.00    -0.317 N 
ATOM      3  C   UNL     1      34.907 -24.253 -14.696  0.00  0.00    +0.063 C 
ATOM      4  C   UNL     1      34.456 -23.303 -15.583  0.00  0.00    +0.085 C 
ATOM      5  C   UNL     1      33.000 -23.652 -13.965  0.00  0.00    +0.164 C 
ATOM      6  H   UNL     1      32.632 -22.258 -15.499  0.00  0.00    +0.148 HD
ATOM      7  H   UNL     1      34.071 -25.089 -12.934  0.00  0.00    +0.148 HD
ENDROOT
BRANCH   3  11
ATOM      8  N   UNL     1      38.518 -25.101 -14.288  0.00  0.00    -0.170 N 
ATOM      9  N   UNL     1      39.734 -24.687 -13.851  0.00  0.00    -0.150 NA
ATOM     10  N   UNL     1      39.892 -26.791 -14.727  0.00  0.00    -0.206 NA
ATOM     11  C   UNL     1      36.181 -24.997 -14.737  0.00  0.00    +0.031 C 
ATOM     12  C   UNL     1      37.299 -24.419 -14.251  0.00  0.00    +0.092 C 
ATOM     13  C   UNL     1      36.302 -26.345 -15.299  0.00  0.00    +0.006 C 
ATOM     14  C   UNL     1      38.644 -26.387 -14.818  0.00  0.00    +0.157 C 
ATOM     15  C   UNL     1      37.474 -27.004 -15.335  0.00  0.00    +0.036 C 
ATOM     16  C   UNL     1      40.509 -25.732 -14.138  0.00  0.00    +0.219 C 
ENDBRANCH   3  11
BRANCH   4  18
ATOM     17  N   UNL     1      34.166 -22.595 -17.806  0.00  0.00    -0.409 NA
ATOM     18  C   UNL     1      35.031 -22.741 -16.779  0.00  0.00    +0.127 C 
ATOM     19  C   UNL     1      36.370 -22.385 -16.835  0.00  0.00    +0.086 C 
ATOM     20  C   UNL     1      34.669 -22.067 -18.945  0.00  0.00    +0.109 C 
ATOM     21  C   UNL     1      36.849 -21.846 -18.024  0.00  0.00    -0.016 C 
ATOM     22  C   UNL     1      35.990 -21.680 -19.103  0.00  0.00    +0.023 C 
ATOM     23  C   UNL     1      33.717 -21.905 -20.084  0.00  0.00    +0.066 C 
ENDBRANCH   4  18
BRANCH   5  24
ATOM     24  C   UNL     1      31.756 -23.485 -13.192  0.00  0.00    +0.128 C 
BRANCH  24  25
ATOM     25  N   UNL     1      30.700 -24.354 -13.684  0.00  0.00    -0.328 N 
ATOM     26  H   UNL     1      30.529 -25.197 -13.207  0.00  0.00    +0.147 HD
BRANCH  25  28
ATOM     27  F   UNL     1      29.698 -26.364 -15.301  0.00  0.00    -0.203 F 
ATOM     28  C   UNL     1      29.926 -24.057 -14.788  0.00  0.00    +0.073 C 
ATOM     29  C   UNL     1      29.429 -25.083 -15.591  0.00  0.00    +0.153 C 
ATOM     30  C   UNL     1      29.641 -22.727 -15.100  0.00  0.00    +0.017 C 
ATOM     31  C   UNL     1      28.647 -24.782 -16.706  0.00  0.00    +0.031 C 
ATOM     32  C   UNL     1      28.859 -22.425 -16.215  0.00  0.00    +0.001 C 
ATOM     33  C   UNL     1      28.362 -23.452 -17.018  0.00  0.00    +0.002 C 
ENDBRANCH  25  28
ENDBRANCH  24  25
ENDBRANCH   5  24
TORSDOF 5
ENDMDL
MODEL 5
REMARK VINA RESULT:     -12.7      2.508      6.533
REMARK  Name = 54766013
REMARK  5 active torsions:
REMARK  status: ('A' for Active; 'I' for Inactive)
REMARK    1  A    between atoms: C_3  and  C_11
REMARK    2  A    between atoms: C_4  and  C_18
REMARK    3  A    between atoms: C_5  and  C_24
REMARK    4  A    between atoms: C_24  and  N_25
REMARK    5  A    between atoms: N_25  and  C_28
REMARK                            x       y       z     vdW  Elec       q    Type
REMARK                         _______ _______ _______ _____ _____    ______ ____
ROOT
ATOM      1  N   UNL     1      34.058 -24.809 -13.306  0.00  0.00    -0.315 N 
ATOM      2  N   UNL     1      33.242 -24.049 -15.227  0.00  0.00    -0.317 N 
ATOM      3  C   UNL     1      34.575 -23.740 -15.125  0.00  0.00    +0.063 C 
ATOM      4  C   UNL     1      35.103 -24.201 -13.942  0.00  0.00    +0.085 C 
ATOM      5  C   UNL     1      32.961 -24.693 -14.115  0.00  0.00    +0.164 C 
ATOM      6  H   UNL     1      34.088 -25.251 -12.427  0.00  0.00    +0.148 HD
ATOM      7  H   UNL     1      32.630 -23.836 -15.968  0.00  0.00    +0.148 HD
ENDROOT
BRANCH   3  11
ATOM      8  N   UNL     1      35.312 -22.174 -18.431  0.00  0.00    -0.170 N 
ATOM      9  N   UNL     1      34.871 -21.933 -19.691  0.00  0.00    -0.150 NA
ATOM     10  N   UNL     1      36.948 -21.027 -19.403  0.00  0.00    -0.206 NA
ATOM     11  C   UNL     1      35.270 -23.003 -16.198  0.00  0.00    +0.031 C 
ATOM     12  C   UNL     1      34.669 -22.861 -17.398  0.00  0.00    +0.092 C 
ATOM     13  C   UNL     1      36.604 -22.418 -16.032  0.00  0.00    +0.006 C 
ATOM     14  C   UNL     1      36.582 -21.611 -18.284  0.00  0.00    +0.157 C 
ATOM     15  C   UNL     1      37.224 -21.756 -17.025  0.00  0.00    +0.036 C 
ATOM     16  C   UNL     1      35.884 -21.249 -20.220  0.00  0.00    +0.219 C 
ENDBRANCH   3  11
BRANCH   4  18
ATOM     17  N   UNL     1      37.321 -24.984 -13.925  0.00  0.00    -0.409 NA
ATOM     18  C   UNL     1      36.427 -24.131 -13.376  0.00  0.00    +0.127 C 
ATOM     19  C   UNL     1      36.727 -23.245 -12.354  0.00  0.00    +0.086 C 
ATOM     20  C   UNL     1      38.575 -24.945 -13.422  0.00  0.00    +0.109 C 
ATOM     21  C   UNL     1      38.029 -23.234 -11.864  0.00  0.00    -0.016 C 
ATOM     22  C   UNL     1      38.976 -24.097 -12.402  0.00  0.00    +0.023 C 
ATOM     23  C   UNL     1      39.566 -25.886 -14.023  0.00  0.00    +0.066 C 
ENDBRANCH   4  18
BRANCH   5  24
ATOM     24  C   UNL     1      31.654 -25.249 -13.721  0.00  0.00    +0.128 C 
BRANCH  24  25
ATOM     25  N   UNL     1      30.611 -24.237 -13.753  0.00  0.00    -0.328 N 
ATOM     26  H   UNL     1      30.423 -23.735 -12.928  0.00  0.00    +0.147 HD
BRANCH  25  28
ATOM     27  F   UNL     1      28.782 -26.051 -14.764  0.00  0.00    -0.203 F 
ATOM     28  C   UNL     1      29.872 -23.944 -14.881  0.00  0.00    +0.073 C 
ATOM     29  C   UNL     1      28.955 -24.871 -15.377  0.00  0.00    +0.153 C 
ATOM     30  C   UNL     1      30.044 -22.719 -15.528  0.00  0.00    +0.017 C 
ATOM     31  C   UNL     1      28.209 -24.574 -16.517  0.00  0.00    +0.031 C 
ATOM     32  C   UNL     1      29.298 -22.422 -16.669  0.00  0.00    +0.001 C 
ATOM     33  C   UNL     1      28.380 -23.349 -17.163  0.00  0.00    +0.002 C 
ENDBRANCH  25  28
ENDBRANCH  24  25
ENDBRANCH   5  24
TORSDOF 5
ENDMDL
MODEL 6
REMARK VINA RESULT:     -12.7      0.934      1.271
REMARK  Name = 54766013
REMARK  5 active torsions:
REMARK  status: ('A' for Active; 'I' for Inactive)
REMARK    1  A    between atoms: C_3  and  C_11
REMARK    2  A    between atoms: C_4  and  C_18
REMARK    3  A    between atoms: C_5  and  C_24
REMARK    4  A    between atoms: C_24  and  N_25
REMARK    5  A    between atoms: N_25  and  C_28
REMARK                            x       y       z     vdW  Elec       q    Type
REMARK                         _______ _______ _______ _____ _____    ______ ____
ROOT
ATOM      1  N   UNL     1      37.068 -22.378 -17.115  0.00  0.00    -0.315 N 
ATOM      2  N   UNL     1      34.960 -22.476 -17.808  0.00  0.00    -0.317 N 
ATOM      3  C   UNL     1      35.071 -23.025 -16.555  0.00  0.00    +0.063 C 
ATOM      4  C   UNL     1      36.369 -22.975 -16.104  0.00  0.00    +0.085 C 
ATOM      5  C   UNL     1      36.180 -22.095 -18.116  0.00  0.00    +0.164 C 
ATOM      6  H   UNL     1      38.033 -22.184 -17.121  0.00  0.00    +0.148 HD
ATOM      7  H   UNL     1      34.146 -22.386 -18.355  0.00  0.00    +0.148 HD
ENDROOT
BRANCH   3  11
ATOM      8  N   UNL     1      31.533 -23.880 -15.732  0.00  0.00    -0.170 N 
ATOM      9  N   UNL     1      30.231 -23.781 -16.101  0.00  0.00    -0.150 NA
ATOM     10  N   UNL     1      30.405 -24.954 -14.147  0.00  0.00    -0.206 NA
ATOM     11  C   UNL     1      33.892 -23.574 -15.858  0.00  0.00    +0.031 C 
ATOM     12  C   UNL     1      32.664 -23.375 -16.380  0.00  0.00    +0.092 C 
ATOM     13  C   UNL     1      33.984 -24.325 -14.602  0.00  0.00    +0.006 C 
ATOM     14  C   UNL     1      31.609 -24.598 -14.536  0.00  0.00    +0.157 C 
ATOM     15  C   UNL     1      32.897 -24.811 -13.977  0.00  0.00    +0.036 C 
ATOM     16  C   UNL     1      29.610 -24.437 -15.122  0.00  0.00    +0.219 C 
ENDBRANCH   3  11
BRANCH   4  18
ATOM     17  N   UNL     1      37.945 -24.354 -15.034  0.00  0.00    -0.409 NA
ATOM     18  C   UNL     1      36.989 -23.412 -14.879  0.00  0.00    +0.127 C 
ATOM     19  C   UNL     1      36.613 -22.883 -13.653  0.00  0.00    +0.086 C 
ATOM     20  C   UNL     1      38.551 -24.787 -13.906  0.00  0.00    +0.109 C 
ATOM     21  C   UNL     1      37.261 -23.354 -12.516  0.00  0.00    -0.016 C 
ATOM     22  C   UNL     1      38.249 -24.323 -12.636  0.00  0.00    +0.023 C 
ATOM     23  C   UNL     1      39.607 -25.829 -14.072  0.00  0.00    +0.066 C 
ENDBRANCH   4  18
BRANCH   5  24
ATOM     24  C   UNL     1      36.614 -21.441 -19.364  0.00  0.00    +0.128 C 
BRANCH  24  25
ATOM     25  N   UNL     1      35.678 -20.409 -19.779  0.00  0.00    -0.328 N 
ATOM     26  H   UNL     1      34.963 -20.149 -19.155  0.00  0.00    +0.147 HD
BRANCH  25  28
ATOM     27  F   UNL     1      37.783 -18.724 -20.403  0.00  0.00    -0.203 F 
ATOM     28  C   UNL     1      35.740 -19.776 -21.004  0.00  0.00    +0.073 C 
ATOM     29  C   UNL     1      36.808 -18.930 -21.301  0.00  0.00    +0.153 C 
ATOM     30  C   UNL     1      34.731 -19.982 -21.946  0.00  0.00    +0.017 C 
ATOM     31  C   UNL     1      36.870 -18.290 -22.539  0.00  0.00    +0.031 C 
ATOM     32  C   UNL     1      34.792 -19.342 -23.185  0.00  0.00    +0.001 C 
ATOM     33  C   UNL     1      35.861 -18.497 -23.481  0.00  0.00    +0.002 C 
ENDBRANCH  25  28
ENDBRANCH  24  25
ENDBRANCH   5  24
TORSDOF 5
ENDMDL
MODEL 7
REMARK VINA RESULT:     -11.8      1.500      4.585
REMARK  Name = 54766013
REMARK  5 active torsions:
REMARK  status: ('A' for Active; 'I' for Inactive)
REMARK    1  A    between atoms: C_3  and  C_11
REMARK    2  A    between atoms: C_4  and  C_18
REMARK    3  A    between atoms: C_5  and  C_24
REMARK    4  A    between atoms: C_24  and  N_25
REMARK    5  A    between atoms: N_25  and  C_28
REMARK                            x       y       z     vdW  Elec       q    Type
REMARK                         _______ _______ _______ _____ _____    ______ ____
ROOT
ATOM      1  N   UNL     1      34.567 -22.324 -18.300  0.00  0.00    -0.315 N 
ATOM      2  N   UNL     1      36.601 -22.629 -17.464  0.00  0.00    -0.317 N 
ATOM      3  C   UNL     1      35.655 -23.092 -16.585  0.00  0.00    +0.063 C 
ATOM      4  C   UNL     1      34.385 -22.914 -17.082  0.00  0.00    +0.085 C 
ATOM      5  C   UNL     1      35.913 -22.172 -18.487  0.00  0.00    +0.164 C 
ATOM      6  H   UNL     1      33.858 -22.057 -18.930  0.00  0.00    +0.148 HD
ATOM      7  H   UNL     1      37.579 -22.636 -17.353  0.00  0.00    +0.148 HD
ENDROOT
BRANCH   3  11
ATOM      8  N   UNL     1      36.633 -23.432 -12.999  0.00  0.00    -0.170 N 
ATOM      9  N   UNL     1      36.885 -22.790 -11.831  0.00  0.00    -0.150 NA
ATOM     10  N   UNL     1      37.164 -25.042 -11.563  0.00  0.00    -0.206 NA
ATOM     11  C   UNL     1      36.044 -23.690 -15.293  0.00  0.00    +0.031 C 
ATOM     12  C   UNL     1      36.255 -22.887 -14.229  0.00  0.00    +0.092 C 
ATOM     13  C   UNL     1      36.231 -25.132 -15.104  0.00  0.00    +0.006 C 
ATOM     14  C   UNL     1      36.811 -24.804 -12.807  0.00  0.00    +0.157 C 
ATOM     15  C   UNL     1      36.595 -25.658 -13.921  0.00  0.00    +0.036 C 
ATOM     16  C   UNL     1      37.195 -23.797 -11.016  0.00  0.00    +0.219 C 
ENDBRANCH   3  11
BRANCH   4  18
ATOM     17  N   UNL     1      33.095 -23.973 -15.425  0.00  0.00    -0.409 NA
ATOM     18  C   UNL     1      33.082 -23.228 -16.552  0.00  0.00    +0.127 C 
ATOM     19  C   UNL     1      31.926 -22.780 -17.172  0.00  0.00    +0.086 C 
ATOM     20  C   UNL     1      31.891 -24.284 -14.896  0.00  0.00    +0.109 C 
ATOM     21  C   UNL     1      30.706 -23.121 -16.598  0.00  0.00    -0.016 C 
ATOM     22  C   UNL     1      30.679 -23.887 -15.438  0.00  0.00    +0.023 C 
ATOM     23  C   UNL     1      31.900 -25.109 -13.652  0.00  0.00    +0.066 C 
ENDBRANCH   4  18
BRANCH   5  24
ATOM     24  C   UNL     1      36.454 -21.561 -19.715  0.00  0.00    +0.128 C 
BRANCH  24  25
ATOM     25  N   UNL     1      35.953 -20.210 -19.905  0.00  0.00    -0.328 N 
ATOM     26  H   UNL     1      35.696 -19.691 -19.109  0.00  0.00    +0.147 HD
BRANCH  25  28
ATOM     27  F   UNL     1      33.586 -20.409 -21.325  0.00  0.00    -0.203 F 
ATOM     28  C   UNL     1      35.817 -19.618 -21.144  0.00  0.00    +0.073 C 
ATOM     29  C   UNL     1      34.617 -19.729 -21.846  0.00  0.00    +0.153 C 
ATOM     30  C   UNL     1      36.885 -18.909 -21.697  0.00  0.00    +0.017 C 
ATOM     31  C   UNL     1      34.482 -19.131 -23.098  0.00  0.00    +0.031 C 
ATOM     32  C   UNL     1      36.750 -18.310 -22.950  0.00  0.00    +0.001 C 
ATOM     33  C   UNL     1      35.549 -18.421 -23.650  0.00  0.00    +0.002 C 
ENDBRANCH  25  28
ENDBRANCH  24  25
ENDBRANCH   5  24
TORSDOF 5
ENDMDL
MODEL 8
REMARK VINA RESULT:     -11.8      2.739      7.376
REMARK  Name = 54766013
REMARK  5 active torsions:
REMARK  status: ('A' for Active; 'I' for Inactive)
REMARK    1  A    between atoms: C_3  and  C_11
REMARK    2  A    between atoms: C_4  and  C_18
REMARK    3  A    between atoms: C_5  and  C_24
REMARK    4  A    between atoms: C_24  and  N_25
REMARK    5  A    between atoms: N_25  and  C_28
REMARK                            x       y       z     vdW  Elec       q    Type
REMARK                         _______ _______ _______ _____ _____    ______ ____
ROOT
ATOM      1  N   UNL     1      32.712 -24.040 -15.475  0.00  0.00    -0.315 N 
ATOM      2  N   UNL     1      33.676 -25.039 -13.742  0.00  0.00    -0.317 N 
ATOM      3  C   UNL     1      34.630 -24.488 -14.559  0.00  0.00    +0.063 C 
ATOM      4  C   UNL     1      34.056 -23.862 -15.641  0.00  0.00    +0.085 C 
ATOM      5  C   UNL     1      32.531 -24.752 -14.322  0.00  0.00    +0.164 C 
ATOM      6  H   UNL     1      32.003 -23.714 -16.076  0.00  0.00    +0.148 HD
ATOM      7  H   UNL     1      33.816 -25.540 -12.906  0.00  0.00    +0.148 HD
ENDROOT
BRANCH   3  11
ATOM      8  N   UNL     1      38.179 -25.643 -14.595  0.00  0.00    -0.170 N 
ATOM      9  N   UNL     1      39.086 -26.491 -15.141  0.00  0.00    -0.150 NA
ATOM     10  N   UNL     1      40.089 -25.187 -13.556  0.00  0.00    -0.206 NA
ATOM     11  C   UNL     1      36.066 -24.602 -14.238  0.00  0.00    +0.031 C 
ATOM     12  C   UNL     1      36.819 -25.512 -14.891  0.00  0.00    +0.092 C 
ATOM     13  C   UNL     1      36.725 -23.777 -13.221  0.00  0.00    +0.006 C 
ATOM     14  C   UNL     1      38.818 -24.860 -13.631  0.00  0.00    +0.157 C 
ATOM     15  C   UNL     1      38.034 -23.902 -12.936  0.00  0.00    +0.036 C 
ATOM     16  C   UNL     1      40.200 -26.174 -14.485  0.00  0.00    +0.219 C 
ENDBRANCH   3  11
BRANCH   4  18
ATOM     17  N   UNL     1      35.791 -22.530 -16.504  0.00  0.00    -0.409 NA
ATOM     18  C   UNL     1      34.618 -23.149 -16.761  0.00  0.00    +0.127 C 
ATOM     19  C   UNL     1      33.980 -23.124 -17.992  0.00  0.00    +0.086 C 
ATOM     20  C   UNL     1      36.350 -21.853 -17.532  0.00  0.00    +0.109 C 
ATOM     21  C   UNL     1      34.587 -22.417 -19.024  0.00  0.00    -0.016 C 
ATOM     22  C   UNL     1      35.795 -21.767 -18.799  0.00  0.00    +0.023 C 
ATOM     23  C   UNL     1      37.646 -21.166 -17.254  0.00  0.00    +0.066 C 
ENDBRANCH   4  18
BRANCH   5  24
ATOM     24  C   UNL     1      31.184 -25.116 -13.848  0.00  0.00    +0.128 C 
BRANCH  24  25
ATOM     25  N   UNL     1      30.292 -25.419 -14.955  0.00  0.00    -0.328 N 
ATOM     26  H   UNL     1      30.257 -26.345 -15.287  0.00  0.00    +0.147 HD
BRANCH  25  28
ATOM     27  F   UNL     1      30.188 -22.819 -14.011  0.00  0.00    -0.203 F 
ATOM     28  C   UNL     1      29.491 -24.474 -15.565  0.00  0.00    +0.073 C 
ATOM     29  C   UNL     1      29.451 -23.169 -15.076  0.00  0.00    +0.153 C 
ATOM     30  C   UNL     1      28.720 -24.827 -16.674  0.00  0.00    +0.017 C 
ATOM     31  C   UNL     1      28.642 -22.216 -15.693  0.00  0.00    +0.031 C 
ATOM     32  C   UNL     1      27.910 -23.873 -17.292  0.00  0.00    +0.001 C 
ATOM     33  C   UNL     1      27.871 -22.568 -16.802  0.00  0.00    +0.002 C 
ENDBRANCH  25  28
ENDBRANCH  24  25
ENDBRANCH   5  24
TORSDOF 5
ENDMDL
MODEL 9
REMARK VINA RESULT:     -11.8      2.034      5.229
REMARK  Name = 54766013
REMARK  5 active torsions:
REMARK  status: ('A' for Active; 'I' for Inactive)
REMARK    1  A    between atoms: C_3  and  C_11
REMARK    2  A    between atoms: C_4  and  C_18
REMARK    3  A    between atoms: C_5  and  C_24
REMARK    4  A    between atoms: C_24  and  N_25
REMARK    5  A    between atoms: N_25  and  C_28
REMARK                            x       y       z     vdW  Elec       q    Type
REMARK                         _______ _______ _______ _____ _____    ______ ____
ROOT
ATOM      1  N   UNL     1      32.578 -21.926 -18.799  0.00  0.00    -0.315 N 
ATOM      2  N   UNL     1      34.792 -22.081 -18.725  0.00  0.00    -0.317 N 
ATOM      3  C   UNL     1      34.241 -22.662 -17.611  0.00  0.00    +0.063 C 
ATOM      4  C   UNL     1      32.869 -22.578 -17.635  0.00  0.00    +0.085 C 
ATOM      5  C   UNL     1      33.764 -21.647 -19.421  0.00  0.00    +0.164 C 
ATOM      6  H   UNL     1      31.680 -21.698 -19.132  0.00  0.00    +0.148 HD
ATOM      7  H   UNL     1      35.747 -22.004 -18.954  0.00  0.00    +0.148 HD
ENDROOT
BRANCH   3  11
ATOM      8  N   UNL     1      35.963 -25.219 -15.508  0.00  0.00    -0.170 N 
ATOM      9  N   UNL     1      36.164 -26.540 -15.273  0.00  0.00    -0.150 NA
ATOM     10  N   UNL     1      37.353 -25.289 -13.775  0.00  0.00    -0.206 NA
ATOM     11  C   UNL     1      35.092 -23.274 -16.572  0.00  0.00    +0.031 C 
ATOM     12  C   UNL     1      35.170 -24.618 -16.490  0.00  0.00    +0.092 C 
ATOM     13  C   UNL     1      35.858 -22.487 -15.601  0.00  0.00    +0.006 C 
ATOM     14  C   UNL     1      36.699 -24.479 -14.579  0.00  0.00    +0.157 C 
ATOM     15  C   UNL     1      36.622 -23.063 -14.656  0.00  0.00    +0.036 C 
ATOM     16  C   UNL     1      36.997 -26.519 -14.234  0.00  0.00    +0.219 C 
ENDBRANCH   3  11
BRANCH   4  18
ATOM     17  N   UNL     1      30.585 -22.889 -17.166  0.00  0.00    -0.409 NA
ATOM     18  C   UNL     1      31.852 -23.028 -16.717  0.00  0.00    +0.127 C 
ATOM     19  C   UNL     1      32.183 -23.560 -15.481  0.00  0.00    +0.086 C 
ATOM     20  C   UNL     1      29.604 -23.303 -16.334  0.00  0.00    +0.109 C 
ATOM     21  C   UNL     1      31.146 -23.975 -14.653  0.00  0.00    -0.016 C 
ATOM     22  C   UNL     1      29.829 -23.848 -15.080  0.00  0.00    +0.023 C 
ATOM     23  C   UNL     1      28.202 -23.150 -16.824  0.00  0.00    +0.066 C 
ENDBRANCH   4  18
BRANCH   5  24
ATOM     24  C   UNL     1      33.806 -20.942 -20.715  0.00  0.00    +0.128 C 
BRANCH  24  25
ATOM     25  N   UNL     1      34.981 -20.093 -20.823  0.00  0.00    -0.328 N 
ATOM     26  H   UNL     1      35.773 -20.321 -20.284  0.00  0.00    +0.147 HD
BRANCH  25  28
ATOM     27  F   UNL     1      35.154 -20.363 -23.572  0.00  0.00    -0.203 F 
ATOM     28  C   UNL     1      35.044 -18.984 -21.642  0.00  0.00    +0.073 C 
ATOM     29  C   UNL     1      35.131 -19.139 -23.025  0.00  0.00    +0.153 C 
ATOM     30  C   UNL     1      35.022 -17.705 -21.084  0.00  0.00    +0.017 C 
ATOM     31  C   UNL     1      35.194 -18.017 -23.851  0.00  0.00    +0.031 C 
ATOM     32  C   UNL     1      35.086 -16.582 -21.910  0.00  0.00    +0.001 C 
ATOM     33  C   UNL     1      35.172 -16.738 -23.294  0.00  0.00    +0.002 C 
ENDBRANCH  25  28
ENDBRANCH  24  25
ENDBRANCH   5  24
TORSDOF 5
ENDMDL
