MODEL 1
REMARK VINA RESULT:     -12.2      0.000      0.000
REMARK  Name = 56842109
REMARK  7 active torsions:
REMARK  status: ('A' for Active; 'I' for Inactive)
REMARK    1  A    between atoms: C_1  and  C_24
REMARK    2  A    between atoms: C_3  and  C_9
REMARK    3  A    between atoms: C_5  and  O_22
REMARK    4  A    between atoms: N_8  and  C_11
REMARK    5  A    between atoms: C_11  and  C_12
REMARK    6  A    between atoms: C_15  and  C_21
REMARK    7  A    between atoms: C_24  and  C_29
REMARK                            x       y       z     vdW  Elec       q    Type
REMARK                         _______ _______ _______ _____ _____    ______ ____
ROOT
ATOM      1  C   UNL     1      34.977 -18.089 -22.963  0.00  0.00    -0.018 C 
ATOM      2  C   UNL     1      34.628 -17.068 -22.079  0.00  0.00    +0.003 C 
ATOM      3  C   UNL     1      34.362 -15.787 -22.563  0.00  0.00    +0.087 C 
ATOM      4  C   UNL     1      35.058 -17.829 -24.331  0.00  0.00    -0.001 C 
ATOM      5  C   UNL     1      34.444 -15.527 -23.931  0.00  0.00    +0.143 C 
ATOM      6  C   UNL     1      34.792 -16.548 -24.815  0.00  0.00    +0.037 C 
ENDROOT
BRANCH   3   9
ATOM      7  O   UNL     1      34.844 -14.273 -20.839  0.00  0.00    -0.270 OA
ATOM      8  N   UNL     1      32.679 -14.272 -21.670  0.00  0.00    -0.297 N 
ATOM      9  C   UNL     1      33.998 -14.735 -21.623  0.00  0.00    +0.249 C 
ATOM     10  H   UNL     1      32.062 -14.685 -22.316  0.00  0.00    +0.150 HD
BRANCH   8  11
ATOM     11  C   UNL     1      32.173 -13.219 -20.818  0.00  0.00    +0.117 C 
BRANCH  11  12
ATOM     12  C   UNL     1      32.174 -11.888 -21.510  0.00  0.00    -0.003 C 
ATOM     13  C   UNL     1      31.578 -10.784 -20.900  0.00  0.00    -0.003 C 
ATOM     14  C   UNL     1      32.771 -11.752 -22.764  0.00  0.00    -0.003 C 
ATOM     15  C   UNL     1      32.176  -9.411 -22.794  0.00  0.00    +0.071 C 
ATOM     16  C   UNL     1      31.578  -9.545 -21.541  0.00  0.00    +0.004 C 
ATOM     17  C   UNL     1      32.772 -10.514 -23.406  0.00  0.00    +0.004 C 
BRANCH  15  21
ATOM     18  F   UNL     1      31.877  -7.057 -22.635  0.00  0.00    -0.166 F 
ATOM     19  F   UNL     1      33.384  -7.761 -24.037  0.00  0.00    -0.166 F 
ATOM     20  F   UNL     1      31.279  -7.997 -24.503  0.00  0.00    -0.166 F 
ATOM     21  C   UNL     1      32.179  -8.087 -23.480  0.00  0.00    +0.419 C 
ENDBRANCH  15  21
ENDBRANCH  11  12
ENDBRANCH   8  11
ENDBRANCH   3   9
BRANCH   5  22
ATOM     22  O   UNL     1      34.184 -14.283 -24.423  0.00  0.00    -0.471 OA
ATOM     23  C   UNL     1      33.247 -14.194 -25.495  0.00  0.00    +0.252 C 
ENDBRANCH   5  22
BRANCH   1  24
ATOM     24  C   UNL     1      35.264 -19.474 -22.439  0.00  0.00    +0.080 C 
BRANCH  24  29
ATOM     25  O   UNL     1      36.288 -20.065 -20.333  0.00  0.00    -0.428 OA
ATOM     26  O   UNL     1      32.874 -20.562 -20.872  0.00  0.00    -0.271 OA
ATOM     27  O   UNL     1      36.854 -21.873 -19.053  0.00  0.00    -0.226 OA
ATOM     28  N   UNL     1      34.696 -21.516 -19.794  0.00  0.00    -0.218 N 
ATOM     29  C   UNL     1      35.085 -19.562 -20.938  0.00  0.00    +0.250 C 
ATOM     30  C   UNL     1      34.052 -20.583 -20.550  0.00  0.00    +0.271 C 
ATOM     31  C   UNL     1      36.016 -21.225 -19.663  0.00  0.00    +0.408 C 
ATOM     32  H   UNL     1      34.259 -22.302 -19.392  0.00  0.00    +0.161 HD
ENDBRANCH  24  29
ENDBRANCH   1  24
TORSDOF 7
ENDMDL
MODEL 2
REMARK VINA RESULT:     -12.1      3.559      6.181
REMARK  Name = 56842109
REMARK  7 active torsions:
REMARK  status: ('A' for Active; 'I' for Inactive)
REMARK    1  A    between atoms: C_1  and  C_24
REMARK    2  A    between atoms: C_3  and  C_9
REMARK    3  A    between atoms: C_5  and  O_22
REMARK    4  A    between atoms: N_8  and  C_11
REMARK    5  A    between atoms: C_11  and  C_12
REMARK    6  A    between atoms: C_15  and  C_21
REMARK    7  A    between atoms: C_24  and  C_29
REMARK                            x       y       z     vdW  Elec       q    Type
REMARK                         _______ _______ _______ _____ _____    ______ ____
ROOT
ATOM      1  C   UNL     1      33.235 -12.729 -23.282  0.00  0.00    -0.018 C 
ATOM      2  C   UNL     1      33.011 -11.364 -23.463  0.00  0.00    +0.003 C 
ATOM      3  C   UNL     1      32.286 -10.644 -22.512  0.00  0.00    +0.087 C 
ATOM      4  C   UNL     1      32.735 -13.373 -22.151  0.00  0.00    -0.001 C 
ATOM      5  C   UNL     1      31.786 -11.288 -21.381  0.00  0.00    +0.143 C 
ATOM      6  C   UNL     1      32.010 -12.653 -21.200  0.00  0.00    +0.037 C 
ENDROOT
BRANCH   3   9
ATOM      7  O   UNL     1      31.190  -8.827 -23.510  0.00  0.00    -0.270 OA
ATOM      8  N   UNL     1      32.862  -8.339 -21.979  0.00  0.00    -0.297 N 
ATOM      9  C   UNL     1      32.065  -9.219 -22.720  0.00  0.00    +0.249 C 
ATOM     10  H   UNL     1      33.537  -8.721 -21.372  0.00  0.00    +0.150 HD
BRANCH   8  11
ATOM     11  C   UNL     1      32.747  -6.901 -22.057  0.00  0.00    +0.117 C 
BRANCH  11  12
ATOM     12  C   UNL     1      33.290  -6.364 -23.349  0.00  0.00    -0.003 C 
ATOM     13  C   UNL     1      32.557  -5.425 -24.076  0.00  0.00    -0.003 C 
ATOM     14  C   UNL     1      34.526  -6.802 -23.824  0.00  0.00    -0.003 C 
ATOM     15  C   UNL     1      34.297  -5.362 -25.750  0.00  0.00    +0.071 C 
ATOM     16  C   UNL     1      33.061  -4.924 -25.277  0.00  0.00    +0.004 C 
ATOM     17  C   UNL     1      35.029  -6.302 -25.024  0.00  0.00    +0.004 C 
BRANCH  15  21
ATOM     18  F   UNL     1      35.982  -5.457 -27.425  0.00  0.00    -0.166 F 
ATOM     19  F   UNL     1      33.973  -4.946 -28.084  0.00  0.00    -0.166 F 
ATOM     20  F   UNL     1      35.151  -3.497 -26.981  0.00  0.00    -0.166 F 
ATOM     21  C   UNL     1      34.837  -4.825 -27.032  0.00  0.00    +0.419 C 
ENDBRANCH  15  21
ENDBRANCH  11  12
ENDBRANCH   8  11
ENDBRANCH   3   9
BRANCH   5  22
ATOM     22  O   UNL     1      31.079 -10.601 -20.440  0.00  0.00    -0.471 OA
ATOM     23  C   UNL     1      31.747 -10.310 -19.214  0.00  0.00    +0.252 C 
ENDBRANCH   5  22
BRANCH   1  24
ATOM     24  C   UNL     1      34.019 -13.507 -24.309  0.00  0.00    +0.080 C 
BRANCH  24  29
ATOM     25  O   UNL     1      34.269 -15.718 -23.371  0.00  0.00    -0.428 OA
ATOM     26  O   UNL     1      33.681 -15.271 -26.784  0.00  0.00    -0.271 OA
ATOM     27  O   UNL     1      35.686 -17.512 -23.345  0.00  0.00    -0.226 OA
ATOM     28  N   UNL     1      34.840 -16.640 -25.309  0.00  0.00    -0.218 N 
ATOM     29  C   UNL     1      33.584 -14.956 -24.379  0.00  0.00    +0.250 C 
ATOM     30  C   UNL     1      34.014 -15.613 -25.660  0.00  0.00    +0.271 C 
ATOM     31  C   UNL     1      35.002 -16.708 -23.963  0.00  0.00    +0.408 C 
ATOM     32  H   UNL     1      35.265 -17.254 -25.951  0.00  0.00    +0.161 HD
ENDBRANCH  24  29
ENDBRANCH   1  24
TORSDOF 7
ENDMDL
MODEL 3
REMARK VINA RESULT:     -12.1      5.770      9.620
REMARK  Name = 56842109
REMARK  7 active torsions:
REMARK  status: ('A' for Active; 'I' for Inactive)
REMARK    1  A    between atoms: C_1  and  C_24
REMARK    2  A    between atoms: C_3  and  C_9
REMARK    3  A    between atoms: C_5  and  O_22
REMARK    4  A    between atoms: N_8  and  C_11
REMARK    5  A    between atoms: C_11  and  C_12
REMARK    6  A    between atoms: C_15  and  C_21
REMARK    7  A    between atoms: C_24  and  C_29
REMARK                            x       y       z     vdW  Elec       q    Type
REMARK                         _______ _______ _______ _____ _____    ______ ____
ROOT
ATOM      1  C   UNL     1      32.132 -23.040 -15.582  0.00  0.00    -0.018 C 
ATOM      2  C   UNL     1      32.589 -22.952 -16.897  0.00  0.00    +0.003 C 
ATOM      3  C   UNL     1      33.941 -23.152 -17.180  0.00  0.00    +0.087 C 
ATOM      4  C   UNL     1      33.026 -23.327 -14.551  0.00  0.00    -0.001 C 
ATOM      5  C   UNL     1      34.835 -23.439 -16.149  0.00  0.00    +0.143 C 
ATOM      6  C   UNL     1      34.377 -23.526 -14.834  0.00  0.00    +0.037 C 
ENDROOT
BRANCH   3   9
ATOM      7  O   UNL     1      33.853 -23.734 -19.449  0.00  0.00    -0.270 OA
ATOM      8  N   UNL     1      35.443 -22.166 -18.823  0.00  0.00    -0.297 N 
ATOM      9  C   UNL     1      34.397 -23.058 -18.560  0.00  0.00    +0.249 C 
ATOM     10  H   UNL     1      35.827 -21.664 -18.069  0.00  0.00    +0.150 HD
BRANCH   8  11
ATOM     11  C   UNL     1      35.989 -21.945 -20.143  0.00  0.00    +0.117 C 
BRANCH  11  12
ATOM     12  C   UNL     1      35.739 -20.547 -20.628  0.00  0.00    -0.003 C 
ATOM     13  C   UNL     1      36.813 -19.694 -20.879  0.00  0.00    -0.003 C 
ATOM     14  C   UNL     1      34.432 -20.100 -20.827  0.00  0.00    -0.003 C 
ATOM     15  C   UNL     1      35.276 -17.948 -21.529  0.00  0.00    +0.071 C 
ATOM     16  C   UNL     1      36.582 -18.394 -21.329  0.00  0.00    +0.004 C 
ATOM     17  C   UNL     1      34.201 -18.801 -21.277  0.00  0.00    +0.004 C 
BRANCH  15  21
ATOM     18  F   UNL     1      35.087 -15.635 -21.011  0.00  0.00    -0.166 F 
ATOM     19  F   UNL     1      35.928 -16.139 -22.952  0.00  0.00    -0.166 F 
ATOM     20  F   UNL     1      33.804 -16.393 -22.596  0.00  0.00    -0.166 F 
ATOM     21  C   UNL     1      35.028 -16.560 -22.014  0.00  0.00    +0.419 C 
ENDBRANCH  15  21
ENDBRANCH  11  12
ENDBRANCH   8  11
ENDBRANCH   3   9
BRANCH   5  22
ATOM     22  O   UNL     1      36.158 -23.640 -16.406  0.00  0.00    -0.471 OA
ATOM     23  C   UNL     1      37.090 -23.015 -15.525  0.00  0.00    +0.252 C 
ENDBRANCH   5  22
BRANCH   1  24
ATOM     24  C   UNL     1      30.670 -22.825 -15.276  0.00  0.00    +0.080 C 
BRANCH  24  29
ATOM     25  O   UNL     1      29.204 -22.263 -17.111  0.00  0.00    -0.428 OA
ATOM     26  O   UNL     1      28.594 -25.063 -15.116  0.00  0.00    -0.271 OA
ATOM     27  O   UNL     1      27.093 -21.508 -17.561  0.00  0.00    -0.226 OA
ATOM     28  N   UNL     1      27.481 -23.388 -16.275  0.00  0.00    -0.218 N 
ATOM     29  C   UNL     1      29.776 -23.358 -16.376  0.00  0.00    +0.250 C 
ATOM     30  C   UNL     1      28.572 -24.072 -15.828  0.00  0.00    +0.271 C 
ATOM     31  C   UNL     1      27.840 -22.316 -17.028  0.00  0.00    +0.408 C 
ATOM     32  H   UNL     1      26.549 -23.639 -16.077  0.00  0.00    +0.161 HD
ENDBRANCH  24  29
ENDBRANCH   1  24
TORSDOF 7
ENDMDL
MODEL 4
REMARK VINA RESULT:     -12.1      5.385     10.339
REMARK  Name = 56842109
REMARK  7 active torsions:
REMARK  status: ('A' for Active; 'I' for Inactive)
REMARK    1  A    between atoms: C_1  and  C_24
REMARK    2  A    between atoms: C_3  and  C_9
REMARK    3  A    between atoms: C_5  and  O_22
REMARK    4  A    between atoms: N_8  and  C_11
REMARK    5  A    between atoms: C_11  and  C_12
REMARK    6  A    between atoms: C_15  and  C_21
REMARK    7  A    between atoms: C_24  and  C_29
REMARK                            x       y       z     vdW  Elec       q    Type
REMARK                         _______ _______ _______ _____ _____    ______ ____
ROOT
ATOM      1  C   UNL     1      32.483  -9.499 -22.277  0.00  0.00    -0.018 C 
ATOM      2  C   UNL     1      33.036 -10.298 -23.277  0.00  0.00    +0.003 C 
ATOM      3  C   UNL     1      32.929 -11.687 -23.199  0.00  0.00    +0.087 C 
ATOM      4  C   UNL     1      31.823 -10.088 -21.199  0.00  0.00    -0.001 C 
ATOM      5  C   UNL     1      32.269 -12.276 -22.122  0.00  0.00    +0.143 C 
ATOM      6  C   UNL     1      31.716 -11.477 -21.121  0.00  0.00    +0.037 C 
ENDROOT
BRANCH   3   9
ATOM      7  O   UNL     1      34.624 -12.216 -24.730  0.00  0.00    -0.270 OA
ATOM      8  N   UNL     1      32.775 -13.614 -24.679  0.00  0.00    -0.297 N 
ATOM      9  C   UNL     1      33.512 -12.503 -24.256  0.00  0.00    +0.249 C 
ATOM     10  H   UNL     1      31.900 -13.780 -24.259  0.00  0.00    +0.150 HD
BRANCH   8  11
ATOM     11  C   UNL     1      33.229 -14.531 -25.699  0.00  0.00    +0.117 C 
BRANCH  11  12
ATOM     12  C   UNL     1      33.848 -15.765 -25.111  0.00  0.00    -0.003 C 
ATOM     13  C   UNL     1      34.652 -15.668 -23.975  0.00  0.00    -0.003 C 
ATOM     14  C   UNL     1      33.621 -17.009 -25.700  0.00  0.00    -0.003 C 
ATOM     15  C   UNL     1      34.999 -18.058 -24.016  0.00  0.00    +0.071 C 
ATOM     16  C   UNL     1      35.228 -16.814 -23.427  0.00  0.00    +0.004 C 
ATOM     17  C   UNL     1      34.197 -18.155 -25.153  0.00  0.00    +0.004 C 
BRANCH  15  21
ATOM     18  F   UNL     1      36.917 -19.100 -23.074  0.00  0.00    -0.166 F 
ATOM     19  F   UNL     1      34.983 -19.723 -22.298  0.00  0.00    -0.166 F 
ATOM     20  F   UNL     1      35.611 -20.356 -24.276  0.00  0.00    -0.166 F 
ATOM     21  C   UNL     1      35.612 -19.284 -23.429  0.00  0.00    +0.419 C 
ENDBRANCH  15  21
ENDBRANCH  11  12
ENDBRANCH   8  11
ENDBRANCH   3   9
BRANCH   5  22
ATOM     22  O   UNL     1      32.152 -13.631 -22.030  0.00  0.00    -0.471 OA
ATOM     23  C   UNL     1      32.542 -14.232 -20.796  0.00  0.00    +0.252 C 
ENDBRANCH   5  22
BRANCH   1  24
ATOM     24  C   UNL     1      32.598  -7.997 -22.362  0.00  0.00    +0.080 C 
BRANCH  24  29
ATOM     25  O   UNL     1      30.822  -6.360 -22.339  0.00  0.00    -0.428 OA
ATOM     26  O   UNL     1      32.882  -6.816 -19.557  0.00  0.00    -0.271 OA
ATOM     27  O   UNL     1      30.455  -4.104 -22.318  0.00  0.00    -0.226 OA
ATOM     28  N   UNL     1      31.750  -5.156 -20.719  0.00  0.00    -0.218 N 
ATOM     29  C   UNL     1      31.547  -7.297 -21.525  0.00  0.00    +0.250 C 
ATOM     30  C   UNL     1      32.158  -6.430 -20.461  0.00  0.00    +0.271 C 
ATOM     31  C   UNL     1      30.966  -5.100 -21.827  0.00  0.00    +0.408 C 
ATOM     32  H   UNL     1      31.992  -4.374 -20.172  0.00  0.00    +0.161 HD
ENDBRANCH  24  29
ENDBRANCH   1  24
TORSDOF 7
ENDMDL
MODEL 5
REMARK VINA RESULT:     -12.1      5.505     10.396
REMARK  Name = 56842109
REMARK  7 active torsions:
REMARK  status: ('A' for Active; 'I' for Inactive)
REMARK    1  A    between atoms: C_1  and  C_24
REMARK    2  A    between atoms: C_3  and  C_9
REMARK    3  A    between atoms: C_5  and  O_22
REMARK    4  A    between atoms: N_8  and  C_11
REMARK    5  A    between atoms: C_11  and  C_12
REMARK    6  A    between atoms: C_15  and  C_21
REMARK    7  A    between atoms: C_24  and  C_29
REMARK                            x       y       z     vdW  Elec       q    Type
REMARK                         _______ _______ _______ _____ _____    ______ ____
ROOT
ATOM      1  C   UNL     1      32.499 -10.337 -22.812  0.00  0.00    -0.018 C 
ATOM      2  C   UNL     1      33.096 -11.328 -23.591  0.00  0.00    +0.003 C 
ATOM      3  C   UNL     1      32.998 -12.667 -23.212  0.00  0.00    +0.087 C 
ATOM      4  C   UNL     1      31.804 -10.685 -21.655  0.00  0.00    -0.001 C 
ATOM      5  C   UNL     1      32.303 -13.015 -22.055  0.00  0.00    +0.143 C 
ATOM      6  C   UNL     1      31.706 -12.024 -21.275  0.00  0.00    +0.037 C 
ENDROOT
BRANCH   3   9
ATOM      7  O   UNL     1      33.556 -13.620 -25.280  0.00  0.00    -0.270 OA
ATOM      8  N   UNL     1      34.319 -14.705 -23.379  0.00  0.00    -0.297 N 
ATOM      9  C   UNL     1      33.627 -13.686 -24.042  0.00  0.00    +0.249 C 
ATOM     10  H   UNL     1      34.333 -14.694 -22.394  0.00  0.00    +0.150 HD
BRANCH   8  11
ATOM     11  C   UNL     1      35.013 -15.772 -24.062  0.00  0.00    +0.117 C 
BRANCH  11  12
ATOM     12  C   UNL     1      35.161 -16.990 -23.197  0.00  0.00    -0.003 C 
ATOM     13  C   UNL     1      35.341 -16.851 -21.821  0.00  0.00    -0.003 C 
ATOM     14  C   UNL     1      35.117 -18.262 -23.769  0.00  0.00    -0.003 C 
ATOM     15  C   UNL     1      35.435 -19.253 -21.589  0.00  0.00    +0.071 C 
ATOM     16  C   UNL     1      35.479 -17.981 -21.016  0.00  0.00    +0.004 C 
ATOM     17  C   UNL     1      35.255 -19.393 -22.965  0.00  0.00    +0.004 C 
BRANCH  15  21
ATOM     18  F   UNL     1      34.485 -20.680 -19.941  0.00  0.00    -0.166 F 
ATOM     19  F   UNL     1      35.756 -21.619 -21.435  0.00  0.00    -0.166 F 
ATOM     20  F   UNL     1      36.641 -20.403 -19.872  0.00  0.00    -0.166 F 
ATOM     21  C   UNL     1      35.578 -20.462 -20.728  0.00  0.00    +0.419 C 
ENDBRANCH  15  21
ENDBRANCH  11  12
ENDBRANCH   8  11
ENDBRANCH   3   9
BRANCH   5  22
ATOM     22  O   UNL     1      32.193 -14.318 -21.670  0.00  0.00    -0.471 OA
ATOM     23  C   UNL     1      32.576 -14.631 -20.332  0.00  0.00    +0.252 C 
ENDBRANCH   5  22
BRANCH   1  24
ATOM     24  C   UNL     1      32.605  -8.889 -23.223  0.00  0.00    +0.080 C 
BRANCH  24  29
ATOM     25  O   UNL     1      31.020  -7.067 -23.188  0.00  0.00    -0.428 OA
ATOM     26  O   UNL     1      33.368  -7.455 -20.633  0.00  0.00    -0.271 OA
ATOM     27  O   UNL     1      30.887  -4.794 -23.395  0.00  0.00    -0.226 OA
ATOM     28  N   UNL     1      32.266  -5.810 -21.846  0.00  0.00    -0.218 N 
ATOM     29  C   UNL     1      31.747  -7.988 -22.358  0.00  0.00    +0.250 C 
ATOM     30  C   UNL     1      32.574  -7.088 -21.485  0.00  0.00    +0.271 C 
ATOM     31  C   UNL     1      31.355  -5.784 -22.852  0.00  0.00    +0.408 C 
ATOM     32  H   UNL     1      32.655  -5.007 -21.429  0.00  0.00    +0.161 HD
ENDBRANCH  24  29
ENDBRANCH   1  24
TORSDOF 7
ENDMDL
MODEL 6
REMARK VINA RESULT:     -12.0      7.401     10.943
REMARK  Name = 56842109
REMARK  7 active torsions:
REMARK  status: ('A' for Active; 'I' for Inactive)
REMARK    1  A    between atoms: C_1  and  C_24
REMARK    2  A    between atoms: C_3  and  C_9
REMARK    3  A    between atoms: C_5  and  O_22
REMARK    4  A    between atoms: N_8  and  C_11
REMARK    5  A    between atoms: C_11  and  C_12
REMARK    6  A    between atoms: C_15  and  C_21
REMARK    7  A    between atoms: C_24  and  C_29
REMARK                            x       y       z     vdW  Elec       q    Type
REMARK                         _______ _______ _______ _____ _____    ______ ____
ROOT
ATOM      1  C   UNL     1      35.688 -23.732 -14.023  0.00  0.00    -0.018 C 
ATOM      2  C   UNL     1      35.083 -23.404 -15.237  0.00  0.00    +0.003 C 
ATOM      3  C   UNL     1      33.711 -23.589 -15.405  0.00  0.00    +0.087 C 
ATOM      4  C   UNL     1      34.920 -24.245 -12.978  0.00  0.00    -0.001 C 
ATOM      5  C   UNL     1      32.943 -24.102 -14.360  0.00  0.00    +0.143 C 
ATOM      6  C   UNL     1      33.548 -24.430 -13.146  0.00  0.00    +0.037 C 
ENDROOT
BRANCH   3   9
ATOM      7  O   UNL     1      31.908 -22.889 -16.730  0.00  0.00    -0.270 OA
ATOM      8  N   UNL     1      33.918 -23.294 -17.812  0.00  0.00    -0.297 N 
ATOM      9  C   UNL     1      33.099 -23.238 -16.679  0.00  0.00    +0.249 C 
ATOM     10  H   UNL     1      34.853 -23.581 -17.698  0.00  0.00    +0.150 HD
BRANCH   8  11
ATOM     11  C   UNL     1      33.464 -22.954 -19.141  0.00  0.00    +0.117 C 
BRANCH  11  12
ATOM     12  C   UNL     1      34.271 -21.841 -19.743  0.00  0.00    -0.003 C 
ATOM     13  C   UNL     1      35.659 -21.829 -19.599  0.00  0.00    -0.003 C 
ATOM     14  C   UNL     1      33.635 -20.818 -20.446  0.00  0.00    -0.003 C 
ATOM     15  C   UNL     1      35.773 -19.773 -20.861  0.00  0.00    +0.071 C 
ATOM     16  C   UNL     1      36.410 -20.796 -20.158  0.00  0.00    +0.004 C 
ATOM     17  C   UNL     1      34.385 -19.784 -21.004  0.00  0.00    +0.004 C 
BRANCH  15  21
ATOM     18  F   UNL     1      36.065 -17.435 -21.180  0.00  0.00    -0.166 F 
ATOM     19  F   UNL     1      37.872 -18.636 -21.027  0.00  0.00    -0.166 F 
ATOM     20  F   UNL     1      36.659 -18.730 -22.823  0.00  0.00    -0.166 F 
ATOM     21  C   UNL     1      36.576 -18.669 -21.461  0.00  0.00    +0.419 C 
ENDBRANCH  15  21
ENDBRANCH  11  12
ENDBRANCH   8  11
ENDBRANCH   3   9
BRANCH   5  22
ATOM     22  O   UNL     1      31.600 -24.287 -14.503  0.00  0.00    -0.471 OA
ATOM     23  C   UNL     1      30.940 -25.049 -13.494  0.00  0.00    +0.252 C 
ENDBRANCH   5  22
BRANCH   1  24
ATOM     24  C   UNL     1      37.172 -23.531 -13.842  0.00  0.00    +0.080 C 
BRANCH  24  29
ATOM     25  O   UNL     1      37.544 -25.333 -15.406  0.00  0.00    -0.428 OA
ATOM     26  O   UNL     1      37.817 -25.856 -11.965  0.00  0.00    -0.271 OA
ATOM     27  O   UNL     1      36.635 -27.300 -16.135  0.00  0.00    -0.226 OA
ATOM     28  N   UNL     1      37.126 -26.920 -13.910  0.00  0.00    -0.218 N 
ATOM     29  C   UNL     1      37.957 -24.790 -14.141  0.00  0.00    +0.250 C 
ATOM     30  C   UNL     1      37.643 -25.896 -13.173  0.00  0.00    +0.271 C 
ATOM     31  C   UNL     1      37.057 -26.598 -15.227  0.00  0.00    +0.408 C 
ATOM     32  H   UNL     1      36.838 -27.783 -13.535  0.00  0.00    +0.161 HD
ENDBRANCH  24  29
ENDBRANCH   1  24
TORSDOF 7
ENDMDL
MODEL 7
REMARK VINA RESULT:     -11.8      5.557      9.679
REMARK  Name = 56842109
REMARK  7 active torsions:
REMARK  status: ('A' for Active; 'I' for Inactive)
REMARK    1  A    between atoms: C_1  and  C_24
REMARK    2  A    between atoms: C_3  and  C_9
REMARK    3  A    between atoms: C_5  and  O_22
REMARK    4  A    between atoms: N_8  and  C_11
REMARK    5  A    between atoms: C_11  and  C_12
REMARK    6  A    between atoms: C_15  and  C_21
REMARK    7  A    between atoms: C_24  and  C_29
REMARK                            x       y       z     vdW  Elec       q    Type
REMARK                         _______ _______ _______ _____ _____    ______ ____
ROOT
ATOM      1  C   UNL     1      32.754 -13.464 -21.689  0.00  0.00    -0.018 C 
ATOM      2  C   UNL     1      33.616 -14.476 -21.263  0.00  0.00    +0.003 C 
ATOM      3  C   UNL     1      34.169 -15.358 -22.192  0.00  0.00    +0.087 C 
ATOM      4  C   UNL     1      32.447 -13.335 -23.043  0.00  0.00    -0.001 C 
ATOM      5  C   UNL     1      33.862 -15.228 -23.546  0.00  0.00    +0.143 C 
ATOM      6  C   UNL     1      33.000 -14.217 -23.972  0.00  0.00    +0.037 C 
ENDROOT
BRANCH   3   9
ATOM      7  O   UNL     1      35.326 -16.519 -20.516  0.00  0.00    -0.270 OA
ATOM      8  N   UNL     1      35.591 -17.269 -22.694  0.00  0.00    -0.297 N 
ATOM      9  C   UNL     1      35.067 -16.405 -21.726  0.00  0.00    +0.249 C 
ATOM     10  H   UNL     1      35.343 -17.119 -23.636  0.00  0.00    +0.150 HD
BRANCH   8  11
ATOM     11  C   UNL     1      36.476 -18.369 -22.387  0.00  0.00    +0.117 C 
BRANCH  11  12
ATOM     12  C   UNL     1      35.820 -19.386 -21.499  0.00  0.00    -0.003 C 
ATOM     13  C   UNL     1      34.440 -19.578 -21.559  0.00  0.00    -0.003 C 
ATOM     14  C   UNL     1      36.590 -20.141 -20.614  0.00  0.00    -0.003 C 
ATOM     15  C   UNL     1      34.600 -21.277 -19.851  0.00  0.00    +0.071 C 
ATOM     16  C   UNL     1      33.829 -20.523 -20.735  0.00  0.00    +0.004 C 
ATOM     17  C   UNL     1      35.980 -21.085 -19.790  0.00  0.00    +0.004 C 
BRANCH  15  21
ATOM     18  F   UNL     1      34.657 -22.528 -17.829  0.00  0.00    -0.166 F 
ATOM     19  F   UNL     1      32.696 -21.931 -18.557  0.00  0.00    -0.166 F 
ATOM     20  F   UNL     1      33.789 -23.510 -19.565  0.00  0.00    -0.166 F 
ATOM     21  C   UNL     1      33.948 -22.290 -18.971  0.00  0.00    +0.419 C 
ENDBRANCH  15  21
ENDBRANCH  11  12
ENDBRANCH   8  11
ENDBRANCH   3   9
BRANCH   5  22
ATOM     22  O   UNL     1      34.395 -16.078 -24.469  0.00  0.00    -0.471 OA
ATOM     23  C   UNL     1      33.801 -16.080 -25.766  0.00  0.00    +0.252 C 
ENDBRANCH   5  22
BRANCH   1  24
ATOM     24  C   UNL     1      32.157 -12.510 -20.685  0.00  0.00    +0.080 C 
BRANCH  24  29
ATOM     25  O   UNL     1      32.291 -10.835 -22.420  0.00  0.00    -0.428 OA
ATOM     26  O   UNL     1      30.734 -10.144 -19.372  0.00  0.00    -0.271 OA
ATOM     27  O   UNL     1      33.294  -8.844 -22.925  0.00  0.00    -0.226 OA
ATOM     28  N   UNL     1      32.036  -9.138 -21.010  0.00  0.00    -0.218 N 
ATOM     29  C   UNL     1      31.469 -11.338 -21.353  0.00  0.00    +0.250 C 
ATOM     30  C   UNL     1      31.341 -10.158 -20.432  0.00  0.00    +0.271 C 
ATOM     31  C   UNL     1      32.605  -9.527 -22.180  0.00  0.00    +0.408 C 
ATOM     32  H   UNL     1      32.115  -8.234 -20.628  0.00  0.00    +0.161 HD
ENDBRANCH  24  29
ENDBRANCH   1  24
TORSDOF 7
ENDMDL
MODEL 8
REMARK VINA RESULT:     -11.8      7.155     10.550
REMARK  Name = 56842109
REMARK  7 active torsions:
REMARK  status: ('A' for Active; 'I' for Inactive)
REMARK    1  A    between atoms: C_1  and  C_24
REMARK    2  A    between atoms: C_3  and  C_9
REMARK    3  A    between atoms: C_5  and  O_22
REMARK    4  A    between atoms: N_8  and  C_11
REMARK    5  A    between atoms: C_11  and  C_12
REMARK    6  A    between atoms: C_15  and  C_21
REMARK    7  A    between atoms: C_24  and  C_29
REMARK                            x       y       z     vdW  Elec       q    Type
REMARK                         _______ _______ _______ _____ _____    ______ ____
ROOT
ATOM      1  C   UNL     1      34.154 -24.112 -14.437  0.00  0.00    -0.018 C 
ATOM      2  C   UNL     1      34.212 -23.970 -15.824  0.00  0.00    +0.003 C 
ATOM      3  C   UNL     1      33.097 -23.508 -16.524  0.00  0.00    +0.087 C 
ATOM      4  C   UNL     1      32.983 -23.792 -13.752  0.00  0.00    -0.001 C 
ATOM      5  C   UNL     1      31.926 -23.188 -15.839  0.00  0.00    +0.143 C 
ATOM      6  C   UNL     1      31.868 -23.330 -14.453  0.00  0.00    +0.037 C 
ENDROOT
BRANCH   3   9
ATOM      7  O   UNL     1      33.643 -24.284 -18.669  0.00  0.00    -0.270 OA
ATOM      8  N   UNL     1      32.696 -22.173 -18.520  0.00  0.00    -0.297 N 
ATOM      9  C   UNL     1      33.179 -23.366 -17.972  0.00  0.00    +0.249 C 
ATOM     10  H   UNL     1      32.343 -21.488 -17.907  0.00  0.00    +0.150 HD
BRANCH   8  11
ATOM     11  C   UNL     1      32.688 -21.893 -19.938  0.00  0.00    +0.117 C 
BRANCH  11  12
ATOM     12  C   UNL     1      33.852 -21.039 -20.348  0.00  0.00    -0.003 C 
ATOM     13  C   UNL     1      33.649 -19.938 -21.180  0.00  0.00    -0.003 C 
ATOM     14  C   UNL     1      35.136 -21.346 -19.899  0.00  0.00    -0.003 C 
ATOM     15  C   UNL     1      36.014 -19.451 -21.112  0.00  0.00    +0.071 C 
ATOM     16  C   UNL     1      34.730 -19.143 -21.563  0.00  0.00    +0.004 C 
ATOM     17  C   UNL     1      36.217 -20.552 -20.281  0.00  0.00    +0.004 C 
BRANCH  15  21
ATOM     18  F   UNL     1      38.124 -18.513 -20.547  0.00  0.00    -0.166 F 
ATOM     19  F   UNL     1      37.820 -19.055 -22.631  0.00  0.00    -0.166 F 
ATOM     20  F   UNL     1      36.825 -17.311 -21.811  0.00  0.00    -0.166 F 
ATOM     21  C   UNL     1      37.170 -18.600 -21.519  0.00  0.00    +0.419 C 
ENDBRANCH  15  21
ENDBRANCH  11  12
ENDBRANCH   8  11
ENDBRANCH   3   9
BRANCH   5  22
ATOM     22  O   UNL     1      30.828 -22.733 -16.506  0.00  0.00    -0.471 OA
ATOM     23  C   UNL     1      29.566 -23.279 -16.124  0.00  0.00    +0.252 C 
ENDBRANCH   5  22
BRANCH   1  24
ATOM     24  C   UNL     1      35.360 -24.610 -13.680  0.00  0.00    +0.080 C 
BRANCH  24  29
ATOM     25  O   UNL     1      36.896 -22.990 -12.758  0.00  0.00    -0.428 OA
ATOM     26  O   UNL     1      35.305 -25.326 -10.708  0.00  0.00    -0.271 OA
ATOM     27  O   UNL     1      38.962 -22.813 -11.795  0.00  0.00    -0.226 OA
ATOM     28  N   UNL     1      37.322 -24.201 -10.946  0.00  0.00    -0.218 N 
ATOM     29  C   UNL     1      35.691 -23.729 -12.494  0.00  0.00    +0.250 C 
ATOM     30  C   UNL     1      36.040 -24.531 -11.273  0.00  0.00    +0.271 C 
ATOM     31  C   UNL     1      37.839 -23.297 -11.817  0.00  0.00    +0.408 C 
ATOM     32  H   UNL     1      37.811 -24.570 -10.175  0.00  0.00    +0.161 HD
ENDBRANCH  24  29
ENDBRANCH   1  24
TORSDOF 7
ENDMDL
MODEL 9
REMARK VINA RESULT:     -11.7      5.291     10.216
REMARK  Name = 56842109
REMARK  7 active torsions:
REMARK  status: ('A' for Active; 'I' for Inactive)
REMARK    1  A    between atoms: C_1  and  C_24
REMARK    2  A    between atoms: C_3  and  C_9
REMARK    3  A    between atoms: C_5  and  O_22
REMARK    4  A    between atoms: N_8  and  C_11
REMARK    5  A    between atoms: C_11  and  C_12
REMARK    6  A    between atoms: C_15  and  C_21
REMARK    7  A    between atoms: C_24  and  C_29
REMARK                            x       y       z     vdW  Elec       q    Type
REMARK                         _______ _______ _______ _____ _____    ______ ____
ROOT
ATOM      1  C   UNL     1      32.107  -9.411 -21.847  0.00  0.00    -0.018 C 
ATOM      2  C   UNL     1      32.743 -10.113 -22.872  0.00  0.00    +0.003 C 
ATOM      3  C   UNL     1      32.744 -11.508 -22.865  0.00  0.00    +0.087 C 
ATOM      4  C   UNL     1      31.473 -10.104 -20.817  0.00  0.00    -0.001 C 
ATOM      5  C   UNL     1      32.109 -12.201 -21.835  0.00  0.00    +0.143 C 
ATOM      6  C   UNL     1      31.474 -11.499 -20.810  0.00  0.00    +0.037 C 
ENDROOT
BRANCH   3   9
ATOM      7  O   UNL     1      34.544 -11.874 -24.322  0.00  0.00    -0.270 OA
ATOM      8  N   UNL     1      32.730 -13.307 -24.505  0.00  0.00    -0.297 N 
ATOM      9  C   UNL     1      33.411 -12.221 -23.946  0.00  0.00    +0.249 C 
ATOM     10  H   UNL     1      31.834 -13.524 -24.158  0.00  0.00    +0.150 HD
BRANCH   8  11
ATOM     11  C   UNL     1      33.269 -14.126 -25.567  0.00  0.00    +0.117 C 
BRANCH  11  12
ATOM     12  C   UNL     1      33.864 -15.401 -25.045  0.00  0.00    -0.003 C 
ATOM     13  C   UNL     1      34.578 -15.399 -23.847  0.00  0.00    -0.003 C 
ATOM     14  C   UNL     1      33.703 -16.589 -25.758  0.00  0.00    -0.003 C 
ATOM     15  C   UNL     1      34.970 -17.771 -24.074  0.00  0.00    +0.071 C 
ATOM     16  C   UNL     1      35.132 -16.583 -23.361  0.00  0.00    +0.004 C 
ATOM     17  C   UNL     1      34.256 -17.774 -25.273  0.00  0.00    +0.004 C 
BRANCH  15  21
ATOM     18  F   UNL     1      35.518 -20.051 -24.468  0.00  0.00    -0.166 F 
ATOM     19  F   UNL     1      36.872 -18.924 -23.193  0.00  0.00    -0.166 F 
ATOM     20  F   UNL     1      34.926 -19.521 -22.444  0.00  0.00    -0.166 F 
ATOM     21  C   UNL     1      35.559 -19.038 -23.554  0.00  0.00    +0.419 C 
ENDBRANCH  15  21
ENDBRANCH  11  12
ENDBRANCH   8  11
ENDBRANCH   3   9
BRANCH   5  22
ATOM     22  O   UNL     1      32.096 -13.564 -21.813  0.00  0.00    -0.471 OA
ATOM     23  C   UNL     1      32.452 -14.194 -20.583  0.00  0.00    +0.252 C 
ENDBRANCH   5  22
BRANCH   1  24
ATOM     24  C   UNL     1      32.106  -7.902 -21.856  0.00  0.00    +0.080 C 
BRANCH  24  29
ATOM     25  O   UNL     1      33.032  -7.392 -24.027  0.00  0.00    -0.428 OA
ATOM     26  O   UNL     1      30.565  -5.370 -22.605  0.00  0.00    -0.271 OA
ATOM     27  O   UNL     1      34.355  -5.872 -25.107  0.00  0.00    -0.226 OA
ATOM     28  N   UNL     1      32.468  -5.245 -23.929  0.00  0.00    -0.218 N 
ATOM     29  C   UNL     1      31.833  -7.341 -23.235  0.00  0.00    +0.250 C 
ATOM     30  C   UNL     1      31.508  -5.875 -23.195  0.00  0.00    +0.271 C 
ATOM     31  C   UNL     1      33.376  -6.128 -24.420  0.00  0.00    +0.408 C 
ATOM     32  H   UNL     1      32.501  -4.274 -24.084  0.00  0.00    +0.161 HD
ENDBRANCH  24  29
ENDBRANCH   1  24
TORSDOF 7
ENDMDL
