MODEL 1
REMARK VINA RESULT:     -13.9      0.000      0.000
REMARK  Name = 216239
REMARK  6 active torsions:
REMARK  status: ('A' for Active; 'I' for Inactive)
REMARK    1  A    between atoms: C_1  and  N_9
REMARK    2  A    between atoms: C_2  and  O_24
REMARK    3  A    between atoms: N_8  and  C_14
REMARK    4  A    between atoms: C_15  and  C_23
REMARK    5  A    between atoms: O_24  and  C_26
REMARK    6  A    between atoms: C_28  and  C_33
REMARK                            x       y       z     vdW  Elec       q    Type
REMARK                         _______ _______ _______ _____ _____    ______ ____
ROOT
ATOM      1  C   UNL     1      35.065 -21.908 -18.962  0.00  0.00    +0.052 C 
ATOM      2  C   UNL     1      34.258 -23.461 -16.816  0.00  0.00    +0.145 C 
ATOM      3  C   UNL     1      35.899 -22.032 -17.865  0.00  0.00    +0.018 C 
ATOM      4  C   UNL     1      33.835 -22.543 -19.011  0.00  0.00    +0.018 C 
ATOM      5  C   UNL     1      35.493 -22.814 -16.784  0.00  0.00    +0.039 C 
ATOM      6  C   UNL     1      33.428 -23.325 -17.929  0.00  0.00    +0.039 C 
ENDROOT
BRANCH   1   9
ATOM      7  O   UNL     1      33.523 -19.955 -20.615  0.00  0.00    -0.252 OA
ATOM      8  N   UNL     1      35.504 -19.617 -21.818  0.00  0.00    -0.268 N 
ATOM      9  N   UNL     1      35.477 -21.114 -20.059  0.00  0.00    -0.268 N 
ATOM     10  C   UNL     1      34.708 -20.206 -20.805  0.00  0.00    +0.308 C 
ATOM     11  H   UNL     1      36.442 -19.916 -21.853  0.00  0.00    +0.156 HD
ATOM     12  H   UNL     1      36.417 -21.209 -20.332  0.00  0.00    +0.156 HD
BRANCH   8  14
ATOM     13 CL   UNL     1      33.953 -15.639 -25.904  0.00  0.00    -0.082 Cl
ATOM     14  C   UNL     1      35.137 -18.671 -22.775  0.00  0.00    +0.052 C 
ATOM     15  C   UNL     1      34.591 -16.392 -23.364  0.00  0.00    +0.083 C 
ATOM     16  C   UNL     1      34.957 -17.338 -22.407  0.00  0.00    +0.019 C 
ATOM     17  C   UNL     1      34.950 -19.059 -24.102  0.00  0.00    +0.016 C 
ATOM     18  C   UNL     1      34.403 -16.780 -24.691  0.00  0.00    +0.062 C 
ATOM     19  C   UNL     1      34.584 -18.113 -25.060  0.00  0.00    +0.013 C 
BRANCH  15  23
ATOM     20  F   UNL     1      35.055 -14.074 -23.726  0.00  0.00    -0.166 F 
ATOM     21  F   UNL     1      33.106 -14.572 -22.914  0.00  0.00    -0.166 F 
ATOM     22  F   UNL     1      34.879 -14.752 -21.668  0.00  0.00    -0.166 F 
ATOM     23  C   UNL     1      34.410 -14.974 -22.929  0.00  0.00    +0.419 C 
ENDBRANCH  15  23
ENDBRANCH   8  14
ENDBRANCH   1   9
BRANCH   2  24
ATOM     24  O   UNL     1      33.861 -24.223 -15.760  0.00  0.00    -0.453 OA
BRANCH  24  26
ATOM     25  N   UNL     1      36.684 -25.089 -12.835  0.00  0.00    -0.239 NA
ATOM     26  C   UNL     1      34.802 -24.512 -14.786  0.00  0.00    +0.149 C 
ATOM     27  C   UNL     1      35.932 -25.222 -15.130  0.00  0.00    +0.061 C 
ATOM     28  C   UNL     1      36.843 -25.485 -14.119  0.00  0.00    +0.137 C 
ATOM     29  C   UNL     1      34.586 -24.083 -13.493  0.00  0.00    +0.058 C 
ATOM     30  C   UNL     1      35.557 -24.397 -12.556  0.00  0.00    +0.102 C 
BRANCH  28  33
ATOM     31  O   UNL     1      38.002 -27.391 -14.840  0.00  0.00    -0.268 OA
ATOM     32  N   UNL     1      39.274 -25.566 -14.187  0.00  0.00    -0.298 N 
ATOM     33  C   UNL     1      38.059 -26.227 -14.403  0.00  0.00    +0.264 C 
ATOM     34  C   UNL     1      40.565 -26.163 -14.444  0.00  0.00    +0.111 C 
ATOM     35  H   UNL     1      39.248 -24.645 -13.839  0.00  0.00    +0.150 HD
ENDBRANCH  28  33
ENDBRANCH  24  26
ENDBRANCH   2  24
TORSDOF 6
ENDMDL
MODEL 2
REMARK VINA RESULT:     -13.9      5.810     11.620
REMARK  Name = 216239
REMARK  6 active torsions:
REMARK  status: ('A' for Active; 'I' for Inactive)
REMARK    1  A    between atoms: C_1  and  N_9
REMARK    2  A    between atoms: C_2  and  O_24
REMARK    3  A    between atoms: N_8  and  C_14
REMARK    4  A    between atoms: C_15  and  C_23
REMARK    5  A    between atoms: O_24  and  C_26
REMARK    6  A    between atoms: C_28  and  C_33
REMARK                            x       y       z     vdW  Elec       q    Type
REMARK                         _______ _______ _______ _____ _____    ______ ____
ROOT
ATOM      1  C   UNL     1      36.563 -19.862 -20.452  0.00  0.00    +0.052 C 
ATOM      2  C   UNL     1      35.781 -18.949 -22.948  0.00  0.00    +0.145 C 
ATOM      3  C   UNL     1      37.431 -19.072 -21.186  0.00  0.00    +0.018 C 
ATOM      4  C   UNL     1      35.312 -20.206 -20.938  0.00  0.00    +0.018 C 
ATOM      5  C   UNL     1      37.037 -18.612 -22.443  0.00  0.00    +0.039 C 
ATOM      6  C   UNL     1      34.919 -19.747 -22.196  0.00  0.00    +0.039 C 
ENDROOT
BRANCH   1   9
ATOM      7  O   UNL     1      35.769 -22.329 -18.968  0.00  0.00    -0.252 OA
ATOM      8  N   UNL     1      37.194 -21.596 -17.260  0.00  0.00    -0.268 N 
ATOM      9  N   UNL     1      36.962 -20.329 -19.178  0.00  0.00    -0.268 N 
ATOM     10  C   UNL     1      36.557 -21.503 -18.522  0.00  0.00    +0.308 C 
ATOM     11  H   UNL     1      37.803 -20.856 -17.033  0.00  0.00    +0.156 HD
ATOM     12  H   UNL     1      37.602 -19.762 -18.691  0.00  0.00    +0.156 HD
BRANCH   8  14
ATOM     13 CL   UNL     1      36.641 -25.819 -13.162  0.00  0.00    -0.082 Cl
ATOM     14  C   UNL     1      37.074 -22.596 -16.295  0.00  0.00    +0.052 C 
ATOM     15  C   UNL     1      38.065 -24.354 -14.967  0.00  0.00    +0.083 C 
ATOM     16  C   UNL     1      38.186 -23.355 -15.933  0.00  0.00    +0.019 C 
ATOM     17  C   UNL     1      35.839 -22.835 -15.691  0.00  0.00    +0.016 C 
ATOM     18  C   UNL     1      36.830 -24.594 -14.363  0.00  0.00    +0.062 C 
ATOM     19  C   UNL     1      35.718 -23.834 -14.725  0.00  0.00    +0.013 C 
BRANCH  15  23
ATOM     20  F   UNL     1      40.382 -24.814 -15.340  0.00  0.00    -0.166 F 
ATOM     21  F   UNL     1      39.659 -24.994 -13.302  0.00  0.00    -0.166 F 
ATOM     22  F   UNL     1      39.105 -26.484 -14.787  0.00  0.00    -0.166 F 
ATOM     23  C   UNL     1      39.281 -25.144 -14.605  0.00  0.00    +0.419 C 
ENDBRANCH  15  23
ENDBRANCH   8  14
ENDBRANCH   1   9
BRANCH   2  24
ATOM     24  O   UNL     1      35.398 -18.501 -24.175  0.00  0.00    -0.453 OA
BRANCH  24  26
ATOM     25  N   UNL     1      33.665 -14.730 -24.402  0.00  0.00    -0.239 NA
ATOM     26  C   UNL     1      34.820 -17.245 -24.250  0.00  0.00    +0.149 C 
ATOM     27  C   UNL     1      34.623 -16.523 -23.092  0.00  0.00    +0.061 C 
ATOM     28  C   UNL     1      34.043 -15.272 -23.221  0.00  0.00    +0.137 C 
ATOM     29  C   UNL     1      34.456 -16.744 -25.482  0.00  0.00    +0.058 C 
ATOM     30  C   UNL     1      33.882 -15.483 -25.504  0.00  0.00    +0.102 C 
BRANCH  28  33
ATOM     31  O   UNL     1      34.632 -14.416 -21.119  0.00  0.00    -0.268 OA
ATOM     32  N   UNL     1      32.623 -13.698 -22.027  0.00  0.00    -0.298 N 
ATOM     33  C   UNL     1      33.803 -14.451 -22.047  0.00  0.00    +0.264 C 
ATOM     34  C   UNL     1      32.255 -12.817 -20.941  0.00  0.00    +0.111 C 
ATOM     35  H   UNL     1      32.009 -13.772 -22.794  0.00  0.00    +0.150 HD
ENDBRANCH  28  33
ENDBRANCH  24  26
ENDBRANCH   2  24
TORSDOF 6
ENDMDL
MODEL 3
REMARK VINA RESULT:     -13.7      6.027     11.921
REMARK  Name = 216239
REMARK  6 active torsions:
REMARK  status: ('A' for Active; 'I' for Inactive)
REMARK    1  A    between atoms: C_1  and  N_9
REMARK    2  A    between atoms: C_2  and  O_24
REMARK    3  A    between atoms: N_8  and  C_14
REMARK    4  A    between atoms: C_15  and  C_23
REMARK    5  A    between atoms: O_24  and  C_26
REMARK    6  A    between atoms: C_28  and  C_33
REMARK                            x       y       z     vdW  Elec       q    Type
REMARK                         _______ _______ _______ _____ _____    ______ ____
ROOT
ATOM      1  C   UNL     1      35.725 -20.817 -19.923  0.00  0.00    +0.052 C 
ATOM      2  C   UNL     1      35.756 -18.908 -21.930  0.00  0.00    +0.145 C 
ATOM      3  C   UNL     1      36.915 -20.183 -20.236  0.00  0.00    +0.018 C 
ATOM      4  C   UNL     1      34.550 -20.518 -20.592  0.00  0.00    +0.018 C 
ATOM      5  C   UNL     1      36.931 -19.221 -21.247  0.00  0.00    +0.039 C 
ATOM      6  C   UNL     1      34.566 -19.558 -21.604  0.00  0.00    +0.039 C 
ENDROOT
BRANCH   1   9
ATOM      7  O   UNL     1      37.249 -20.938 -17.358  0.00  0.00    -0.252 OA
ATOM      8  N   UNL     1      36.139 -22.961 -16.952  0.00  0.00    -0.268 N 
ATOM      9  N   UNL     1      35.710 -21.792 -18.898  0.00  0.00    -0.268 N 
ATOM     10  C   UNL     1      36.450 -21.801 -17.704  0.00  0.00    +0.308 C 
ATOM     11  H   UNL     1      35.477 -23.568 -17.357  0.00  0.00    +0.156 HD
ATOM     12  H   UNL     1      35.107 -22.556 -19.037  0.00  0.00    +0.156 HD
BRANCH   8  14
ATOM     13 CL   UNL     1      38.252 -24.623 -11.689  0.00  0.00    -0.082 Cl
ATOM     14  C   UNL     1      36.645 -23.359 -15.714  0.00  0.00    +0.052 C 
ATOM     15  C   UNL     1      38.342 -24.477 -14.409  0.00  0.00    +0.083 C 
ATOM     16  C   UNL     1      37.836 -24.080 -15.646  0.00  0.00    +0.019 C 
ATOM     17  C   UNL     1      35.958 -23.034 -14.544  0.00  0.00    +0.016 C 
ATOM     18  C   UNL     1      37.656 -24.152 -13.238  0.00  0.00    +0.062 C 
ATOM     19  C   UNL     1      36.464 -23.430 -13.306  0.00  0.00    +0.013 C 
BRANCH  15  23
ATOM     20  F   UNL     1      40.593 -24.659 -13.619  0.00  0.00    -0.166 F 
ATOM     21  F   UNL     1      39.488 -26.508 -13.876  0.00  0.00    -0.166 F 
ATOM     22  F   UNL     1      40.169 -25.400 -15.619  0.00  0.00    -0.166 F 
ATOM     23  C   UNL     1      39.623 -25.246 -14.379  0.00  0.00    +0.419 C 
ENDBRANCH  15  23
ENDBRANCH   8  14
ENDBRANCH   1   9
BRANCH   2  24
ATOM     24  O   UNL     1      35.772 -17.972 -22.918  0.00  0.00    -0.453 OA
BRANCH  24  26
ATOM     25  N   UNL     1      34.082 -14.267 -22.089  0.00  0.00    -0.239 NA
ATOM     26  C   UNL     1      35.210 -16.737 -22.642  0.00  0.00    +0.149 C 
ATOM     27  C   UNL     1      34.937 -15.873 -23.681  0.00  0.00    +0.061 C 
ATOM     28  C   UNL     1      34.373 -14.651 -23.353  0.00  0.00    +0.137 C 
ATOM     29  C   UNL     1      34.935 -16.399 -21.334  0.00  0.00    +0.058 C 
ATOM     30  C   UNL     1      34.372 -15.153 -21.111  0.00  0.00    +0.102 C 
BRANCH  28  33
ATOM     31  O   UNL     1      34.186 -12.467 -24.186  0.00  0.00    -0.268 OA
ATOM     32  N   UNL     1      33.630 -14.198 -25.625  0.00  0.00    -0.298 N 
ATOM     33  C   UNL     1      34.057 -13.687 -24.393  0.00  0.00    +0.264 C 
ATOM     34  C   UNL     1      33.301 -13.369 -26.763  0.00  0.00    +0.111 C 
ATOM     35  H   UNL     1      33.549 -15.174 -25.722  0.00  0.00    +0.150 HD
ENDBRANCH  28  33
ENDBRANCH  24  26
ENDBRANCH   2  24
TORSDOF 6
ENDMDL
MODEL 4
REMARK VINA RESULT:     -13.6      2.800      4.374
REMARK  Name = 216239
REMARK  6 active torsions:
REMARK  status: ('A' for Active; 'I' for Inactive)
REMARK    1  A    between atoms: C_1  and  N_9
REMARK    2  A    between atoms: C_2  and  O_24
REMARK    3  A    between atoms: N_8  and  C_14
REMARK    4  A    between atoms: C_15  and  C_23
REMARK    5  A    between atoms: O_24  and  C_26
REMARK    6  A    between atoms: C_28  and  C_33
REMARK                            x       y       z     vdW  Elec       q    Type
REMARK                         _______ _______ _______ _____ _____    ______ ____
ROOT
ATOM      1  C   UNL     1      35.546 -21.376 -19.403  0.00  0.00    +0.052 C 
ATOM      2  C   UNL     1      34.911 -23.117 -17.344  0.00  0.00    +0.145 C 
ATOM      3  C   UNL     1      36.437 -21.542 -18.357  0.00  0.00    +0.018 C 
ATOM      4  C   UNL     1      34.343 -22.062 -19.442  0.00  0.00    +0.018 C 
ATOM      5  C   UNL     1      36.118 -22.419 -17.320  0.00  0.00    +0.039 C 
ATOM      6  C   UNL     1      34.023 -22.938 -18.404  0.00  0.00    +0.039 C 
ENDROOT
BRANCH   1   9
ATOM      7  O   UNL     1      33.782 -19.621 -21.054  0.00  0.00    -0.252 OA
ATOM      8  N   UNL     1      35.729 -18.936 -22.161  0.00  0.00    -0.268 N 
ATOM      9  N   UNL     1      35.870 -20.487 -20.454  0.00  0.00    -0.268 N 
ATOM     10  C   UNL     1      34.997 -19.679 -21.202  0.00  0.00    +0.308 C 
ATOM     11  H   UNL     1      36.703 -19.087 -22.166  0.00  0.00    +0.156 HD
ATOM     12  H   UNL     1      36.823 -20.426 -20.691  0.00  0.00    +0.156 HD
BRANCH   8  14
ATOM     13 CL   UNL     1      33.727 -15.089 -26.176  0.00  0.00    -0.082 Cl
ATOM     14  C   UNL     1      35.255 -18.021 -23.101  0.00  0.00    +0.052 C 
ATOM     15  C   UNL     1      34.510 -15.793 -23.662  0.00  0.00    +0.083 C 
ATOM     16  C   UNL     1      34.983 -16.707 -22.721  0.00  0.00    +0.019 C 
ATOM     17  C   UNL     1      35.054 -18.421 -24.423  0.00  0.00    +0.016 C 
ATOM     18  C   UNL     1      34.308 -16.192 -24.984  0.00  0.00    +0.062 C 
ATOM     19  C   UNL     1      34.582 -17.506 -25.363  0.00  0.00    +0.013 C 
BRANCH  15  23
ATOM     20  F   UNL     1      34.718 -13.444 -24.066  0.00  0.00    -0.166 F 
ATOM     21  F   UNL     1      32.901 -14.117 -23.090  0.00  0.00    -0.166 F 
ATOM     22  F   UNL     1      34.783 -14.115 -21.999  0.00  0.00    -0.166 F 
ATOM     23  C   UNL     1      34.232 -14.393 -23.215  0.00  0.00    +0.419 C 
ENDBRANCH  15  23
ENDBRANCH   8  14
ENDBRANCH   1   9
BRANCH   2  24
ATOM     24  O   UNL     1      34.599 -23.971 -16.332  0.00  0.00    -0.453 OA
BRANCH  24  26
ATOM     25  N   UNL     1      31.091 -23.263 -14.218  0.00  0.00    -0.239 NA
ATOM     26  C   UNL     1      33.430 -23.734 -15.628  0.00  0.00    +0.149 C 
ATOM     27  C   UNL     1      32.288 -23.384 -16.315  0.00  0.00    +0.061 C 
ATOM     28  C   UNL     1      31.145 -23.160 -15.565  0.00  0.00    +0.137 C 
ATOM     29  C   UNL     1      33.435 -23.855 -14.254  0.00  0.00    +0.058 C 
ATOM     30  C   UNL     1      32.240 -23.608 -13.596  0.00  0.00    +0.102 C 
BRANCH  28  33
ATOM     31  O   UNL     1      29.895 -22.430 -17.410  0.00  0.00    -0.268 OA
ATOM     32  N   UNL     1      28.731 -22.873 -15.455  0.00  0.00    -0.298 N 
ATOM     33  C   UNL     1      29.901 -22.787 -16.218  0.00  0.00    +0.264 C 
ATOM     34  C   UNL     1      27.417 -22.560 -15.969  0.00  0.00    +0.111 C 
ATOM     35  H   UNL     1      28.807 -23.162 -14.517  0.00  0.00    +0.150 HD
ENDBRANCH  28  33
ENDBRANCH  24  26
ENDBRANCH   2  24
TORSDOF 6
ENDMDL
MODEL 5
REMARK VINA RESULT:     -13.3      5.924      9.678
REMARK  Name = 216239
REMARK  6 active torsions:
REMARK  status: ('A' for Active; 'I' for Inactive)
REMARK    1  A    between atoms: C_1  and  N_9
REMARK    2  A    between atoms: C_2  and  O_24
REMARK    3  A    between atoms: N_8  and  C_14
REMARK    4  A    between atoms: C_15  and  C_23
REMARK    5  A    between atoms: O_24  and  C_26
REMARK    6  A    between atoms: C_28  and  C_33
REMARK                            x       y       z     vdW  Elec       q    Type
REMARK                         _______ _______ _______ _____ _____    ______ ____
ROOT
ATOM      1  C   UNL     1      33.325 -14.077 -22.835  0.00  0.00    +0.052 C 
ATOM      2  C   UNL     1      34.782 -16.378 -23.345  0.00  0.00    +0.145 C 
ATOM      3  C   UNL     1      33.969 -14.716 -21.790  0.00  0.00    +0.018 C 
ATOM      4  C   UNL     1      33.392 -14.564 -24.130  0.00  0.00    +0.018 C 
ATOM      5  C   UNL     1      34.704 -15.874 -22.046  0.00  0.00    +0.039 C 
ATOM      6  C   UNL     1      34.125 -15.723 -24.387  0.00  0.00    +0.039 C 
ENDROOT
BRANCH   1   9
ATOM      7  O   UNL     1      33.935 -11.227 -23.485  0.00  0.00    -0.252 OA
ATOM      8  N   UNL     1      31.894 -10.700 -22.463  0.00  0.00    -0.268 N 
ATOM      9  N   UNL     1      32.581 -12.903 -22.575  0.00  0.00    -0.268 N 
ATOM     10  C   UNL     1      32.914 -11.578 -22.903  0.00  0.00    +0.308 C 
ATOM     11  H   UNL     1      31.131 -11.125 -22.008  0.00  0.00    +0.156 HD
ATOM     12  H   UNL     1      31.725 -13.028 -22.106  0.00  0.00    +0.156 HD
BRANCH   8  14
ATOM     13 CL   UNL     1      31.612  -4.823 -23.027  0.00  0.00    -0.082 Cl
ATOM     14  C   UNL     1      31.827  -9.312 -22.586  0.00  0.00    +0.052 C 
ATOM     15  C   UNL     1      31.763  -7.121 -21.569  0.00  0.00    +0.083 C 
ATOM     16  C   UNL     1      31.830  -8.509 -21.446  0.00  0.00    +0.019 C 
ATOM     17  C   UNL     1      31.756  -8.727 -23.851  0.00  0.00    +0.016 C 
ATOM     18  C   UNL     1      31.693  -6.536 -22.834  0.00  0.00    +0.062 C 
ATOM     19  C   UNL     1      31.690  -7.340 -23.974  0.00  0.00    +0.013 C 
BRANCH  15  23
ATOM     20  F   UNL     1      31.638  -7.032 -19.182  0.00  0.00    -0.166 F 
ATOM     21  F   UNL     1      32.919  -5.576 -20.155  0.00  0.00    -0.166 F 
ATOM     22  F   UNL     1      30.757  -5.384 -20.295  0.00  0.00    -0.166 F 
ATOM     23  C   UNL     1      31.771  -6.295 -20.323  0.00  0.00    +0.419 C 
ENDBRANCH  15  23
ENDBRANCH   8  14
ENDBRANCH   1   9
BRANCH   2  24
ATOM     24  O   UNL     1      35.496 -17.509 -23.594  0.00  0.00    -0.453 OA
BRANCH  24  26
ATOM     25  N   UNL     1      36.239 -20.070 -20.407  0.00  0.00    -0.239 NA
ATOM     26  C   UNL     1      35.743 -18.361 -22.532  0.00  0.00    +0.149 C 
ATOM     27  C   UNL     1      34.704 -19.096 -22.001  0.00  0.00    +0.061 C 
ATOM     28  C   UNL     1      35.003 -19.936 -20.941  0.00  0.00    +0.137 C 
ATOM     29  C   UNL     1      37.023 -18.458 -22.029  0.00  0.00    +0.058 C 
ATOM     30  C   UNL     1      37.218 -19.325 -20.966  0.00  0.00    +0.102 C 
BRANCH  28  33
ATOM     31  O   UNL     1      32.771 -20.596 -20.660  0.00  0.00    -0.268 OA
ATOM     32  N   UNL     1      34.365 -21.691 -19.381  0.00  0.00    -0.298 N 
ATOM     33  C   UNL     1      33.962 -20.743 -20.328  0.00  0.00    +0.264 C 
ATOM     34  C   UNL     1      33.451 -22.583 -18.703  0.00  0.00    +0.111 C 
ATOM     35  H   UNL     1      35.324 -21.754 -19.164  0.00  0.00    +0.150 HD
ENDBRANCH  28  33
ENDBRANCH  24  26
ENDBRANCH   2  24
TORSDOF 6
ENDMDL
MODEL 6
REMARK VINA RESULT:     -13.1      5.394     11.711
REMARK  Name = 216239
REMARK  6 active torsions:
REMARK  status: ('A' for Active; 'I' for Inactive)
REMARK    1  A    between atoms: C_1  and  N_9
REMARK    2  A    between atoms: C_2  and  O_24
REMARK    3  A    between atoms: N_8  and  C_14
REMARK    4  A    between atoms: C_15  and  C_23
REMARK    5  A    between atoms: O_24  and  C_26
REMARK    6  A    between atoms: C_28  and  C_33
REMARK                            x       y       z     vdW  Elec       q    Type
REMARK                         _______ _______ _______ _____ _____    ______ ____
ROOT
ATOM      1  C   UNL     1      35.386 -19.055 -22.843  0.00  0.00    +0.052 C 
ATOM      2  C   UNL     1      34.710 -17.354 -24.921  0.00  0.00    +0.145 C 
ATOM      3  C   UNL     1      35.786 -17.731 -22.791  0.00  0.00    +0.018 C 
ATOM      4  C   UNL     1      34.655 -19.549 -23.911  0.00  0.00    +0.018 C 
ATOM      5  C   UNL     1      35.445 -16.874 -23.838  0.00  0.00    +0.039 C 
ATOM      6  C   UNL     1      34.315 -18.692 -24.958  0.00  0.00    +0.039 C 
ENDROOT
BRANCH   1   9
ATOM      7  O   UNL     1      33.704 -20.176 -20.644  0.00  0.00    -0.252 OA
ATOM      8  N   UNL     1      35.641 -21.263 -19.901  0.00  0.00    -0.268 N 
ATOM      9  N   UNL     1      35.732 -19.924 -21.781  0.00  0.00    -0.268 N 
ATOM     10  C   UNL     1      34.898 -20.424 -20.767  0.00  0.00    +0.308 C 
ATOM     11  H   UNL     1      36.594 -21.371 -20.123  0.00  0.00    +0.156 HD
ATOM     12  H   UNL     1      36.672 -20.213 -21.748  0.00  0.00    +0.156 HD
BRANCH   8  14
ATOM     13 CL   UNL     1      33.741 -24.206 -15.140  0.00  0.00    -0.082 Cl
ATOM     14  C   UNL     1      35.202 -21.958 -18.773  0.00  0.00    +0.052 C 
ATOM     15  C   UNL     1      35.632 -22.869 -16.577  0.00  0.00    +0.083 C 
ATOM     16  C   UNL     1      36.071 -22.175 -17.705  0.00  0.00    +0.019 C 
ATOM     17  C   UNL     1      33.892 -22.435 -18.715  0.00  0.00    +0.016 C 
ATOM     18  C   UNL     1      34.322 -23.346 -16.519  0.00  0.00    +0.062 C 
ATOM     19  C   UNL     1      33.453 -23.128 -17.588  0.00  0.00    +0.013 C 
BRANCH  15  23
ATOM     20  F   UNL     1      37.771 -22.408 -15.611  0.00  0.00    -0.166 F 
ATOM     21  F   UNL     1      36.110 -22.676 -14.241  0.00  0.00    -0.166 F 
ATOM     22  F   UNL     1      36.934 -24.390 -15.296  0.00  0.00    -0.166 F 
ATOM     23  C   UNL     1      36.593 -23.079 -15.452  0.00  0.00    +0.419 C 
ENDBRANCH  15  23
ENDBRANCH   8  14
ENDBRANCH   1   9
BRANCH   2  24
ATOM     24  O   UNL     1      34.379 -16.519 -25.943  0.00  0.00    -0.453 OA
BRANCH  24  26
ATOM     25  N   UNL     1      33.000 -12.722 -24.965  0.00  0.00    -0.239 NA
ATOM     26  C   UNL     1      33.918 -15.254 -25.617  0.00  0.00    +0.149 C 
ATOM     27  C   UNL     1      33.483 -15.005 -24.333  0.00  0.00    +0.061 C 
ATOM     28  C   UNL     1      33.034 -13.724 -24.057  0.00  0.00    +0.137 C 
ATOM     29  C   UNL     1      33.907 -14.272 -26.585  0.00  0.00    +0.058 C 
ATOM     30  C   UNL     1      33.437 -13.023 -26.208  0.00  0.00    +0.102 C 
BRANCH  28  33
ATOM     31  O   UNL     1      32.681 -14.191 -21.787  0.00  0.00    -0.268 OA
ATOM     32  N   UNL     1      31.992 -12.116 -22.558  0.00  0.00    -0.298 N 
ATOM     33  C   UNL     1      32.560 -13.384 -22.727  0.00  0.00    +0.264 C 
ATOM     34  C   UNL     1      31.496 -11.624 -21.292  0.00  0.00    +0.111 C 
ATOM     35  H   UNL     1      31.926 -11.526 -23.344  0.00  0.00    +0.150 HD
ENDBRANCH  28  33
ENDBRANCH  24  26
ENDBRANCH   2  24
TORSDOF 6
ENDMDL
MODEL 7
REMARK VINA RESULT:     -13.0      3.105      4.925
REMARK  Name = 216239
REMARK  6 active torsions:
REMARK  status: ('A' for Active; 'I' for Inactive)
REMARK    1  A    between atoms: C_1  and  N_9
REMARK    2  A    between atoms: C_2  and  O_24
REMARK    3  A    between atoms: N_8  and  C_14
REMARK    4  A    between atoms: C_15  and  C_23
REMARK    5  A    between atoms: O_24  and  C_26
REMARK    6  A    between atoms: C_28  and  C_33
REMARK                            x       y       z     vdW  Elec       q    Type
REMARK                         _______ _______ _______ _____ _____    ______ ____
ROOT
ATOM      1  C   UNL     1      35.341 -18.473 -21.784  0.00  0.00    +0.052 C 
ATOM      2  C   UNL     1      36.380 -20.562 -20.290  0.00  0.00    +0.145 C 
ATOM      3  C   UNL     1      36.684 -18.464 -21.450  0.00  0.00    +0.018 C 
ATOM      4  C   UNL     1      34.505 -19.503 -21.387  0.00  0.00    +0.018 C 
ATOM      5  C   UNL     1      37.208 -19.516 -20.698  0.00  0.00    +0.039 C 
ATOM      6  C   UNL     1      35.028 -20.555 -20.633  0.00  0.00    +0.039 C 
ENDROOT
BRANCH   1   9
ATOM      7  O   UNL     1      34.901 -15.612 -21.048  0.00  0.00    -0.252 OA
ATOM      8  N   UNL     1      34.066 -15.325 -23.218  0.00  0.00    -0.268 N 
ATOM      9  N   UNL     1      34.811 -17.406 -22.546  0.00  0.00    -0.268 N 
ATOM     10  C   UNL     1      34.625 -16.071 -22.151  0.00  0.00    +0.308 C 
ATOM     11  H   UNL     1      33.895 -15.827 -24.048  0.00  0.00    +0.156 HD
ATOM     12  H   UNL     1      34.539 -17.625 -23.466  0.00  0.00    +0.156 HD
BRANCH   8  14
ATOM     13 CL   UNL     1      32.642  -9.591 -23.391  0.00  0.00    -0.082 Cl
ATOM     14  C   UNL     1      33.724 -13.972 -23.250  0.00  0.00    +0.052 C 
ATOM     15  C   UNL     1      32.613 -12.070 -22.259  0.00  0.00    +0.083 C 
ATOM     16  C   UNL     1      32.954 -13.422 -22.227  0.00  0.00    +0.019 C 
ATOM     17  C   UNL     1      34.154 -13.171 -24.308  0.00  0.00    +0.016 C 
ATOM     18  C   UNL     1      33.042 -11.268 -23.317  0.00  0.00    +0.062 C 
ATOM     19  C   UNL     1      33.813 -11.819 -24.341  0.00  0.00    +0.013 C 
BRANCH  15  23
ATOM     20  F   UNL     1      32.178 -10.273 -20.742  0.00  0.00    -0.166 F 
ATOM     21  F   UNL     1      30.464 -11.399 -21.450  0.00  0.00    -0.166 F 
ATOM     22  F   UNL     1      31.837 -12.297 -20.023  0.00  0.00    -0.166 F 
ATOM     23  C   UNL     1      31.788 -11.518 -21.142  0.00  0.00    +0.419 C 
ENDBRANCH  15  23
ENDBRANCH   8  14
ENDBRANCH   1   9
BRANCH   2  24
ATOM     24  O   UNL     1      36.890 -21.587 -19.555  0.00  0.00    -0.453 OA
BRANCH  24  26
ATOM     25  N   UNL     1      34.592 -23.031 -16.407  0.00  0.00    -0.239 NA
ATOM     26  C   UNL     1      36.125 -22.069 -18.506  0.00  0.00    +0.149 C 
ATOM     27  C   UNL     1      36.710 -22.247 -17.270  0.00  0.00    +0.061 C 
ATOM     28  C   UNL     1      35.902 -22.729 -16.254  0.00  0.00    +0.137 C 
ATOM     29  C   UNL     1      34.794 -22.359 -18.721  0.00  0.00    +0.058 C 
ATOM     30  C   UNL     1      34.072 -22.838 -17.639  0.00  0.00    +0.102 C 
BRANCH  28  33
ATOM     31  O   UNL     1      37.652 -22.741 -14.694  0.00  0.00    -0.268 OA
ATOM     32  N   UNL     1      35.552 -23.357 -13.929  0.00  0.00    -0.298 N 
ATOM     33  C   UNL     1      36.446 -22.943 -14.924  0.00  0.00    +0.264 C 
ATOM     34  C   UNL     1      35.936 -23.588 -12.555  0.00  0.00    +0.111 C 
ATOM     35  H   UNL     1      34.610 -23.499 -14.179  0.00  0.00    +0.150 HD
ENDBRANCH  28  33
ENDBRANCH  24  26
ENDBRANCH   2  24
TORSDOF 6
ENDMDL
MODEL 8
REMARK VINA RESULT:     -13.0      5.469      9.256
REMARK  Name = 216239
REMARK  6 active torsions:
REMARK  status: ('A' for Active; 'I' for Inactive)
REMARK    1  A    between atoms: C_1  and  N_9
REMARK    2  A    between atoms: C_2  and  O_24
REMARK    3  A    between atoms: N_8  and  C_14
REMARK    4  A    between atoms: C_15  and  C_23
REMARK    5  A    between atoms: O_24  and  C_26
REMARK    6  A    between atoms: C_28  and  C_33
REMARK                            x       y       z     vdW  Elec       q    Type
REMARK                         _______ _______ _______ _____ _____    ______ ____
ROOT
ATOM      1  C   UNL     1      33.719 -14.300 -22.822  0.00  0.00    +0.052 C 
ATOM      2  C   UNL     1      34.921 -16.762 -23.230  0.00  0.00    +0.145 C 
ATOM      3  C   UNL     1      33.690 -14.866 -24.085  0.00  0.00    +0.018 C 
ATOM      4  C   UNL     1      34.336 -14.936 -21.758  0.00  0.00    +0.018 C 
ATOM      5  C   UNL     1      34.295 -16.107 -24.290  0.00  0.00    +0.039 C 
ATOM      6  C   UNL     1      34.942 -16.176 -21.964  0.00  0.00    +0.039 C 
ENDROOT
BRANCH   1   9
ATOM      7  O   UNL     1      34.145 -11.694 -24.219  0.00  0.00    -0.252 OA
ATOM      8  N   UNL     1      32.516 -10.814 -22.784  0.00  0.00    -0.268 N 
ATOM      9  N   UNL     1      33.105 -13.042 -22.615  0.00  0.00    -0.268 N 
ATOM     10  C   UNL     1      33.342 -11.841 -23.303  0.00  0.00    +0.308 C 
ATOM     11  H   UNL     1      31.920 -11.078 -22.045  0.00  0.00    +0.156 HD
ATOM     12  H   UNL     1      32.429 -13.003 -21.901  0.00  0.00    +0.156 HD
BRANCH   8  14
ATOM     13 CL   UNL     1      32.125  -5.156 -24.446  0.00  0.00    -0.082 Cl
ATOM     14  C   UNL     1      32.434  -9.478 -23.177  0.00  0.00    +0.052 C 
ATOM     15  C   UNL     1      33.505  -7.451 -23.938  0.00  0.00    +0.083 C 
ATOM     16  C   UNL     1      33.588  -8.787 -23.544  0.00  0.00    +0.019 C 
ATOM     17  C   UNL     1      31.197  -8.835 -23.202  0.00  0.00    +0.016 C 
ATOM     18  C   UNL     1      32.268  -6.806 -23.963  0.00  0.00    +0.062 C 
ATOM     19  C   UNL     1      31.114  -7.499 -23.595  0.00  0.00    +0.013 C 
BRANCH  15  23
ATOM     20  F   UNL     1      35.807  -6.991 -23.482  0.00  0.00    -0.166 F 
ATOM     21  F   UNL     1      35.218  -7.086 -25.567  0.00  0.00    -0.166 F 
ATOM     22  F   UNL     1      34.617  -5.390 -24.346  0.00  0.00    -0.166 F 
ATOM     23  C   UNL     1      34.764  -6.745 -24.326  0.00  0.00    +0.419 C 
ENDBRANCH  15  23
ENDBRANCH   8  14
ENDBRANCH   1   9
BRANCH   2  24
ATOM     24  O   UNL     1      35.513 -17.970 -23.431  0.00  0.00    -0.453 OA
BRANCH  24  26
ATOM     25  N   UNL     1      36.241 -20.344 -20.098  0.00  0.00    -0.239 NA
ATOM     26  C   UNL     1      35.754 -18.761 -22.320  0.00  0.00    +0.149 C 
ATOM     27  C   UNL     1      34.722 -19.494 -21.776  0.00  0.00    +0.061 C 
ATOM     28  C   UNL     1      35.016 -20.270 -20.667  0.00  0.00    +0.137 C 
ATOM     29  C   UNL     1      37.024 -18.797 -21.783  0.00  0.00    +0.058 C 
ATOM     30  C   UNL     1      37.215 -19.603 -20.672  0.00  0.00    +0.102 C 
BRANCH  28  33
ATOM     31  O   UNL     1      32.786 -20.927 -20.358  0.00  0.00    -0.268 OA
ATOM     32  N   UNL     1      34.393 -22.014 -19.088  0.00  0.00    -0.298 N 
ATOM     33  C   UNL     1      33.980 -21.072 -20.038  0.00  0.00    +0.264 C 
ATOM     34  C   UNL     1      33.485 -22.900 -18.394  0.00  0.00    +0.111 C 
ATOM     35  H   UNL     1      35.354 -22.077 -18.881  0.00  0.00    +0.150 HD
ENDBRANCH  28  33
ENDBRANCH  24  26
ENDBRANCH   2  24
TORSDOF 6
ENDMDL
MODEL 9
REMARK VINA RESULT:     -12.9      3.550      5.382
REMARK  Name = 216239
REMARK  6 active torsions:
REMARK  status: ('A' for Active; 'I' for Inactive)
REMARK    1  A    between atoms: C_1  and  N_9
REMARK    2  A    between atoms: C_2  and  O_24
REMARK    3  A    between atoms: N_8  and  C_14
REMARK    4  A    between atoms: C_15  and  C_23
REMARK    5  A    between atoms: O_24  and  C_26
REMARK    6  A    between atoms: C_28  and  C_33
REMARK                            x       y       z     vdW  Elec       q    Type
REMARK                         _______ _______ _______ _____ _____    ______ ____
ROOT
ATOM      1  C   UNL     1      35.369 -18.628 -21.758  0.00  0.00    +0.052 C 
ATOM      2  C   UNL     1      36.415 -20.708 -20.256  0.00  0.00    +0.145 C 
ATOM      3  C   UNL     1      36.708 -18.606 -21.411  0.00  0.00    +0.018 C 
ATOM      4  C   UNL     1      34.539 -19.668 -21.370  0.00  0.00    +0.018 C 
ATOM      5  C   UNL     1      37.235 -19.653 -20.655  0.00  0.00    +0.039 C 
ATOM      6  C   UNL     1      35.066 -20.715 -20.613  0.00  0.00    +0.039 C 
ENDROOT
BRANCH   1   9
ATOM      7  O   UNL     1      34.946 -15.759 -21.042  0.00  0.00    -0.252 OA
ATOM      8  N   UNL     1      34.091 -15.487 -23.206  0.00  0.00    -0.268 N 
ATOM      9  N   UNL     1      34.835 -17.566 -22.524  0.00  0.00    -0.268 N 
ATOM     10  C   UNL     1      34.657 -16.226 -22.138  0.00  0.00    +0.308 C 
ATOM     11  H   UNL     1      33.910 -15.996 -24.029  0.00  0.00    +0.156 HD
ATOM     12  H   UNL     1      34.554 -17.791 -23.439  0.00  0.00    +0.156 HD
BRANCH   8  14
ATOM     13 CL   UNL     1      32.686  -9.750 -23.413  0.00  0.00    -0.082 Cl
ATOM     14  C   UNL     1      33.753 -14.134 -23.246  0.00  0.00    +0.052 C 
ATOM     15  C   UNL     1      32.660 -12.219 -22.259  0.00  0.00    +0.083 C 
ATOM     16  C   UNL     1      32.997 -13.572 -22.219  0.00  0.00    +0.019 C 
ATOM     17  C   UNL     1      34.173 -13.344 -24.316  0.00  0.00    +0.016 C 
ATOM     18  C   UNL     1      33.080 -11.428 -23.329  0.00  0.00    +0.062 C 
ATOM     19  C   UNL     1      33.837 -11.991 -24.357  0.00  0.00    +0.013 C 
BRANCH  15  23
ATOM     20  F   UNL     1      31.843 -12.440 -20.022  0.00  0.00    -0.166 F 
ATOM     21  F   UNL     1      32.286 -10.433 -20.713  0.00  0.00    -0.166 F 
ATOM     22  F   UNL     1      30.540 -11.482 -21.475  0.00  0.00    -0.166 F 
ATOM     23  C   UNL     1      31.850 -11.654 -21.137  0.00  0.00    +0.419 C 
ENDBRANCH  15  23
ENDBRANCH   8  14
ENDBRANCH   1   9
BRANCH   2  24
ATOM     24  O   UNL     1      36.928 -21.729 -19.517  0.00  0.00    -0.453 OA
BRANCH  24  26
ATOM     25  N   UNL     1      34.952 -22.761 -16.010  0.00  0.00    -0.239 NA
ATOM     26  C   UNL     1      36.269 -22.072 -18.349  0.00  0.00    +0.149 C 
ATOM     27  C   UNL     1      34.924 -22.370 -18.396  0.00  0.00    +0.061 C 
ATOM     28  C   UNL     1      34.312 -22.709 -17.200  0.00  0.00    +0.137 C 
ATOM     29  C   UNL     1      36.974 -22.109 -17.164  0.00  0.00    +0.058 C 
ATOM     30  C   UNL     1      36.269 -22.458 -16.023  0.00  0.00    +0.102 C 
BRANCH  28  33
ATOM     31  O   UNL     1      32.153 -22.722 -18.116  0.00  0.00    -0.268 OA
ATOM     32  N   UNL     1      32.429 -23.734 -16.048  0.00  0.00    -0.298 N 
ATOM     33  C   UNL     1      32.897 -23.037 -17.169  0.00  0.00    +0.264 C 
ATOM     34  C   UNL     1      31.055 -24.151 -15.882  0.00  0.00    +0.111 C 
ATOM     35  H   UNL     1      33.071 -23.952 -15.334  0.00  0.00    +0.150 HD
ENDBRANCH  28  33
ENDBRANCH  24  26
ENDBRANCH   2  24
TORSDOF 6
ENDMDL
