MODEL 1
REMARK VINA RESULT:     -13.9      0.000      0.000
REMARK  Name = 49831257
REMARK  4 active torsions:
REMARK  status: ('A' for Active; 'I' for Inactive)
REMARK    1  A    between atoms: C_1  and  C_23
REMARK    2  A    between atoms: C_4  and  C_14
REMARK    3  A    between atoms: C_12  and  C_20
REMARK    4  A    between atoms: C_23  and  N_27
REMARK                            x       y       z     vdW  Elec       q    Type
REMARK                         _______ _______ _______ _____ _____    ______ ____
ROOT
ATOM      1  C   UNL     1      35.681 -20.212 -21.058  0.00  0.00    -0.043 C 
ATOM      2  C   UNL     1      34.295 -20.241 -20.906  0.00  0.00    -0.006 C 
ATOM      3  C   UNL     1      36.494 -20.926 -20.178  0.00  0.00    -0.006 C 
ATOM      4  C   UNL     1      34.535 -21.696 -18.992  0.00  0.00    +0.016 C 
ATOM      5  C   UNL     1      33.722 -20.982 -19.873  0.00  0.00    +0.001 C 
ATOM      6  C   UNL     1      35.922 -21.668 -19.145  0.00  0.00    +0.001 C 
ENDROOT
BRANCH   4  14
ATOM      7  O   UNL     1      36.984 -25.459 -13.241  0.00  0.00    -0.274 OA
ATOM      8  N   UNL     1      37.475 -24.123 -15.122  0.00  0.00    -0.217 N 
ATOM      9  N   UNL     1      34.716 -23.104 -16.911  0.00  0.00    -0.152 N 
ATOM     10  N   UNL     1      36.069 -23.099 -16.761  0.00  0.00    -0.092 NA
ATOM     11  N   UNL     1      35.111 -24.330 -15.093  0.00  0.00    -0.319 NA
ATOM     12  C   UNL     1      37.774 -24.887 -13.980  0.00  0.00    +0.234 C 
ATOM     13  C   UNL     1      36.241 -23.843 -15.670  0.00  0.00    +0.167 C 
ATOM     14  C   UNL     1      33.931 -22.477 -17.900  0.00  0.00    +0.077 C 
ATOM     15  C   UNL     1      34.160 -23.863 -15.872  0.00  0.00    +0.219 C 
ATOM     16  C   UNL     1      32.589 -22.617 -17.837  0.00  0.00    +0.017 C 
ATOM     17  C   UNL     1      32.746 -23.995 -15.827  0.00  0.00    +0.051 C 
ATOM     18  C   UNL     1      31.993 -23.398 -16.767  0.00  0.00    +0.005 C 
ATOM     19  H   UNL     1      38.249 -23.737 -15.593  0.00  0.00    +0.167 HD
BRANCH  12  20
ATOM     20  C   UNL     1      39.235 -24.987 -13.669  0.00  0.00    +0.077 C 
ATOM     21  C   UNL     1      40.224 -24.942 -14.797  0.00  0.00    +0.010 C 
ATOM     22  C   UNL     1      39.983 -26.228 -14.060  0.00  0.00    +0.010 C 
ENDBRANCH  12  20
ENDBRANCH   4  14
BRANCH   1  23
ATOM     23  C   UNL     1      36.300 -19.414 -22.175  0.00  0.00    -0.050 C 
BRANCH  23  27
ATOM     24  S   UNL     1      34.204 -16.738 -25.147  0.00  0.00    -0.014 S 
ATOM     25  O   UNL     1      32.930 -16.125 -25.463  0.00  0.00    -0.173 OA
ATOM     26  O   UNL     1      35.365 -16.528 -25.990  0.00  0.00    -0.173 OA
ATOM     27  N   UNL     1      35.301 -18.615 -22.891  0.00  0.00    +0.392 N 
ATOM     28  C   UNL     1      35.107 -19.156 -24.248  0.00  0.00    -0.051 C 
ATOM     29  C   UNL     1      35.718 -17.203 -22.919  0.00  0.00    -0.051 C 
ATOM     30  C   UNL     1      34.632 -16.292 -23.482  0.00  0.00    +0.128 C 
ATOM     31  C   UNL     1      33.946 -18.488 -24.974  0.00  0.00    +0.128 C 
ATOM     32  H   UNL     1      34.406 -18.665 -22.406  0.00  0.00    -0.079 HD
ENDBRANCH  23  27
ENDBRANCH   1  23
TORSDOF 4
ENDMDL
MODEL 2
REMARK VINA RESULT:     -13.8      4.672     11.157
REMARK  Name = 49831257
REMARK  4 active torsions:
REMARK  status: ('A' for Active; 'I' for Inactive)
REMARK    1  A    between atoms: C_1  and  C_23
REMARK    2  A    between atoms: C_4  and  C_14
REMARK    3  A    between atoms: C_12  and  C_20
REMARK    4  A    between atoms: C_23  and  N_27
REMARK                            x       y       z     vdW  Elec       q    Type
REMARK                         _______ _______ _______ _____ _____    ______ ____
ROOT
ATOM      1  C   UNL     1      36.032 -18.772 -21.699  0.00  0.00    -0.043 C 
ATOM      2  C   UNL     1      35.578 -17.571 -21.153  0.00  0.00    -0.006 C 
ATOM      3  C   UNL     1      35.892 -19.014 -23.065  0.00  0.00    -0.006 C 
ATOM      4  C   UNL     1      34.844 -16.855 -23.341  0.00  0.00    +0.016 C 
ATOM      5  C   UNL     1      34.983 -16.613 -21.974  0.00  0.00    +0.001 C 
ATOM      6  C   UNL     1      35.298 -18.056 -23.887  0.00  0.00    +0.001 C 
ENDROOT
BRANCH   4  14
ATOM      7  O   UNL     1      31.144 -10.646 -22.343  0.00  0.00    -0.274 OA
ATOM      8  N   UNL     1      32.290 -12.475 -21.391  0.00  0.00    -0.217 N 
ATOM      9  N   UNL     1      33.551 -14.719 -23.676  0.00  0.00    -0.152 N 
ATOM     10  N   UNL     1      33.389 -14.355 -22.375  0.00  0.00    -0.092 NA
ATOM     11  N   UNL     1      32.395 -12.815 -23.737  0.00  0.00    -0.319 NA
ATOM     12  C   UNL     1      31.563 -11.271 -21.378  0.00  0.00    +0.234 C 
ATOM     13  C   UNL     1      32.695 -13.223 -22.476  0.00  0.00    +0.167 C 
ATOM     14  C   UNL     1      34.214 -15.844 -24.207  0.00  0.00    +0.077 C 
ATOM     15  C   UNL     1      32.935 -13.753 -24.484  0.00  0.00    +0.219 C 
ATOM     16  C   UNL     1      34.255 -15.990 -25.549  0.00  0.00    +0.017 C 
ATOM     17  C   UNL     1      32.991 -13.929 -25.893  0.00  0.00    +0.051 C 
ATOM     18  C   UNL     1      33.624 -14.999 -26.404  0.00  0.00    +0.005 C 
ATOM     19  H   UNL     1      32.543 -12.831 -20.508  0.00  0.00    +0.167 HD
BRANCH  12  20
ATOM     20  C   UNL     1      31.293 -10.728 -20.010  0.00  0.00    +0.077 C 
ATOM     21  C   UNL     1      31.473  -9.259 -19.760  0.00  0.00    +0.010 C 
ATOM     22  C   UNL     1      32.443 -10.244 -19.175  0.00  0.00    +0.010 C 
ENDBRANCH  12  20
ENDBRANCH   4  14
BRANCH   1  23
ATOM     23  C   UNL     1      36.676 -19.806 -20.813  0.00  0.00    -0.050 C 
BRANCH  23  27
ATOM     24  S   UNL     1      33.829 -22.687 -18.819  0.00  0.00    -0.014 S 
ATOM     25  O   UNL     1      32.919 -22.837 -17.701  0.00  0.00    -0.173 OA
ATOM     26  O   UNL     1      34.034 -23.766 -19.766  0.00  0.00    -0.173 OA
ATOM     27  N   UNL     1      35.705 -20.427 -19.907  0.00  0.00    +0.392 N 
ATOM     28  C   UNL     1      36.302 -21.615 -19.273  0.00  0.00    -0.051 C 
ATOM     29  C   UNL     1      34.475 -20.758 -20.645  0.00  0.00    -0.051 C 
ATOM     30  C   UNL     1      33.358 -21.231 -19.721  0.00  0.00    +0.128 C 
ATOM     31  C   UNL     1      35.411 -22.193 -18.179  0.00  0.00    +0.128 C 
ATOM     32  H   UNL     1      35.456 -19.772 -19.166  0.00  0.00    -0.079 HD
ENDBRANCH  23  27
ENDBRANCH   1  23
TORSDOF 4
ENDMDL
MODEL 3
REMARK VINA RESULT:     -13.5      1.013      1.363
REMARK  Name = 49831257
REMARK  4 active torsions:
REMARK  status: ('A' for Active; 'I' for Inactive)
REMARK    1  A    between atoms: C_1  and  C_23
REMARK    2  A    between atoms: C_4  and  C_14
REMARK    3  A    between atoms: C_12  and  C_20
REMARK    4  A    between atoms: C_23  and  N_27
REMARK                            x       y       z     vdW  Elec       q    Type
REMARK                         _______ _______ _______ _____ _____    ______ ____
ROOT
ATOM      1  C   UNL     1      35.308 -20.389 -20.996  0.00  0.00    -0.043 C 
ATOM      2  C   UNL     1      36.206 -21.016 -20.133  0.00  0.00    -0.006 C 
ATOM      3  C   UNL     1      33.935 -20.495 -20.772  0.00  0.00    -0.006 C 
ATOM      4  C   UNL     1      34.359 -21.856 -18.822  0.00  0.00    +0.016 C 
ATOM      5  C   UNL     1      35.732 -21.750 -19.046  0.00  0.00    +0.001 C 
ATOM      6  C   UNL     1      33.460 -21.228 -19.685  0.00  0.00    +0.001 C 
ENDROOT
BRANCH   4  14
ATOM      7  O   UNL     1      37.327 -25.542 -13.269  0.00  0.00    -0.274 OA
ATOM      8  N   UNL     1      37.642 -24.220 -15.197  0.00  0.00    -0.217 N 
ATOM      9  N   UNL     1      34.731 -23.243 -16.752  0.00  0.00    -0.152 N 
ATOM     10  N   UNL     1      36.091 -23.224 -16.717  0.00  0.00    -0.092 NA
ATOM     11  N   UNL     1      35.291 -24.447 -14.963  0.00  0.00    -0.319 NA
ATOM     12  C   UNL     1      38.046 -24.970 -14.077  0.00  0.00    +0.234 C 
ATOM     13  C   UNL     1      36.363 -23.956 -15.639  0.00  0.00    +0.167 C 
ATOM     14  C   UNL     1      33.857 -22.632 -17.675  0.00  0.00    +0.077 C 
ATOM     15  C   UNL     1      34.273 -23.996 -15.661  0.00  0.00    +0.219 C 
ATOM     16  C   UNL     1      32.527 -22.783 -17.495  0.00  0.00    +0.017 C 
ATOM     17  C   UNL     1      32.869 -24.140 -15.494  0.00  0.00    +0.051 C 
ATOM     18  C   UNL     1      32.033 -23.559 -16.371  0.00  0.00    +0.005 C 
ATOM     19  H   UNL     1      38.369 -23.832 -15.736  0.00  0.00    +0.167 HD
BRANCH  12  20
ATOM     20  C   UNL     1      39.528 -25.054 -13.892  0.00  0.00    +0.077 C 
ATOM     21  C   UNL     1      40.410 -25.147 -15.103  0.00  0.00    +0.010 C 
ATOM     22  C   UNL     1      40.234 -26.340 -14.210  0.00  0.00    +0.010 C 
ENDBRANCH  12  20
ENDBRANCH   4  14
BRANCH   1  23
ATOM     23  C   UNL     1      35.820 -19.594 -22.168  0.00  0.00    -0.050 C 
BRANCH  23  27
ATOM     24  S   UNL     1      34.357 -15.473 -23.291  0.00  0.00    -0.014 S 
ATOM     25  O   UNL     1      33.168 -14.654 -23.411  0.00  0.00    -0.173 OA
ATOM     26  O   UNL     1      35.668 -14.940 -23.607  0.00  0.00    -0.173 OA
ATOM     27  N   UNL     1      34.982 -18.422 -22.439  0.00  0.00    +0.392 N 
ATOM     28  C   UNL     1      35.098 -18.042 -23.858  0.00  0.00    -0.051 C 
ATOM     29  C   UNL     1      35.364 -17.318 -21.543  0.00  0.00    -0.051 C 
ATOM     30  C   UNL     1      34.405 -16.137 -21.644  0.00  0.00    +0.128 C 
ATOM     31  C   UNL     1      34.107 -16.951 -24.245  0.00  0.00    +0.128 C 
ATOM     32  H   UNL     1      34.005 -18.647 -22.257  0.00  0.00    -0.079 HD
ENDBRANCH  23  27
ENDBRANCH   1  23
TORSDOF 4
ENDMDL
MODEL 4
REMARK VINA RESULT:     -12.6      3.918     10.658
REMARK  Name = 49831257
REMARK  4 active torsions:
REMARK  status: ('A' for Active; 'I' for Inactive)
REMARK    1  A    between atoms: C_1  and  C_23
REMARK    2  A    between atoms: C_4  and  C_14
REMARK    3  A    between atoms: C_12  and  C_20
REMARK    4  A    between atoms: C_23  and  N_27
REMARK                            x       y       z     vdW  Elec       q    Type
REMARK                         _______ _______ _______ _____ _____    ______ ____
ROOT
ATOM      1  C   UNL     1      36.424 -20.326 -20.287  0.00  0.00    -0.043 C 
ATOM      2  C   UNL     1      35.090 -20.365 -20.690  0.00  0.00    -0.006 C 
ATOM      3  C   UNL     1      37.303 -19.412 -20.869  0.00  0.00    -0.006 C 
ATOM      4  C   UNL     1      35.512 -18.577 -22.259  0.00  0.00    +0.016 C 
ATOM      5  C   UNL     1      34.634 -19.491 -21.677  0.00  0.00    +0.001 C 
ATOM      6  C   UNL     1      36.847 -18.537 -21.855  0.00  0.00    +0.001 C 
ENDROOT
BRANCH   4  14
ATOM      7  O   UNL     1      32.149 -12.104 -22.404  0.00  0.00    -0.274 OA
ATOM      8  N   UNL     1      33.082 -13.852 -21.125  0.00  0.00    -0.217 N 
ATOM      9  N   UNL     1      34.396 -16.436 -22.981  0.00  0.00    -0.152 N 
ATOM     10  N   UNL     1      34.141 -15.899 -21.757  0.00  0.00    -0.092 NA
ATOM     11  N   UNL     1      33.377 -14.498 -23.390  0.00  0.00    -0.319 NA
ATOM     12  C   UNL     1      32.437 -12.620 -21.332  0.00  0.00    +0.234 C 
ATOM     13  C   UNL     1      33.534 -14.754 -22.065  0.00  0.00    +0.167 C 
ATOM     14  C   UNL     1      35.031 -17.654 -23.301  0.00  0.00    +0.077 C 
ATOM     15  C   UNL     1      33.920 -15.551 -23.958  0.00  0.00    +0.219 C 
ATOM     16  C   UNL     1      35.182 -17.974 -24.604  0.00  0.00    +0.017 C 
ATOM     17  C   UNL     1      34.092 -15.911 -25.322  0.00  0.00    +0.051 C 
ATOM     18  C   UNL     1      34.698 -17.070 -25.633  0.00  0.00    +0.005 C 
ATOM     19  H   UNL     1      33.231 -14.104 -20.185  0.00  0.00    +0.167 HD
BRANCH  12  20
ATOM     20  C   UNL     1      32.080 -11.891 -20.075  0.00  0.00    +0.077 C 
ATOM     21  C   UNL     1      31.144 -10.720 -20.151  0.00  0.00    +0.010 C 
ATOM     22  C   UNL     1      32.601 -10.499 -19.863  0.00  0.00    +0.010 C 
ENDBRANCH  12  20
ENDBRANCH   4  14
BRANCH   1  23
ATOM     23  C   UNL     1      36.917 -21.269 -19.221  0.00  0.00    -0.050 C 
BRANCH  23  27
ATOM     24  S   UNL     1      34.203 -23.390 -16.302  0.00  0.00    -0.014 S 
ATOM     25  O   UNL     1      33.073 -23.199 -15.415  0.00  0.00    -0.173 OA
ATOM     26  O   UNL     1      34.837 -24.686 -16.437  0.00  0.00    -0.173 OA
ATOM     27  N   UNL     1      35.868 -21.584 -18.246  0.00  0.00    +0.392 N 
ATOM     28  C   UNL     1      36.478 -22.038 -16.984  0.00  0.00    -0.051 C 
ATOM     29  C   UNL     1      34.954 -22.593 -18.807  0.00  0.00    -0.051 C 
ATOM     30  C   UNL     1      33.735 -22.823 -17.919  0.00  0.00    +0.128 C 
ATOM     31  C   UNL     1      35.449 -22.198 -15.872  0.00  0.00    +0.128 C 
ATOM     32  H   UNL     1      35.322 -20.748 -18.044  0.00  0.00    -0.079 HD
ENDBRANCH  23  27
ENDBRANCH   1  23
TORSDOF 4
ENDMDL
MODEL 5
REMARK VINA RESULT:     -12.3      2.499      4.944
REMARK  Name = 49831257
REMARK  4 active torsions:
REMARK  status: ('A' for Active; 'I' for Inactive)
REMARK    1  A    between atoms: C_1  and  C_23
REMARK    2  A    between atoms: C_4  and  C_14
REMARK    3  A    between atoms: C_12  and  C_20
REMARK    4  A    between atoms: C_23  and  N_27
REMARK                            x       y       z     vdW  Elec       q    Type
REMARK                         _______ _______ _______ _____ _____    ______ ____
ROOT
ATOM      1  C   UNL     1      35.092 -20.094 -21.526  0.00  0.00    -0.043 C 
ATOM      2  C   UNL     1      33.954 -20.579 -20.883  0.00  0.00    -0.006 C 
ATOM      3  C   UNL     1      36.353 -20.312 -20.970  0.00  0.00    -0.006 C 
ATOM      4  C   UNL     1      35.337 -21.498 -19.127  0.00  0.00    +0.016 C 
ATOM      5  C   UNL     1      34.076 -21.281 -19.683  0.00  0.00    +0.001 C 
ATOM      6  C   UNL     1      36.476 -21.013 -19.770  0.00  0.00    +0.001 C 
ENDROOT
BRANCH   4  14
ATOM      7  O   UNL     1      30.786 -24.838 -14.505  0.00  0.00    -0.274 OA
ATOM      8  N   UNL     1      31.081 -23.629 -16.508  0.00  0.00    -0.217 N 
ATOM      9  N   UNL     1      34.344 -22.775 -17.196  0.00  0.00    -0.152 N 
ATOM     10  N   UNL     1      33.034 -22.745 -17.564  0.00  0.00    -0.092 NA
ATOM     11  N   UNL     1      33.255 -23.863 -15.585  0.00  0.00    -0.319 NA
ATOM     12  C   UNL     1      30.349 -24.309 -15.518  0.00  0.00    +0.234 C 
ATOM     13  C   UNL     1      32.440 -23.402 -16.570  0.00  0.00    +0.167 C 
ATOM     14  C   UNL     1      35.465 -22.237 -17.860  0.00  0.00    +0.077 C 
ATOM     15  C   UNL     1      34.445 -23.470 -15.982  0.00  0.00    +0.219 C 
ATOM     16  C   UNL     1      36.683 -22.403 -17.299  0.00  0.00    +0.017 C 
ATOM     17  C   UNL     1      35.737 -23.632 -15.413  0.00  0.00    +0.051 C 
ATOM     18  C   UNL     1      36.809 -23.122 -16.043  0.00  0.00    +0.005 C 
ATOM     19  H   UNL     1      30.553 -23.266 -17.257  0.00  0.00    +0.167 HD
BRANCH  12  20
ATOM     20  C   UNL     1      28.875 -24.367 -15.770  0.00  0.00    +0.077 C 
ATOM     21  C   UNL     1      28.340 -23.867 -17.080  0.00  0.00    +0.010 C 
ATOM     22  C   UNL     1      28.091 -23.088 -15.821  0.00  0.00    +0.010 C 
ENDBRANCH  12  20
ENDBRANCH   4  14
BRANCH   1  23
ATOM     23  C   UNL     1      34.961 -19.339 -22.821  0.00  0.00    -0.050 C 
BRANCH  23  27
ATOM     24  S   UNL     1      34.432 -14.874 -22.408  0.00  0.00    -0.014 S 
ATOM     25  O   UNL     1      35.148 -13.633 -22.191  0.00  0.00    -0.173 OA
ATOM     26  O   UNL     1      32.992 -14.887 -22.578  0.00  0.00    -0.173 OA
ATOM     27  N   UNL     1      35.197 -17.903 -22.641  0.00  0.00    +0.392 N 
ATOM     28  C   UNL     1      34.492 -17.428 -21.437  0.00  0.00    -0.051 C 
ATOM     29  C   UNL     1      34.774 -17.172 -23.847  0.00  0.00    -0.051 C 
ATOM     30  C   UNL     1      35.168 -15.700 -23.797  0.00  0.00    +0.128 C 
ATOM     31  C   UNL     1      34.851 -15.989 -21.089  0.00  0.00    +0.128 C 
ATOM     32  H   UNL     1      36.192 -17.730 -22.505  0.00  0.00    -0.079 HD
ENDBRANCH  23  27
ENDBRANCH   1  23
TORSDOF 4
ENDMDL
MODEL 6
REMARK VINA RESULT:     -12.2      2.683      5.295
REMARK  Name = 49831257
REMARK  4 active torsions:
REMARK  status: ('A' for Active; 'I' for Inactive)
REMARK    1  A    between atoms: C_1  and  C_23
REMARK    2  A    between atoms: C_4  and  C_14
REMARK    3  A    between atoms: C_12  and  C_20
REMARK    4  A    between atoms: C_23  and  N_27
REMARK                            x       y       z     vdW  Elec       q    Type
REMARK                         _______ _______ _______ _____ _____    ______ ____
ROOT
ATOM      1  C   UNL     1      35.488 -20.177 -21.232  0.00  0.00    -0.043 C 
ATOM      2  C   UNL     1      36.608 -20.548 -20.488  0.00  0.00    -0.006 C 
ATOM      3  C   UNL     1      34.213 -20.548 -20.805  0.00  0.00    -0.006 C 
ATOM      4  C   UNL     1      35.177 -21.660 -18.890  0.00  0.00    +0.016 C 
ATOM      5  C   UNL     1      36.453 -21.290 -19.317  0.00  0.00    +0.001 C 
ATOM      6  C   UNL     1      34.057 -21.289 -19.634  0.00  0.00    +0.001 C 
ENDROOT
BRANCH   4  14
ATOM      7  O   UNL     1      29.568 -24.337 -15.070  0.00  0.00    -0.274 OA
ATOM      8  N   UNL     1      30.321 -23.138 -16.956  0.00  0.00    -0.217 N 
ATOM      9  N   UNL     1      33.741 -22.810 -17.169  0.00  0.00    -0.152 N 
ATOM     10  N   UNL     1      32.515 -22.557 -17.704  0.00  0.00    -0.092 NA
ATOM     11  N   UNL     1      32.284 -23.749 -15.770  0.00  0.00    -0.319 NA
ATOM     12  C   UNL     1      29.363 -23.716 -16.104  0.00  0.00    +0.234 C 
ATOM     13  C   UNL     1      31.694 -23.135 -16.829  0.00  0.00    +0.167 C 
ATOM     14  C   UNL     1      35.013 -22.445 -17.654  0.00  0.00    +0.077 C 
ATOM     15  C   UNL     1      33.564 -23.545 -15.989  0.00  0.00    +0.219 C 
ATOM     16  C   UNL     1      36.101 -22.822 -16.949  0.00  0.00    +0.017 C 
ATOM     17  C   UNL     1      34.724 -23.931 -15.264  0.00  0.00    +0.051 C 
ATOM     18  C   UNL     1      35.939 -23.586 -15.724  0.00  0.00    +0.005 C 
ATOM     19  H   UNL     1      29.964 -22.674 -17.749  0.00  0.00    +0.167 HD
BRANCH  12  20
ATOM     20  C   UNL     1      27.947 -23.527 -16.549  0.00  0.00    +0.077 C 
ATOM     21  C   UNL     1      27.603 -22.340 -17.402  0.00  0.00    +0.010 C 
ATOM     22  C   UNL     1      27.145 -22.395 -15.974  0.00  0.00    +0.010 C 
ENDBRANCH  12  20
ENDBRANCH   4  14
BRANCH   1  23
ATOM     23  C   UNL     1      35.655 -19.375 -22.496  0.00  0.00    -0.050 C 
BRANCH  23  27
ATOM     24  S   UNL     1      34.189 -15.110 -22.728  0.00  0.00    -0.014 S 
ATOM     25  O   UNL     1      33.006 -14.280 -22.619  0.00  0.00    -0.173 OA
ATOM     26  O   UNL     1      35.486 -14.531 -23.015  0.00  0.00    -0.173 OA
ATOM     27  N   UNL     1      34.820 -18.170 -22.489  0.00  0.00    +0.392 N 
ATOM     28  C   UNL     1      34.859 -17.527 -23.815  0.00  0.00    -0.051 C 
ATOM     29  C   UNL     1      35.268 -17.257 -21.424  0.00  0.00    -0.051 C 
ATOM     30  C   UNL     1      34.322 -16.075 -21.242  0.00  0.00    +0.128 C 
ATOM     31  C   UNL     1      33.862 -16.379 -23.928  0.00  0.00    +0.128 C 
ATOM     32  H   UNL     1      33.851 -18.422 -22.295  0.00  0.00    -0.079 HD
ENDBRANCH  23  27
ENDBRANCH   1  23
TORSDOF 4
ENDMDL
MODEL 7
REMARK VINA RESULT:     -11.8      7.753     14.392
REMARK  Name = 49831257
REMARK  4 active torsions:
REMARK  status: ('A' for Active; 'I' for Inactive)
REMARK    1  A    between atoms: C_1  and  C_23
REMARK    2  A    between atoms: C_4  and  C_14
REMARK    3  A    between atoms: C_12  and  C_20
REMARK    4  A    between atoms: C_23  and  N_27
REMARK                            x       y       z     vdW  Elec       q    Type
REMARK                         _______ _______ _______ _____ _____    ______ ____
ROOT
ATOM      1  C   UNL     1      33.554 -13.948 -24.067  0.00  0.00    -0.043 C 
ATOM      2  C   UNL     1      33.997 -12.661 -24.367  0.00  0.00    -0.006 C 
ATOM      3  C   UNL     1      32.715 -14.160 -22.973  0.00  0.00    -0.006 C 
ATOM      4  C   UNL     1      32.763 -11.796 -22.479  0.00  0.00    +0.016 C 
ATOM      5  C   UNL     1      33.602 -11.585 -23.573  0.00  0.00    +0.001 C 
ATOM      6  C   UNL     1      32.319 -13.084 -22.178  0.00  0.00    +0.001 C 
ENDROOT
BRANCH   4  14
ATOM      7  O   UNL     1      31.752  -4.636 -23.448  0.00  0.00    -0.274 OA
ATOM      8  N   UNL     1      32.338  -6.724 -24.376  0.00  0.00    -0.217 N 
ATOM      9  N   UNL     1      32.251  -9.351 -22.154  0.00  0.00    -0.152 N 
ATOM     10  N   UNL     1      32.479  -8.909 -23.420  0.00  0.00    -0.092 NA
ATOM     11  N   UNL     1      31.860  -7.158 -22.092  0.00  0.00    -0.319 NA
ATOM     12  C   UNL     1      32.101  -5.337 -24.388  0.00  0.00    +0.234 C 
ATOM     13  C   UNL     1      32.234  -7.604 -23.320  0.00  0.00    +0.167 C 
ATOM     14  C   UNL     1      32.347 -10.660 -21.639  0.00  0.00    +0.077 C 
ATOM     15  C   UNL     1      31.869  -8.255 -21.367  0.00  0.00    +0.219 C 
ATOM     16  C   UNL     1      32.057 -10.859 -20.334  0.00  0.00    +0.017 C 
ATOM     17  C   UNL     1      31.569  -8.490 -19.998  0.00  0.00    +0.051 C 
ATOM     18  C   UNL     1      31.658  -9.737 -19.503  0.00  0.00    +0.005 C 
ATOM     19  H   UNL     1      32.614  -7.118 -25.235  0.00  0.00    +0.167 HD
BRANCH  12  20
ATOM     20  C   UNL     1      32.311  -4.687 -25.719  0.00  0.00    +0.077 C 
ATOM     21  C   UNL     1      33.509  -5.071 -26.537  0.00  0.00    +0.010 C 
ATOM     22  C   UNL     1      33.446  -3.719 -25.889  0.00  0.00    +0.010 C 
ENDBRANCH  12  20
ENDBRANCH   4  14
BRANCH   1  23
ATOM     23  C   UNL     1      33.979 -15.110 -24.925  0.00  0.00    -0.050 C 
BRANCH  23  27
ATOM     24  S   UNL     1      35.488 -18.831 -22.859  0.00  0.00    -0.014 S 
ATOM     25  O   UNL     1      35.075 -19.963 -22.054  0.00  0.00    -0.173 OA
ATOM     26  O   UNL     1      36.873 -18.657 -23.251  0.00  0.00    -0.173 OA
ATOM     27  N   UNL     1      34.073 -16.352 -24.152  0.00  0.00    +0.392 N 
ATOM     28  C   UNL     1      34.957 -16.153 -22.990  0.00  0.00    -0.051 C 
ATOM     29  C   UNL     1      34.546 -17.445 -25.019  0.00  0.00    -0.051 C 
ATOM     30  C   UNL     1      34.483 -18.800 -24.324  0.00  0.00    +0.128 C 
ATOM     31  C   UNL     1      34.944 -17.348 -22.045  0.00  0.00    +0.128 C 
ATOM     32  H   UNL     1      33.152 -16.612 -23.800  0.00  0.00    -0.079 HD
ENDBRANCH  23  27
ENDBRANCH   1  23
TORSDOF 4
ENDMDL
MODEL 8
REMARK VINA RESULT:     -11.8      2.716      4.976
REMARK  Name = 49831257
REMARK  4 active torsions:
REMARK  status: ('A' for Active; 'I' for Inactive)
REMARK    1  A    between atoms: C_1  and  C_23
REMARK    2  A    between atoms: C_4  and  C_14
REMARK    3  A    between atoms: C_12  and  C_20
REMARK    4  A    between atoms: C_23  and  N_27
REMARK                            x       y       z     vdW  Elec       q    Type
REMARK                         _______ _______ _______ _____ _____    ______ ____
ROOT
ATOM      1  C   UNL     1      35.714 -19.159 -22.308  0.00  0.00    -0.043 C 
ATOM      2  C   UNL     1      34.597 -19.870 -21.869  0.00  0.00    -0.006 C 
ATOM      3  C   UNL     1      36.908 -19.222 -21.589  0.00  0.00    -0.006 C 
ATOM      4  C   UNL     1      35.867 -20.703 -19.990  0.00  0.00    +0.016 C 
ATOM      5  C   UNL     1      34.673 -20.641 -20.710  0.00  0.00    +0.001 C 
ATOM      6  C   UNL     1      36.984 -19.993 -20.430  0.00  0.00    +0.001 C 
ENDROOT
BRANCH   4  14
ATOM      7  O   UNL     1      31.127 -24.196 -15.681  0.00  0.00    -0.274 OA
ATOM      8  N   UNL     1      31.500 -22.880 -17.603  0.00  0.00    -0.217 N 
ATOM      9  N   UNL     1      34.797 -22.065 -18.161  0.00  0.00    -0.152 N 
ATOM     10  N   UNL     1      33.498 -21.984 -18.558  0.00  0.00    -0.092 NA
ATOM     11  N   UNL     1      33.644 -23.219 -16.643  0.00  0.00    -0.319 NA
ATOM     12  C   UNL     1      30.728 -23.599 -16.672  0.00  0.00    +0.234 C 
ATOM     13  C   UNL     1      32.864 -22.683 -17.619  0.00  0.00    +0.167 C 
ATOM     14  C   UNL     1      35.947 -21.517 -18.765  0.00  0.00    +0.077 C 
ATOM     15  C   UNL     1      34.851 -22.831 -16.988  0.00  0.00    +0.219 C 
ATOM     16  C   UNL     1      37.146 -21.744 -18.186  0.00  0.00    +0.017 C 
ATOM     17  C   UNL     1      36.125 -23.056 -16.398  0.00  0.00    +0.051 C 
ATOM     18  C   UNL     1      37.224 -22.537 -16.971  0.00  0.00    +0.005 C 
ATOM     19  H   UNL     1      30.999 -22.463 -18.342  0.00  0.00    +0.167 HD
BRANCH  12  20
ATOM     20  C   UNL     1      29.260 -23.608 -16.962  0.00  0.00    +0.077 C 
ATOM     21  C   UNL     1      28.388 -22.554 -16.346  0.00  0.00    +0.010 C 
ATOM     22  C   UNL     1      28.300 -23.974 -15.868  0.00  0.00    +0.010 C 
ENDBRANCH  12  20
ENDBRANCH   4  14
BRANCH   1  23
ATOM     23  C   UNL     1      35.633 -18.327 -23.561  0.00  0.00    -0.050 C 
BRANCH  23  27
ATOM     24  S   UNL     1      33.728 -14.241 -23.305  0.00  0.00    -0.014 S 
ATOM     25  O   UNL     1      32.466 -13.557 -23.112  0.00  0.00    -0.173 OA
ATOM     26  O   UNL     1      34.958 -13.501 -23.510  0.00  0.00    -0.173 OA
ATOM     27  N   UNL     1      34.676 -17.225 -23.422  0.00  0.00    +0.392 N 
ATOM     28  C   UNL     1      34.644 -16.431 -24.662  0.00  0.00    -0.051 C 
ATOM     29  C   UNL     1      35.030 -16.403 -22.252  0.00  0.00    -0.051 C 
ATOM     30  C   UNL     1      33.966 -15.356 -21.942  0.00  0.00    +0.128 C 
ATOM     31  C   UNL     1      33.533 -15.387 -24.649  0.00  0.00    +0.128 C 
ATOM     32  H   UNL     1      33.740 -17.598 -23.268  0.00  0.00    -0.079 HD
ENDBRANCH  23  27
ENDBRANCH   1  23
TORSDOF 4
ENDMDL
MODEL 9
REMARK VINA RESULT:     -11.7      6.556     11.041
REMARK  Name = 49831257
REMARK  4 active torsions:
REMARK  status: ('A' for Active; 'I' for Inactive)
REMARK    1  A    between atoms: C_1  and  C_23
REMARK    2  A    between atoms: C_4  and  C_14
REMARK    3  A    between atoms: C_12  and  C_20
REMARK    4  A    between atoms: C_23  and  N_27
REMARK                            x       y       z     vdW  Elec       q    Type
REMARK                         _______ _______ _______ _____ _____    ______ ____
ROOT
ATOM      1  C   UNL     1      32.342 -10.677 -21.671  0.00  0.00    -0.043 C 
ATOM      2  C   UNL     1      31.911 -11.976 -21.407  0.00  0.00    -0.006 C 
ATOM      3  C   UNL     1      33.074 -10.405 -22.827  0.00  0.00    -0.006 C 
ATOM      4  C   UNL     1      32.946 -12.734 -23.454  0.00  0.00    +0.016 C 
ATOM      5  C   UNL     1      32.214 -13.006 -22.298  0.00  0.00    +0.001 C 
ATOM      6  C   UNL     1      33.377 -11.434 -23.719  0.00  0.00    +0.001 C 
ENDROOT
BRANCH   4  14
ATOM      7  O   UNL     1      35.623 -19.503 -22.950  0.00  0.00    -0.274 OA
ATOM      8  N   UNL     1      34.951 -17.524 -21.857  0.00  0.00    -0.217 N 
ATOM      9  N   UNL     1      33.794 -15.053 -23.956  0.00  0.00    -0.152 N 
ATOM     10  N   UNL     1      34.068 -15.465 -22.688  0.00  0.00    -0.092 NA
ATOM     11  N   UNL     1      34.585 -17.125 -24.168  0.00  0.00    -0.319 NA
ATOM     12  C   UNL     1      35.454 -18.835 -21.939  0.00  0.00    +0.234 C 
ATOM     13  C   UNL     1      34.536 -16.697 -22.879  0.00  0.00    +0.167 C 
ATOM     14  C   UNL     1      33.268 -13.821 -24.395  0.00  0.00    +0.077 C 
ATOM     15  C   UNL     1      34.118 -16.095 -24.837  0.00  0.00    +0.219 C 
ATOM     16  C   UNL     1      33.070 -13.644 -25.719  0.00  0.00    +0.017 C 
ATOM     17  C   UNL     1      33.900 -15.884 -26.225  0.00  0.00    +0.051 C 
ATOM     18  C   UNL     1      33.397 -14.712 -26.649  0.00  0.00    +0.005 C 
ATOM     19  H   UNL     1      34.886 -17.147 -20.949  0.00  0.00    +0.167 HD
BRANCH  12  20
ATOM     20  C   UNL     1      35.812 -19.442 -20.619  0.00  0.00    +0.077 C 
ATOM     21  C   UNL     1      36.526 -20.762 -20.594  0.00  0.00    +0.010 C 
ATOM     22  C   UNL     1      35.090 -20.677 -20.163  0.00  0.00    +0.010 C 
ENDBRANCH  12  20
ENDBRANCH   4  14
BRANCH   1  23
ATOM     23  C   UNL     1      32.013  -9.565 -20.710  0.00  0.00    -0.050 C 
BRANCH  23  27
ATOM     24  S   UNL     1      31.370  -5.344 -22.178  0.00  0.00    -0.014 S 
ATOM     25  O   UNL     1      32.002  -4.251 -22.889  0.00  0.00    -0.173 OA
ATOM     26  O   UNL     1      30.019  -5.222 -21.668  0.00  0.00    -0.173 OA
ATOM     27  N   UNL     1      32.187  -8.245 -21.324  0.00  0.00    +0.392 N 
ATOM     28  C   UNL     1      32.075  -7.196 -20.296  0.00  0.00    -0.051 C 
ATOM     29  C   UNL     1      31.201  -8.063 -22.403  0.00  0.00    -0.051 C 
ATOM     30  C   UNL     1      31.454  -6.791 -23.205  0.00  0.00    +0.128 C 
ATOM     31  C   UNL     1      32.436  -5.817 -20.837  0.00  0.00    +0.128 C 
ATOM     32  H   UNL     1      33.117  -8.176 -21.737  0.00  0.00    -0.079 HD
ENDBRANCH  23  27
ENDBRANCH   1  23
TORSDOF 4
ENDMDL
