MODEL 1
REMARK VINA RESULT:     -13.2      0.000      0.000
REMARK  Name = 657131
REMARK  7 active torsions:
REMARK  status: ('A' for Active; 'I' for Inactive)
REMARK    1  A    between atoms: C_1  and  CA_2
REMARK    2  A    between atoms: C_1  and  C_3
REMARK    3  A    between atoms: CA_2  and  C_28
REMARK    4  A    between atoms: C_4  and  O_9
REMARK    5  A    between atoms: O_9  and  C_11
REMARK    6  A    between atoms: C_19  and  C_21
REMARK    7  A    between atoms: C_28  and  O_29
REMARK                            x       y       z     vdW  Elec       q    Type
REMARK                         _______ _______ _______ _____ _____    ______ ____
ROOT
ATOM      1  C   UNL     1      31.606 -11.873 -21.625  0.00  0.00    +0.074 C 
ENDROOT
BRANCH   1   2
ATOM      2  C   UNL     1      32.573 -12.948 -21.768  0.00  0.00    -0.016 C 
ATOM      3  C   UNL     1      34.429 -15.014 -22.038  0.00  0.00    +0.145 C 
ATOM      4  C   UNL     1      33.501 -12.921 -22.809  0.00  0.00    -0.001 C 
ATOM      5  C   UNL     1      32.574 -14.009 -20.861  0.00  0.00    -0.001 C 
ATOM      6  C   UNL     1      34.429 -13.953 -22.944  0.00  0.00    +0.037 C 
ATOM      7  C   UNL     1      33.502 -15.042 -20.997  0.00  0.00    +0.037 C 
BRANCH   3   8
ATOM      8  O   UNL     1      35.335 -16.020 -22.170  0.00  0.00    -0.453 OA
BRANCH   8  10
ATOM      9 BR   UNL     1      36.123 -18.860 -21.139  0.00  0.00    -0.046 Br
ATOM     10  C   UNL     1      35.054 -17.025 -23.082  0.00  0.00    +0.151 C 
ATOM     11  C   UNL     1      35.340 -18.347 -22.787  0.00  0.00    +0.069 C 
ATOM     12  C   UNL     1      34.483 -16.658 -24.288  0.00  0.00    +0.038 C 
ATOM     13  C   UNL     1      35.045 -19.333 -23.728  0.00  0.00    +0.010 C 
ATOM     14  C   UNL     1      34.187 -17.646 -25.229  0.00  0.00    +0.003 C 
ATOM     15  C   UNL     1      34.468 -18.982 -24.949  0.00  0.00    +0.001 C 
ENDBRANCH   8  10
ENDBRANCH   3   8
ENDBRANCH   1   2
BRANCH   1  16
ATOM     16  CA  UNL     1      31.881 -10.587 -21.303  0.00  0.00    +0.108 C 
ATOM     17  O   UNL     1      32.497  -7.854 -20.754  0.00  0.00    -0.270 OA
ATOM     18  N   UNL     1      32.362  -9.672 -22.198  0.00  0.00    -0.278 N 
ATOM     19  C   UNL     1      32.642  -8.355 -21.867  0.00  0.00    +0.249 C 
ATOM     20  H   UNL     1      32.518  -9.964 -23.125  0.00  0.00    +0.155 HD
BRANCH  19  21
ATOM     21  C   UNL     1      33.181  -7.517 -22.969  0.00  0.00    +0.054 C 
ATOM     22  C   UNL     1      32.325  -6.668 -23.639  0.00  0.00    +0.005 C 
ATOM     23  C   UNL     1      34.520  -7.614 -23.285  0.00  0.00    +0.005 C 
ATOM     24  C   UNL     1      32.830  -5.882 -24.673  0.00  0.00    +0.000 C 
ATOM     25  C   UNL     1      35.026  -6.826 -24.319  0.00  0.00    +0.000 C 
ATOM     26  C   UNL     1      34.180  -5.960 -25.014  0.00  0.00    +0.000 C 
ENDBRANCH  19  21
BRANCH  16  28
ATOM     27  OXT UNL     1      30.575  -9.910 -19.393  0.00  0.00    -0.244 OA
ATOM     28  C   UNL     1      31.661 -10.151 -19.899  0.00  0.00    +0.348 C 
BRANCH  28  29
ATOM     29  O   UNL     1      32.838 -10.052 -19.234  0.00  0.00    -0.476 OA
ATOM     30  H   UNL     1      33.105  -9.229 -18.875  0.00  0.00    +0.295 HD
ENDBRANCH  28  29
ENDBRANCH  16  28
ENDBRANCH   1  16
TORSDOF 7
ENDMDL
MODEL 2
REMARK VINA RESULT:     -13.2      1.138      1.992
REMARK  Name = 657131
REMARK  7 active torsions:
REMARK  status: ('A' for Active; 'I' for Inactive)
REMARK    1  A    between atoms: C_1  and  CA_2
REMARK    2  A    between atoms: C_1  and  C_3
REMARK    3  A    between atoms: CA_2  and  C_28
REMARK    4  A    between atoms: C_4  and  O_9
REMARK    5  A    between atoms: O_9  and  C_11
REMARK    6  A    between atoms: C_19  and  C_21
REMARK    7  A    between atoms: C_28  and  O_29
REMARK                            x       y       z     vdW  Elec       q    Type
REMARK                         _______ _______ _______ _____ _____    ______ ____
ROOT
ATOM      1  C   UNL     1      31.665 -11.932 -21.556  0.00  0.00    +0.074 C 
ENDROOT
BRANCH   1   2
ATOM      2  C   UNL     1      32.680 -12.915 -21.896  0.00  0.00    -0.016 C 
ATOM      3  C   UNL     1      34.628 -14.801 -22.551  0.00  0.00    +0.145 C 
ATOM      4  C   UNL     1      33.065 -13.874 -20.960  0.00  0.00    -0.001 C 
ATOM      5  C   UNL     1      33.270 -12.899 -23.161  0.00  0.00    -0.001 C 
ATOM      6  C   UNL     1      34.039 -14.818 -21.287  0.00  0.00    +0.037 C 
ATOM      7  C   UNL     1      34.244 -13.843 -23.488  0.00  0.00    +0.037 C 
BRANCH   3   8
ATOM      8  O   UNL     1      35.578 -15.722 -22.871  0.00  0.00    -0.453 OA
BRANCH   8  10
ATOM      9 BR   UNL     1      34.557 -17.126 -25.466  0.00  0.00    -0.046 Br
ATOM     10  C   UNL     1      35.270 -17.059 -22.678  0.00  0.00    +0.151 C 
ATOM     11  C   UNL     1      34.803 -17.834 -23.726  0.00  0.00    +0.069 C 
ATOM     12  C   UNL     1      35.446 -17.584 -21.410  0.00  0.00    +0.038 C 
ATOM     13  C   UNL     1      34.502 -19.177 -23.497  0.00  0.00    +0.010 C 
ATOM     14  C   UNL     1      35.146 -18.928 -21.182  0.00  0.00    +0.003 C 
ATOM     15  C   UNL     1      34.674 -19.723 -22.225  0.00  0.00    +0.001 C 
ENDBRANCH   8  10
ENDBRANCH   3   8
ENDBRANCH   1   2
BRANCH   1  16
ATOM     16  CA  UNL     1      31.882 -10.632 -21.246  0.00  0.00    +0.108 C 
ATOM     17  O   UNL     1      32.378  -7.871 -20.720  0.00  0.00    -0.270 OA
ATOM     18  N   UNL     1      32.351  -9.711 -22.141  0.00  0.00    -0.278 N 
ATOM     19  C   UNL     1      32.571  -8.381 -21.822  0.00  0.00    +0.249 C 
ATOM     20  H   UNL     1      32.541 -10.009 -23.060  0.00  0.00    +0.155 HD
BRANCH  19  21
ATOM     21  C   UNL     1      33.105  -7.537 -22.922  0.00  0.00    +0.054 C 
ATOM     22  C   UNL     1      34.444  -7.632 -23.243  0.00  0.00    +0.005 C 
ATOM     23  C   UNL     1      32.246  -6.689 -23.588  0.00  0.00    +0.005 C 
ATOM     24  C   UNL     1      34.945  -6.841 -24.276  0.00  0.00    +0.000 C 
ATOM     25  C   UNL     1      32.748  -5.898 -24.621  0.00  0.00    +0.000 C 
ATOM     26  C   UNL     1      34.098  -5.974 -24.965  0.00  0.00    +0.000 C 
ENDBRANCH  19  21
BRANCH  16  28
ATOM     27  OXT UNL     1      30.504  -9.975 -19.380  0.00  0.00    -0.244 OA
ATOM     28  C   UNL     1      31.610 -10.187 -19.854  0.00  0.00    +0.348 C 
BRANCH  28  29
ATOM     29  O   UNL     1      32.764 -10.040 -19.159  0.00  0.00    -0.476 OA
ATOM     30  H   UNL     1      33.573  -9.916 -19.615  0.00  0.00    +0.295 HD
ENDBRANCH  28  29
ENDBRANCH  16  28
ENDBRANCH   1  16
TORSDOF 7
ENDMDL
MODEL 3
REMARK VINA RESULT:     -13.2      3.229      9.801
REMARK  Name = 657131
REMARK  7 active torsions:
REMARK  status: ('A' for Active; 'I' for Inactive)
REMARK    1  A    between atoms: C_1  and  CA_2
REMARK    2  A    between atoms: C_1  and  C_3
REMARK    3  A    between atoms: CA_2  and  C_28
REMARK    4  A    between atoms: C_4  and  O_9
REMARK    5  A    between atoms: O_9  and  C_11
REMARK    6  A    between atoms: C_19  and  C_21
REMARK    7  A    between atoms: C_28  and  O_29
REMARK                            x       y       z     vdW  Elec       q    Type
REMARK                         _______ _______ _______ _____ _____    ______ ____
ROOT
ATOM      1  C   UNL     1      35.068 -14.914 -23.441  0.00  0.00    +0.074 C 
ENDROOT
BRANCH   1   2
ATOM      2  C   UNL     1      34.080 -13.898 -23.118  0.00  0.00    -0.016 C 
ATOM      3  C   UNL     1      32.187 -11.944 -22.499  0.00  0.00    +0.145 C 
ATOM      4  C   UNL     1      33.181 -14.104 -22.072  0.00  0.00    -0.001 C 
ATOM      5  C   UNL     1      34.033 -12.713 -23.855  0.00  0.00    -0.001 C 
ATOM      6  C   UNL     1      32.234 -13.127 -21.762  0.00  0.00    +0.037 C 
ATOM      7  C   UNL     1      33.086 -11.737 -23.545  0.00  0.00    +0.037 C 
BRANCH   3   8
ATOM      8  O   UNL     1      31.264 -10.991 -22.197  0.00  0.00    -0.453 OA
BRANCH   8  10
ATOM      9 BR   UNL     1      31.921 -10.198 -19.249  0.00  0.00    -0.046 Br
ATOM     10  C   UNL     1      31.704  -9.684 -22.073  0.00  0.00    +0.151 C 
ATOM     11  C   UNL     1      32.040  -9.166 -20.834  0.00  0.00    +0.069 C 
ATOM     12  C   UNL     1      31.794  -8.923 -23.225  0.00  0.00    +0.038 C 
ATOM     13  C   UNL     1      32.480  -7.845 -20.745  0.00  0.00    +0.010 C 
ATOM     14  C   UNL     1      32.234  -7.602 -23.136  0.00  0.00    +0.003 C 
ATOM     15  C   UNL     1      32.577  -7.063 -21.896  0.00  0.00    +0.001 C 
ENDBRANCH   8  10
ENDBRANCH   3   8
ENDBRANCH   1   2
BRANCH   1  16
ATOM     16  CA  UNL     1      34.819 -16.222 -23.684  0.00  0.00    +0.108 C 
ATOM     17  O   UNL     1      34.328 -19.008 -24.068  0.00  0.00    -0.270 OA
ATOM     18  N   UNL     1      34.965 -17.205 -22.745  0.00  0.00    -0.278 N 
ATOM     19  C   UNL     1      34.709 -18.544 -22.996  0.00  0.00    +0.249 C 
ATOM     20  H   UNL     1      35.267 -16.948 -21.844  0.00  0.00    +0.155 HD
BRANCH  19  21
ATOM     21  C   UNL     1      34.948 -19.467 -21.856  0.00  0.00    +0.054 C 
ATOM     22  C   UNL     1      33.864 -20.061 -21.244  0.00  0.00    +0.005 C 
ATOM     23  C   UNL     1      36.244 -19.701 -21.449  0.00  0.00    +0.005 C 
ATOM     24  C   UNL     1      34.087 -20.928 -20.175  0.00  0.00    +0.000 C 
ATOM     25  C   UNL     1      36.467 -20.568 -20.379  0.00  0.00    +0.000 C 
ATOM     26  C   UNL     1      35.389 -21.182 -19.742  0.00  0.00    +0.000 C 
ENDBRANCH  19  21
BRANCH  16  28
ATOM     27  OXT UNL     1      33.227 -16.592 -25.457  0.00  0.00    -0.244 OA
ATOM     28  C   UNL     1      34.379 -16.612 -25.050  0.00  0.00    +0.348 C 
BRANCH  28  29
ATOM     29  O   UNL     1      35.435 -17.003 -25.805  0.00  0.00    -0.476 OA
ATOM     30  H   UNL     1      35.487 -16.748 -26.705  0.00  0.00    +0.295 HD
ENDBRANCH  28  29
ENDBRANCH  16  28
ENDBRANCH   1  16
TORSDOF 7
ENDMDL
MODEL 4
REMARK VINA RESULT:     -12.9      3.603      9.963
REMARK  Name = 657131
REMARK  7 active torsions:
REMARK  status: ('A' for Active; 'I' for Inactive)
REMARK    1  A    between atoms: C_1  and  CA_2
REMARK    2  A    between atoms: C_1  and  C_3
REMARK    3  A    between atoms: CA_2  and  C_28
REMARK    4  A    between atoms: C_4  and  O_9
REMARK    5  A    between atoms: O_9  and  C_11
REMARK    6  A    between atoms: C_19  and  C_21
REMARK    7  A    between atoms: C_28  and  O_29
REMARK                            x       y       z     vdW  Elec       q    Type
REMARK                         _______ _______ _______ _____ _____    ______ ____
ROOT
ATOM      1  C   UNL     1      35.168 -15.227 -23.382  0.00  0.00    +0.074 C 
ENDROOT
BRANCH   1   2
ATOM      2  C   UNL     1      34.166 -14.211 -23.106  0.00  0.00    -0.016 C 
ATOM      3  C   UNL     1      32.240 -12.263 -22.575  0.00  0.00    +0.145 C 
ATOM      4  C   UNL     1      34.124 -13.045 -23.870  0.00  0.00    -0.001 C 
ATOM      5  C   UNL     1      33.243 -14.404 -22.076  0.00  0.00    -0.001 C 
ATOM      6  C   UNL     1      33.161 -12.071 -23.604  0.00  0.00    +0.037 C 
ATOM      7  C   UNL     1      32.281 -13.429 -21.811  0.00  0.00    +0.037 C 
BRANCH   3   8
ATOM      8  O   UNL     1      31.301 -11.313 -22.317  0.00  0.00    -0.453 OA
BRANCH   8  10
ATOM      9 BR   UNL     1      31.731  -8.527 -23.657  0.00  0.00    -0.046 Br
ATOM     10  C   UNL     1      31.622 -10.319 -21.408  0.00  0.00    +0.151 C 
ATOM     11  C   UNL     1      31.847  -9.021 -21.831  0.00  0.00    +0.069 C 
ATOM     12  C   UNL     1      31.709 -10.671 -20.072  0.00  0.00    +0.038 C 
ATOM     13  C   UNL     1      32.169  -8.044 -20.888  0.00  0.00    +0.010 C 
ATOM     14  C   UNL     1      32.030  -9.694 -19.130  0.00  0.00    +0.003 C 
ATOM     15  C   UNL     1      32.260  -8.380 -19.538  0.00  0.00    +0.001 C 
ENDBRANCH   8  10
ENDBRANCH   3   8
ENDBRANCH   1   2
BRANCH   1  16
ATOM     16  CA  UNL     1      34.934 -16.540 -23.615  0.00  0.00    +0.108 C 
ATOM     17  O   UNL     1      34.463 -19.332 -23.975  0.00  0.00    -0.270 OA
ATOM     18  N   UNL     1      34.998 -17.501 -22.645  0.00  0.00    -0.278 N 
ATOM     19  C   UNL     1      34.757 -18.844 -22.885  0.00  0.00    +0.249 C 
ATOM     20  H   UNL     1      35.226 -17.224 -21.728  0.00  0.00    +0.155 HD
BRANCH  19  21
ATOM     21  C   UNL     1      34.896 -19.742 -21.709  0.00  0.00    +0.054 C 
ATOM     22  C   UNL     1      36.162 -20.043 -21.249  0.00  0.00    +0.005 C 
ATOM     23  C   UNL     1      33.758 -20.242 -21.114  0.00  0.00    +0.005 C 
ATOM     24  C   UNL     1      36.293 -20.884 -20.145  0.00  0.00    +0.000 C 
ATOM     25  C   UNL     1      33.889 -21.083 -20.010  0.00  0.00    +0.000 C 
ATOM     26  C   UNL     1      35.157 -21.405 -19.525  0.00  0.00    +0.000 C 
ENDBRANCH  19  21
BRANCH  16  28
ATOM     27  OXT UNL     1      35.419 -17.166 -25.892  0.00  0.00    -0.244 OA
ATOM     28  C   UNL     1      34.606 -16.960 -25.003  0.00  0.00    +0.348 C 
BRANCH  28  29
ATOM     29  O   UNL     1      33.268 -17.087 -25.167  0.00  0.00    -0.476 OA
ATOM     30  H   UNL     1      32.833 -16.620 -25.852  0.00  0.00    +0.295 HD
ENDBRANCH  28  29
ENDBRANCH  16  28
ENDBRANCH   1  16
TORSDOF 7
ENDMDL
MODEL 5
REMARK VINA RESULT:     -12.4      7.173     12.218
REMARK  Name = 657131
REMARK  7 active torsions:
REMARK  status: ('A' for Active; 'I' for Inactive)
REMARK    1  A    between atoms: C_1  and  CA_2
REMARK    2  A    between atoms: C_1  and  C_3
REMARK    3  A    between atoms: CA_2  and  C_28
REMARK    4  A    between atoms: C_4  and  O_9
REMARK    5  A    between atoms: O_9  and  C_11
REMARK    6  A    between atoms: C_19  and  C_21
REMARK    7  A    between atoms: C_28  and  O_29
REMARK                            x       y       z     vdW  Elec       q    Type
REMARK                         _______ _______ _______ _____ _____    ______ ____
ROOT
ATOM      1  C   UNL     1      34.532 -22.821 -19.198  0.00  0.00    +0.074 C 
ENDROOT
BRANCH   1   2
ATOM      2  C   UNL     1      34.927 -21.568 -19.821  0.00  0.00    -0.016 C 
ATOM      3  C   UNL     1      35.688 -19.165 -21.016  0.00  0.00    +0.145 C 
ATOM      4  C   UNL     1      33.958 -20.706 -20.333  0.00  0.00    -0.001 C 
ATOM      5  C   UNL     1      36.278 -21.228 -19.907  0.00  0.00    -0.001 C 
ATOM      6  C   UNL     1      34.337 -19.504 -20.931  0.00  0.00    +0.037 C 
ATOM      7  C   UNL     1      36.657 -20.026 -20.505  0.00  0.00    +0.037 C 
BRANCH   3   8
ATOM      8  O   UNL     1      36.058 -17.992 -21.599  0.00  0.00    -0.453 OA
BRANCH   8  10
ATOM      9 BR   UNL     1      34.672 -15.196 -21.507  0.00  0.00    -0.046 Br
ATOM     10  C   UNL     1      35.454 -17.648 -22.796  0.00  0.00    +0.151 C 
ATOM     11  C   UNL     1      34.792 -16.440 -22.932  0.00  0.00    +0.069 C 
ATOM     12  C   UNL     1      35.537 -18.550 -23.843  0.00  0.00    +0.038 C 
ATOM     13  C   UNL     1      34.194 -16.125 -24.153  0.00  0.00    +0.010 C 
ATOM     14  C   UNL     1      34.939 -18.234 -25.063  0.00  0.00    +0.003 C 
ATOM     15  C   UNL     1      34.268 -17.022 -25.218  0.00  0.00    +0.001 C 
ENDBRANCH   8  10
ENDBRANCH   3   8
ENDBRANCH   1   2
BRANCH   1  16
ATOM     16  CA  UNL     1      34.099 -22.980 -17.926  0.00  0.00    +0.108 C 
ATOM     17  O   UNL     1      33.058 -23.327 -15.291  0.00  0.00    -0.270 OA
ATOM     18  N   UNL     1      32.784 -23.150 -17.593  0.00  0.00    -0.278 N 
ATOM     19  C   UNL     1      32.342 -23.314 -16.290  0.00  0.00    +0.249 C 
ATOM     20  H   UNL     1      32.117 -23.158 -18.317  0.00  0.00    +0.155 HD
BRANCH  19  21
ATOM     21  C   UNL     1      30.872 -23.463 -16.124  0.00  0.00    +0.054 C 
ATOM     22  C   UNL     1      30.045 -22.469 -16.606  0.00  0.00    +0.005 C 
ATOM     23  C   UNL     1      30.383 -24.589 -15.499  0.00  0.00    +0.005 C 
ATOM     24  C   UNL     1      28.667 -22.608 -16.451  0.00  0.00    +0.000 C 
ATOM     25  C   UNL     1      29.004 -24.729 -15.344  0.00  0.00    +0.000 C 
ATOM     26  C   UNL     1      28.145 -23.737 -15.821  0.00  0.00    +0.000 C 
ENDBRANCH  19  21
BRANCH  16  28
ATOM     27  OXT UNL     1      35.651 -21.949 -16.397  0.00  0.00    -0.244 OA
ATOM     28  C   UNL     1      35.105 -22.951 -16.832  0.00  0.00    +0.348 C 
BRANCH  28  29
ATOM     29  O   UNL     1      35.349 -24.200 -16.366  0.00  0.00    -0.476 OA
ATOM     30  H   UNL     1      35.624 -24.324 -15.480  0.00  0.00    +0.295 HD
ENDBRANCH  28  29
ENDBRANCH  16  28
ENDBRANCH   1  16
TORSDOF 7
ENDMDL
MODEL 6
REMARK VINA RESULT:     -12.3      4.541      7.857
REMARK  Name = 657131
REMARK  7 active torsions:
REMARK  status: ('A' for Active; 'I' for Inactive)
REMARK    1  A    between atoms: C_1  and  CA_2
REMARK    2  A    between atoms: C_1  and  C_3
REMARK    3  A    between atoms: CA_2  and  C_28
REMARK    4  A    between atoms: C_4  and  O_9
REMARK    5  A    between atoms: O_9  and  C_11
REMARK    6  A    between atoms: C_19  and  C_21
REMARK    7  A    between atoms: C_28  and  O_29
REMARK                            x       y       z     vdW  Elec       q    Type
REMARK                         _______ _______ _______ _____ _____    ______ ____
ROOT
ATOM      1  C   UNL     1      36.176 -17.844 -22.362  0.00  0.00    +0.074 C 
ENDROOT
BRANCH   1   2
ATOM      2  C   UNL     1      35.860 -19.001 -21.541  0.00  0.00    -0.016 C 
ATOM      3  C   UNL     1      35.255 -21.224 -19.967  0.00  0.00    +0.145 C 
ATOM      4  C   UNL     1      34.532 -19.387 -21.358  0.00  0.00    -0.001 C 
ATOM      5  C   UNL     1      36.886 -19.729 -20.937  0.00  0.00    -0.001 C 
ATOM      6  C   UNL     1      34.229 -20.498 -20.571  0.00  0.00    +0.037 C 
ATOM      7  C   UNL     1      36.583 -20.840 -20.150  0.00  0.00    +0.037 C 
BRANCH   3   8
ATOM      8  O   UNL     1      34.960 -22.309 -19.200  0.00  0.00    -0.453 OA
BRANCH   8  10
ATOM      9 BR   UNL     1      32.990 -23.411 -17.043  0.00  0.00    -0.046 Br
ATOM     10  C   UNL     1      35.524 -22.378 -17.937  0.00  0.00    +0.151 C 
ATOM     11  C   UNL     1      34.790 -22.844 -16.860  0.00  0.00    +0.069 C 
ATOM     12  C   UNL     1      36.838 -21.966 -17.795  0.00  0.00    +0.038 C 
ATOM     13  C   UNL     1      35.389 -22.901 -15.602  0.00  0.00    +0.010 C 
ATOM     14  C   UNL     1      37.437 -22.024 -16.536  0.00  0.00    +0.003 C 
ATOM     15  C   UNL     1      36.712 -22.491 -15.440  0.00  0.00    +0.001 C 
ENDBRANCH   8  10
ENDBRANCH   3   8
ENDBRANCH   1   2
BRANCH   1  16
ATOM     16  CA  UNL     1      35.293 -17.092 -23.059  0.00  0.00    +0.108 C 
ATOM     17  O   UNL     1      33.416 -15.426 -24.420  0.00  0.00    -0.270 OA
ATOM     18  N   UNL     1      34.653 -16.002 -22.537  0.00  0.00    -0.278 N 
ATOM     19  C   UNL     1      33.749 -15.233 -23.253  0.00  0.00    +0.249 C 
ATOM     20  H   UNL     1      34.844 -15.752 -21.604  0.00  0.00    +0.155 HD
BRANCH  19  21
ATOM     21  C   UNL     1      33.138 -14.102 -22.507  0.00  0.00    +0.054 C 
ATOM     22  C   UNL     1      32.902 -14.246 -21.156  0.00  0.00    +0.005 C 
ATOM     23  C   UNL     1      32.828 -12.945 -23.190  0.00  0.00    +0.005 C 
ATOM     24  C   UNL     1      32.329 -13.185 -20.456  0.00  0.00    +0.000 C 
ATOM     25  C   UNL     1      32.255 -11.883 -22.489  0.00  0.00    +0.000 C 
ATOM     26  C   UNL     1      32.005 -12.004 -21.122  0.00  0.00    +0.000 C 
ENDBRANCH  19  21
BRANCH  16  28
ATOM     27  OXT UNL     1      34.271 -18.408 -24.801  0.00  0.00    -0.244 OA
ATOM     28  C   UNL     1      34.991 -17.481 -24.462  0.00  0.00    +0.348 C 
BRANCH  28  29
ATOM     29  O   UNL     1      35.628 -16.667 -25.337  0.00  0.00    -0.476 OA
ATOM     30  H   UNL     1      35.764 -15.765 -25.124  0.00  0.00    +0.295 HD
ENDBRANCH  28  29
ENDBRANCH  16  28
ENDBRANCH   1  16
TORSDOF 7
ENDMDL
MODEL 7
REMARK VINA RESULT:     -12.3      6.852     12.237
REMARK  Name = 657131
REMARK  7 active torsions:
REMARK  status: ('A' for Active; 'I' for Inactive)
REMARK    1  A    between atoms: C_1  and  CA_2
REMARK    2  A    between atoms: C_1  and  C_3
REMARK    3  A    between atoms: CA_2  and  C_28
REMARK    4  A    between atoms: C_4  and  O_9
REMARK    5  A    between atoms: O_9  and  C_11
REMARK    6  A    between atoms: C_19  and  C_21
REMARK    7  A    between atoms: C_28  and  O_29
REMARK                            x       y       z     vdW  Elec       q    Type
REMARK                         _______ _______ _______ _____ _____    ______ ____
ROOT
ATOM      1  C   UNL     1      35.480 -22.134 -19.506  0.00  0.00    +0.074 C 
ENDROOT
BRANCH   1   2
ATOM      2  C   UNL     1      35.609 -20.846 -20.167  0.00  0.00    -0.016 C 
ATOM      3  C   UNL     1      35.860 -18.373 -21.434  0.00  0.00    +0.145 C 
ATOM      4  C   UNL     1      34.472 -20.168 -20.604  0.00  0.00    -0.001 C 
ATOM      5  C   UNL     1      36.873 -20.287 -20.362  0.00  0.00    -0.001 C 
ATOM      6  C   UNL     1      34.597 -18.931 -21.238  0.00  0.00    +0.037 C 
ATOM      7  C   UNL     1      36.997 -19.051 -20.996  0.00  0.00    +0.037 C 
BRANCH   3   8
ATOM      8  O   UNL     1      35.982 -17.167 -22.051  0.00  0.00    -0.453 OA
BRANCH   8  10
ATOM      9 BR   UNL     1      34.438 -14.453 -22.073  0.00  0.00    -0.046 Br
ATOM     10  C   UNL     1      35.261 -16.963 -23.216  0.00  0.00    +0.151 C 
ATOM     11  C   UNL     1      34.517 -15.809 -23.394  0.00  0.00    +0.069 C 
ATOM     12  C   UNL     1      35.313 -17.949 -24.187  0.00  0.00    +0.038 C 
ATOM     13  C   UNL     1      33.803 -15.636 -24.580  0.00  0.00    +0.010 C 
ATOM     14  C   UNL     1      34.599 -17.775 -25.373  0.00  0.00    +0.003 C 
ATOM     15  C   UNL     1      33.844 -16.619 -25.569  0.00  0.00    +0.001 C 
ENDBRANCH   8  10
ENDBRANCH   3   8
ENDBRANCH   1   2
BRANCH   1  16
ATOM     16  CA  UNL     1      35.468 -22.351 -18.170  0.00  0.00    +0.108 C 
ATOM     17  O   UNL     1      35.314 -22.854 -15.364  0.00  0.00    -0.270 OA
ATOM     18  N   UNL     1      34.386 -22.848 -17.497  0.00  0.00    -0.278 N 
ATOM     19  C   UNL     1      34.376 -23.070 -16.128  0.00  0.00    +0.249 C 
ATOM     20  H   UNL     1      33.574 -23.059 -18.010  0.00  0.00    +0.155 HD
BRANCH  19  21
ATOM     21  C   UNL     1      33.101 -23.593 -15.573  0.00  0.00    +0.054 C 
ATOM     22  C   UNL     1      33.140 -24.366 -14.432  0.00  0.00    +0.005 C 
ATOM     23  C   UNL     1      31.920 -23.286 -16.215  0.00  0.00    +0.005 C 
ATOM     24  C   UNL     1      31.944 -24.856 -13.910  0.00  0.00    +0.000 C 
ATOM     25  C   UNL     1      30.723 -23.776 -15.693  0.00  0.00    +0.000 C 
ATOM     26  C   UNL     1      30.735 -24.562 -14.540  0.00  0.00    +0.000 C 
ENDBRANCH  19  21
BRANCH  16  28
ATOM     27  OXT UNL     1      37.037 -20.890 -17.068  0.00  0.00    -0.244 OA
ATOM     28  C   UNL     1      36.689 -22.016 -17.392  0.00  0.00    +0.348 C 
BRANCH  28  29
ATOM     29  O   UNL     1      37.388 -23.134 -17.082  0.00  0.00    -0.476 OA
ATOM     30  H   UNL     1      36.934 -23.921 -16.852  0.00  0.00    +0.295 HD
ENDBRANCH  28  29
ENDBRANCH  16  28
ENDBRANCH   1  16
TORSDOF 7
ENDMDL
MODEL 8
REMARK VINA RESULT:     -12.2      3.974      6.450
REMARK  Name = 657131
REMARK  7 active torsions:
REMARK  status: ('A' for Active; 'I' for Inactive)
REMARK    1  A    between atoms: C_1  and  CA_2
REMARK    2  A    between atoms: C_1  and  C_3
REMARK    3  A    between atoms: CA_2  and  C_28
REMARK    4  A    between atoms: C_4  and  O_9
REMARK    5  A    between atoms: O_9  and  C_11
REMARK    6  A    between atoms: C_19  and  C_21
REMARK    7  A    between atoms: C_28  and  O_29
REMARK                            x       y       z     vdW  Elec       q    Type
REMARK                         _______ _______ _______ _____ _____    ______ ____
ROOT
ATOM      1  C   UNL     1      34.975 -16.844 -25.020  0.00  0.00    +0.074 C 
ENDROOT
BRANCH   1   2
ATOM      2  C   UNL     1      35.264 -17.644 -23.842  0.00  0.00    -0.016 C 
ATOM      3  C   UNL     1      35.818 -19.179 -21.579  0.00  0.00    +0.145 C 
ATOM      4  C   UNL     1      35.364 -19.032 -23.946  0.00  0.00    -0.001 C 
ATOM      5  C   UNL     1      35.442 -17.024 -22.605  0.00  0.00    -0.001 C 
ATOM      6  C   UNL     1      35.641 -19.799 -22.815  0.00  0.00    +0.037 C 
ATOM      7  C   UNL     1      35.719 -17.792 -21.473  0.00  0.00    +0.037 C 
BRANCH   3   8
ATOM      8  O   UNL     1      36.090 -19.927 -20.475  0.00  0.00    -0.453 OA
BRANCH   8  10
ATOM      9 BR   UNL     1      37.054 -21.855 -18.216  0.00  0.00    -0.046 Br
ATOM     10  C   UNL     1      35.071 -20.714 -19.964  0.00  0.00    +0.151 C 
ATOM     11  C   UNL     1      35.323 -21.626 -18.954  0.00  0.00    +0.069 C 
ATOM     12  C   UNL     1      33.804 -20.554 -20.497  0.00  0.00    +0.038 C 
ATOM     13  C   UNL     1      34.274 -22.403 -18.461  0.00  0.00    +0.010 C 
ATOM     14  C   UNL     1      32.755 -21.330 -20.003  0.00  0.00    +0.003 C 
ATOM     15  C   UNL     1      32.990 -22.255 -18.986  0.00  0.00    +0.001 C 
ENDBRANCH   8  10
ENDBRANCH   3   8
ENDBRANCH   1   2
BRANCH   1  16
ATOM     16  CA  UNL     1      34.110 -15.805 -25.090  0.00  0.00    +0.108 C 
ATOM     17  O   UNL     1      32.303 -13.595 -25.104  0.00  0.00    -0.270 OA
ATOM     18  N   UNL     1      33.749 -15.051 -24.009  0.00  0.00    -0.278 N 
ATOM     19  C   UNL     1      32.864 -13.987 -24.082  0.00  0.00    +0.249 C 
ATOM     20  H   UNL     1      34.139 -15.275 -23.133  0.00  0.00    +0.155 HD
BRANCH  19  21
ATOM     21  C   UNL     1      32.576 -13.302 -22.795  0.00  0.00    +0.054 C 
ATOM     22  C   UNL     1      32.186 -11.979 -22.819  0.00  0.00    +0.005 C 
ATOM     23  C   UNL     1      32.706 -14.010 -21.620  0.00  0.00    +0.005 C 
ATOM     24  C   UNL     1      31.915 -11.335 -21.612  0.00  0.00    +0.000 C 
ATOM     25  C   UNL     1      32.435 -13.367 -20.412  0.00  0.00    +0.000 C 
ATOM     26  C   UNL     1      32.040 -12.029 -20.409  0.00  0.00    +0.000 C 
ENDBRANCH  19  21
BRANCH  16  28
ATOM     27  OXT UNL     1      33.979 -14.705 -27.231  0.00  0.00    -0.244 OA
ATOM     28  C   UNL     1      33.509 -15.478 -26.410  0.00  0.00    +0.348 C 
BRANCH  28  29
ATOM     29  O   UNL     1      32.351 -16.156 -26.595  0.00  0.00    -0.476 OA
ATOM     30  H   UNL     1      32.276 -17.044 -26.305  0.00  0.00    +0.295 HD
ENDBRANCH  28  29
ENDBRANCH  16  28
ENDBRANCH   1  16
TORSDOF 7
ENDMDL
MODEL 9
REMARK VINA RESULT:     -11.9      6.778     12.304
REMARK  Name = 657131
REMARK  7 active torsions:
REMARK  status: ('A' for Active; 'I' for Inactive)
REMARK    1  A    between atoms: C_1  and  CA_2
REMARK    2  A    between atoms: C_1  and  C_3
REMARK    3  A    between atoms: CA_2  and  C_28
REMARK    4  A    between atoms: C_4  and  O_9
REMARK    5  A    between atoms: O_9  and  C_11
REMARK    6  A    between atoms: C_19  and  C_21
REMARK    7  A    between atoms: C_28  and  O_29
REMARK                            x       y       z     vdW  Elec       q    Type
REMARK                         _______ _______ _______ _____ _____    ______ ____
ROOT
ATOM      1  C   UNL     1      36.271 -21.694 -19.446  0.00  0.00    +0.074 C 
ENDROOT
BRANCH   1   2
ATOM      2  C   UNL     1      36.104 -20.571 -20.353  0.00  0.00    -0.016 C 
ATOM      3  C   UNL     1      35.780 -18.417 -22.097  0.00  0.00    +0.145 C 
ATOM      4  C   UNL     1      37.162 -19.691 -20.579  0.00  0.00    -0.001 C 
ATOM      5  C   UNL     1      34.883 -20.373 -21.000  0.00  0.00    -0.001 C 
ATOM      6  C   UNL     1      37.001 -18.614 -21.451  0.00  0.00    +0.037 C 
ATOM      7  C   UNL     1      34.722 -19.296 -21.872  0.00  0.00    +0.037 C 
BRANCH   3   8
ATOM      8  O   UNL     1      35.624 -17.366 -22.947  0.00  0.00    -0.453 OA
BRANCH   8  10
ATOM      9 BR   UNL     1      34.243 -15.866 -25.312  0.00  0.00    -0.046 Br
ATOM     10  C   UNL     1      34.830 -16.311 -22.529  0.00  0.00    +0.151 C 
ATOM     11  C   UNL     1      34.143 -15.536 -23.448  0.00  0.00    +0.069 C 
ATOM     12  C   UNL     1      34.752 -16.063 -21.170  0.00  0.00    +0.038 C 
ATOM     13  C   UNL     1      33.353 -14.481 -22.992  0.00  0.00    +0.010 C 
ATOM     14  C   UNL     1      33.961 -15.008 -20.715  0.00  0.00    +0.003 C 
ATOM     15  C   UNL     1      33.262 -14.217 -21.626  0.00  0.00    +0.001 C 
ENDBRANCH   8  10
ENDBRANCH   3   8
ENDBRANCH   1   2
BRANCH   1  16
ATOM     16  CA  UNL     1      35.321 -22.216 -18.635  0.00  0.00    +0.108 C 
ATOM     17  O   UNL     1      33.409 -23.318 -16.825  0.00  0.00    -0.270 OA
ATOM     18  N   UNL     1      35.542 -22.540 -17.326  0.00  0.00    -0.278 N 
ATOM     19  C   UNL     1      34.568 -23.074 -16.497  0.00  0.00    +0.249 C 
ATOM     20  H   UNL     1      36.440 -22.386 -16.952  0.00  0.00    +0.155 HD
BRANCH  19  21
ATOM     21  C   UNL     1      35.004 -23.383 -15.110  0.00  0.00    +0.054 C 
ATOM     22  C   UNL     1      34.112 -23.991 -14.252  0.00  0.00    +0.005 C 
ATOM     23  C   UNL     1      36.288 -23.055 -14.728  0.00  0.00    +0.005 C 
ATOM     24  C   UNL     1      34.521 -24.281 -12.951  0.00  0.00    +0.000 C 
ATOM     25  C   UNL     1      36.697 -23.346 -13.426  0.00  0.00    +0.000 C 
ATOM     26  C   UNL     1      35.813 -23.959 -12.538  0.00  0.00    +0.000 C 
ENDBRANCH  19  21
BRANCH  16  28
ATOM     27  OXT UNL     1      33.039 -21.673 -19.193  0.00  0.00    -0.244 OA
ATOM     28  C   UNL     1      33.970 -22.465 -19.204  0.00  0.00    +0.348 C 
BRANCH  28  29
ATOM     29  O   UNL     1      33.894 -23.704 -19.747  0.00  0.00    -0.476 OA
ATOM     30  H   UNL     1      34.438 -23.930 -20.475  0.00  0.00    +0.295 HD
ENDBRANCH  28  29
ENDBRANCH  16  28
ENDBRANCH   1  16
TORSDOF 7
ENDMDL
