MODEL 1
REMARK VINA RESULT:     -13.7      0.000      0.000
REMARK  Name = 59568713
REMARK  8 active torsions:
REMARK  status: ('A' for Active; 'I' for Inactive)
REMARK    1  A    between atoms: N_1  and  C_9
REMARK    2  A    between atoms: N_2  and  C_24
REMARK    3  A    between atoms: C_9  and  C_10
REMARK    4  A    between atoms: C_10  and  C_13
REMARK    5  A    between atoms: C_10  and  O_22
REMARK    6  A    between atoms: C_24  and  C_25
REMARK    7  A    between atoms: C_25  and  C_28
REMARK    8  A    between atoms: C_25  and  O_37
REMARK                            x       y       z     vdW  Elec       q    Type
REMARK                         _______ _______ _______ _____ _____    ______ ____
ROOT
ATOM      1  N   UNL     1      33.446 -13.384 -22.498  0.00  0.00    +0.386 N 
ATOM      2  N   UNL     1      34.523 -16.047 -22.166  0.00  0.00    +0.386 N 
ATOM      3  C   UNL     1      34.990 -15.164 -23.243  0.00  0.00    -0.101 C 
ATOM      4  C   UNL     1      34.076 -15.257 -21.013  0.00  0.00    -0.101 C 
ATOM      5  C   UNL     1      33.893 -14.175 -23.651  0.00  0.00    -0.101 C 
ATOM      6  C   UNL     1      32.980 -14.266 -21.422  0.00  0.00    -0.101 C 
ATOM      7  H   UNL     1      34.239 -12.845 -22.151  0.00  0.00    -0.080 HD
ATOM      8  H   UNL     1      33.728 -16.584 -22.514  0.00  0.00    -0.080 HD
ENDROOT
BRANCH   1   9
ATOM      9  C   UNL     1      32.398 -12.444 -22.889  0.00  0.00    -0.043 C 
BRANCH   9  10
ATOM     10  C   UNL     1      31.951 -11.595 -21.692  0.00  0.00    +0.112 C 
BRANCH  10  13
ATOM     11  O   UNL     1      32.495  -5.584 -21.263  0.00  0.00    -0.440 OA
ATOM     12  O   UNL     1      32.725  -5.308 -23.550  0.00  0.00    -0.245 OA
ATOM     13  C   UNL     1      32.120 -10.117 -21.966  0.00  0.00    -0.002 C 
ATOM     14  C   UNL     1      32.116  -9.193 -20.916  0.00  0.00    -0.024 C 
ATOM     15  C   UNL     1      32.272  -7.853 -21.223  0.00  0.00    +0.023 C 
ATOM     16  C   UNL     1      32.280  -9.693 -23.296  0.00  0.00    -0.002 C 
ATOM     17  C   UNL     1      32.428  -7.450 -22.534  0.00  0.00    +0.075 C 
ATOM     18  C   UNL     1      32.436  -8.338 -23.594  0.00  0.00    +0.006 C 
ATOM     19  C   UNL     1      32.307  -6.679 -20.333  0.00  0.00    +0.235 C 
ATOM     20  C   UNL     1      31.946  -9.629 -19.501  0.00  0.00    +0.031 C 
ATOM     21  C   UNL     1      32.570  -6.003 -22.565  0.00  0.00    +0.341 C 
ENDBRANCH  10  13
BRANCH  10  22
ATOM     22  O   UNL     1      30.577 -11.841 -21.397  0.00  0.00    -0.382 OA
ATOM     23  H   UNL     1      30.414 -12.796 -21.386  0.00  0.00    +0.211 HD
ENDBRANCH  10  22
ENDBRANCH   9  10
ENDBRANCH   1   9
BRANCH   2  24
ATOM     24  C   UNL     1      35.569 -16.989 -21.776  0.00  0.00    -0.043 C 
BRANCH  24  25
ATOM     25  C   UNL     1      35.372 -18.342 -22.472  0.00  0.00    +0.112 C 
BRANCH  25  28
ATOM     26  O   UNL     1      35.001 -22.672 -18.260  0.00  0.00    -0.440 OA
ATOM     27  O   UNL     1      32.701 -22.847 -18.453  0.00  0.00    -0.245 OA
ATOM     28  C   UNL     1      34.905 -19.402 -21.498  0.00  0.00    -0.002 C 
ATOM     29  C   UNL     1      35.821 -20.079 -20.687  0.00  0.00    -0.024 C 
ATOM     30  C   UNL     1      35.340 -21.039 -19.816  0.00  0.00    +0.023 C 
ATOM     31  C   UNL     1      33.531 -19.694 -21.428  0.00  0.00    -0.002 C 
ATOM     32  C   UNL     1      33.990 -21.316 -19.757  0.00  0.00    +0.075 C 
ATOM     33  C   UNL     1      33.058 -20.666 -20.546  0.00  0.00    +0.006 C 
ATOM     34  C   UNL     1      36.066 -21.892 -18.859  0.00  0.00    +0.235 C 
ATOM     35  C   UNL     1      37.280 -19.779 -20.752  0.00  0.00    +0.031 C 
ATOM     36  C   UNL     1      33.767 -22.357 -18.767  0.00  0.00    +0.341 C 
ENDBRANCH  25  28
BRANCH  25  37
ATOM     37  O   UNL     1      34.397 -18.227 -23.508  0.00  0.00    -0.382 OA
ATOM     38  H   UNL     1      33.846 -17.446 -23.348  0.00  0.00    +0.211 HD
ENDBRANCH  25  37
ENDBRANCH  24  25
ENDBRANCH   2  24
TORSDOF 8
ENDMDL
MODEL 2
REMARK VINA RESULT:     -13.7      0.054     11.771
REMARK  Name = 59568713
REMARK  8 active torsions:
REMARK  status: ('A' for Active; 'I' for Inactive)
REMARK    1  A    between atoms: N_1  and  C_9
REMARK    2  A    between atoms: N_2  and  C_24
REMARK    3  A    between atoms: C_9  and  C_10
REMARK    4  A    between atoms: C_10  and  C_13
REMARK    5  A    between atoms: C_10  and  O_22
REMARK    6  A    between atoms: C_24  and  C_25
REMARK    7  A    between atoms: C_25  and  C_28
REMARK    8  A    between atoms: C_25  and  O_37
REMARK                            x       y       z     vdW  Elec       q    Type
REMARK                         _______ _______ _______ _____ _____    ______ ____
ROOT
ATOM      1  N   UNL     1      34.513 -16.031 -22.124  0.00  0.00    +0.386 N 
ATOM      2  N   UNL     1      33.426 -13.374 -22.469  0.00  0.00    +0.386 N 
ATOM      3  C   UNL     1      33.899 -14.159 -23.616  0.00  0.00    -0.101 C 
ATOM      4  C   UNL     1      32.944 -14.261 -21.404  0.00  0.00    -0.101 C 
ATOM      5  C   UNL     1      34.993 -15.142 -23.189  0.00  0.00    -0.101 C 
ATOM      6  C   UNL     1      34.039 -15.246 -20.978  0.00  0.00    -0.101 C 
ATOM      7  H   UNL     1      33.730 -16.573 -22.488  0.00  0.00    -0.080 HD
ATOM      8  H   UNL     1      34.210 -12.832 -22.105  0.00  0.00    -0.080 HD
ENDROOT
BRANCH   1   9
ATOM      9  C   UNL     1      35.560 -16.965 -21.717  0.00  0.00    -0.043 C 
BRANCH   9  10
ATOM     10  C   UNL     1      35.393 -18.315 -22.427  0.00  0.00    +0.112 C 
BRANCH  10  13
ATOM     11  O   UNL     1      35.027 -22.688 -18.260  0.00  0.00    -0.440 OA
ATOM     12  O   UNL     1      32.733 -22.897 -18.488  0.00  0.00    -0.245 OA
ATOM     13  C   UNL     1      34.928 -19.391 -21.470  0.00  0.00    -0.002 C 
ATOM     14  C   UNL     1      35.843 -20.060 -20.651  0.00  0.00    -0.024 C 
ATOM     15  C   UNL     1      35.364 -21.036 -19.796  0.00  0.00    +0.023 C 
ATOM     16  C   UNL     1      33.559 -19.704 -21.423  0.00  0.00    -0.002 C 
ATOM     17  C   UNL     1      34.017 -21.334 -19.760  0.00  0.00    +0.075 C 
ATOM     18  C   UNL     1      33.087 -20.691 -20.557  0.00  0.00    +0.006 C 
ATOM     19  C   UNL     1      36.089 -21.887 -18.835  0.00  0.00    +0.235 C 
ATOM     20  C   UNL     1      37.298 -19.738 -20.692  0.00  0.00    +0.031 C 
ATOM     21  C   UNL     1      33.796 -22.387 -18.782  0.00  0.00    +0.341 C 
ENDBRANCH  10  13
BRANCH  10  22
ATOM     22  O   UNL     1      34.432 -18.205 -23.477  0.00  0.00    -0.382 OA
ATOM     23  H   UNL     1      33.544 -18.358 -23.120  0.00  0.00    +0.211 HD
ENDBRANCH  10  22
ENDBRANCH   9  10
ENDBRANCH   1   9
BRANCH   2  24
ATOM     24  C   UNL     1      32.381 -12.437 -22.875  0.00  0.00    -0.043 C 
BRANCH  24  25
ATOM     25  C   UNL     1      31.932 -11.572 -21.691  0.00  0.00    +0.112 C 
BRANCH  25  28
ATOM     26  O   UNL     1      32.474  -5.554 -21.349  0.00  0.00    -0.440 OA
ATOM     27  O   UNL     1      32.696  -5.311 -23.640  0.00  0.00    -0.245 OA
ATOM     28  C   UNL     1      32.099 -10.097 -21.986  0.00  0.00    -0.002 C 
ATOM     29  C   UNL     1      32.097  -9.158 -20.951  0.00  0.00    -0.024 C 
ATOM     30  C   UNL     1      32.253  -7.823 -21.277  0.00  0.00    +0.023 C 
ATOM     31  C   UNL     1      32.254  -9.691 -23.324  0.00  0.00    -0.002 C 
ATOM     32  C   UNL     1      32.404  -7.438 -22.593  0.00  0.00    +0.075 C 
ATOM     33  C   UNL     1      32.409  -8.341 -23.640  0.00  0.00    +0.006 C 
ATOM     34  C   UNL     1      32.289  -6.637 -20.404  0.00  0.00    +0.235 C 
ATOM     35  C   UNL     1      31.933  -9.575 -19.529  0.00  0.00    +0.031 C 
ATOM     36  C   UNL     1      32.545  -5.992 -22.646  0.00  0.00    +0.341 C 
ENDBRANCH  25  28
BRANCH  25  37
ATOM     37  O   UNL     1      30.557 -11.815 -21.395  0.00  0.00    -0.382 OA
ATOM     38  H   UNL     1      30.391 -12.770 -21.392  0.00  0.00    +0.211 HD
ENDBRANCH  25  37
ENDBRANCH  24  25
ENDBRANCH   2  24
TORSDOF 8
ENDMDL
MODEL 3
REMARK VINA RESULT:     -13.4      2.645      4.616
REMARK  Name = 59568713
REMARK  8 active torsions:
REMARK  status: ('A' for Active; 'I' for Inactive)
REMARK    1  A    between atoms: N_1  and  C_9
REMARK    2  A    between atoms: N_2  and  C_24
REMARK    3  A    between atoms: C_9  and  C_10
REMARK    4  A    between atoms: C_10  and  C_13
REMARK    5  A    between atoms: C_10  and  O_22
REMARK    6  A    between atoms: C_24  and  C_25
REMARK    7  A    between atoms: C_25  and  C_28
REMARK    8  A    between atoms: C_25  and  O_37
REMARK                            x       y       z     vdW  Elec       q    Type
REMARK                         _______ _______ _______ _____ _____    ______ ____
ROOT
ATOM      1  N   UNL     1      32.523 -10.008 -21.090  0.00  0.00    +0.386 N 
ATOM      2  N   UNL     1      31.955 -12.413 -22.589  0.00  0.00    +0.386 N 
ATOM      3  C   UNL     1      32.575 -11.246 -23.227  0.00  0.00    -0.101 C 
ATOM      4  C   UNL     1      32.310 -12.469 -21.167  0.00  0.00    -0.101 C 
ATOM      5  C   UNL     1      32.168  -9.953 -22.513  0.00  0.00    -0.101 C 
ATOM      6  C   UNL     1      31.904 -11.176 -20.452  0.00  0.00    -0.101 C 
ATOM      7  H   UNL     1      33.536 -10.101 -21.014  0.00  0.00    -0.080 HD
ATOM      8  H   UNL     1      30.941 -12.319 -22.664  0.00  0.00    -0.080 HD
ENDROOT
BRANCH   1   9
ATOM      9  C   UNL     1      32.131  -8.776 -20.409  0.00  0.00    -0.043 C 
BRANCH   9  10
ATOM     10  C   UNL     1      33.137  -7.652 -20.691  0.00  0.00    +0.112 C 
BRANCH  10  13
ATOM     11  O   UNL     1      32.159  -4.169 -25.541  0.00  0.00    -0.440 OA
ATOM     12  O   UNL     1      30.279  -3.183 -24.619  0.00  0.00    -0.245 OA
ATOM     13  C   UNL     1      32.594  -6.660 -21.696  0.00  0.00    -0.002 C 
ATOM     14  C   UNL     1      33.226  -6.477 -22.930  0.00  0.00    -0.024 C 
ATOM     15  C   UNL     1      32.688  -5.557 -23.811  0.00  0.00    +0.023 C 
ATOM     16  C   UNL     1      31.442  -5.928 -21.364  0.00  0.00    -0.002 C 
ATOM     17  C   UNL     1      31.556  -4.843 -23.471  0.00  0.00    +0.075 C 
ATOM     18  C   UNL     1      30.908  -5.001 -22.260  0.00  0.00    +0.006 C 
ATOM     19  C   UNL     1      33.139  -5.166 -25.158  0.00  0.00    +0.235 C 
ATOM     20  C   UNL     1      34.450  -7.248 -23.295  0.00  0.00    +0.031 C 
ATOM     21  C   UNL     1      31.214  -3.956 -24.572  0.00  0.00    +0.341 C 
ENDBRANCH  10  13
BRANCH  10  22
ATOM     22  O   UNL     1      33.441  -6.948 -19.488  0.00  0.00    -0.382 OA
ATOM     23  H   UNL     1      33.539  -7.579 -18.759  0.00  0.00    +0.211 HD
ENDBRANCH  10  22
ENDBRANCH   9  10
ENDBRANCH   1   9
BRANCH   2  24
ATOM     24  C   UNL     1      32.344 -13.646 -23.270  0.00  0.00    -0.043 C 
BRANCH  24  25
ATOM     25  C   UNL     1      33.857 -13.874 -23.162  0.00  0.00    +0.112 C 
BRANCH  25  28
ATOM     26  O   UNL     1      35.485 -19.651 -22.380  0.00  0.00    -0.440 OA
ATOM     27  O   UNL     1      35.288 -20.150 -24.632  0.00  0.00    -0.245 OA
ATOM     28  C   UNL     1      34.211 -15.334 -23.346  0.00  0.00    -0.002 C 
ATOM     29  C   UNL     1      34.579 -16.122 -22.251  0.00  0.00    -0.024 C 
ATOM     30  C   UNL     1      34.893 -17.450 -22.476  0.00  0.00    +0.023 C 
ATOM     31  C   UNL     1      34.166 -15.881 -24.641  0.00  0.00    -0.002 C 
ATOM     32  C   UNL     1      34.845 -17.974 -23.751  0.00  0.00    +0.075 C 
ATOM     33  C   UNL     1      34.487 -17.222 -24.855  0.00  0.00    +0.006 C 
ATOM     34  C   UNL     1      35.306 -18.495 -21.523  0.00  0.00    +0.235 C 
ATOM     35  C   UNL     1      34.632 -15.555 -20.873  0.00  0.00    +0.031 C 
ATOM     36  C   UNL     1      35.221 -19.377 -23.697  0.00  0.00    +0.341 C 
ENDBRANCH  25  28
BRANCH  25  37
ATOM     37  O   UNL     1      34.544 -13.120 -24.161  0.00  0.00    -0.382 OA
ATOM     38  H   UNL     1      35.148 -12.493 -23.733  0.00  0.00    +0.211 HD
ENDBRANCH  25  37
ENDBRANCH  24  25
ENDBRANCH   2  24
TORSDOF 8
ENDMDL
MODEL 4
REMARK VINA RESULT:     -13.4      2.646     11.941
REMARK  Name = 59568713
REMARK  8 active torsions:
REMARK  status: ('A' for Active; 'I' for Inactive)
REMARK    1  A    between atoms: N_1  and  C_9
REMARK    2  A    between atoms: N_2  and  C_24
REMARK    3  A    between atoms: C_9  and  C_10
REMARK    4  A    between atoms: C_10  and  C_13
REMARK    5  A    between atoms: C_10  and  O_22
REMARK    6  A    between atoms: C_24  and  C_25
REMARK    7  A    between atoms: C_25  and  C_28
REMARK    8  A    between atoms: C_25  and  O_37
REMARK                            x       y       z     vdW  Elec       q    Type
REMARK                         _______ _______ _______ _____ _____    ______ ____
ROOT
ATOM      1  N   UNL     1      31.940 -12.382 -22.583  0.00  0.00    +0.386 N 
ATOM      2  N   UNL     1      32.499  -9.961 -21.105  0.00  0.00    +0.386 N 
ATOM      3  C   UNL     1      32.148  -9.921 -22.530  0.00  0.00    -0.101 C 
ATOM      4  C   UNL     1      31.878 -11.122 -20.458  0.00  0.00    -0.101 C 
ATOM      5  C   UNL     1      32.560 -11.220 -23.230  0.00  0.00    -0.101 C 
ATOM      6  C   UNL     1      32.289 -12.422 -21.158  0.00  0.00    -0.101 C 
ATOM      7  H   UNL     1      30.928 -12.292 -22.663  0.00  0.00    -0.080 HD
ATOM      8  H   UNL     1      33.512 -10.053 -21.026  0.00  0.00    -0.080 HD
ENDROOT
BRANCH   1   9
ATOM      9  C   UNL     1      32.337 -13.621 -23.250  0.00  0.00    -0.043 C 
BRANCH   9  10
ATOM     10  C   UNL     1      33.849 -13.849 -23.121  0.00  0.00    +0.112 C 
BRANCH  10  13
ATOM     11  O   UNL     1      35.493 -19.623 -22.355  0.00  0.00    -0.440 OA
ATOM     12  O   UNL     1      35.294 -20.116 -24.608  0.00  0.00    -0.245 OA
ATOM     13  C   UNL     1      34.207 -15.307 -23.309  0.00  0.00    -0.002 C 
ATOM     14  C   UNL     1      34.577 -16.097 -22.215  0.00  0.00    -0.024 C 
ATOM     15  C   UNL     1      34.895 -17.423 -22.444  0.00  0.00    +0.023 C 
ATOM     16  C   UNL     1      34.161 -15.850 -24.604  0.00  0.00    -0.002 C 
ATOM     17  C   UNL     1      34.847 -17.943 -23.722  0.00  0.00    +0.075 C 
ATOM     18  C   UNL     1      34.485 -17.189 -24.823  0.00  0.00    +0.006 C 
ATOM     19  C   UNL     1      35.312 -18.471 -21.495  0.00  0.00    +0.235 C 
ATOM     20  C   UNL     1      34.630 -15.533 -20.836  0.00  0.00    +0.031 C 
ATOM     21  C   UNL     1      35.227 -19.346 -23.671  0.00  0.00    +0.341 C 
ENDBRANCH  10  13
BRANCH  10  22
ATOM     22  O   UNL     1      34.550 -13.087 -24.103  0.00  0.00    -0.382 OA
ATOM     23  H   UNL     1      34.130 -12.219 -24.199  0.00  0.00    +0.211 HD
ENDBRANCH  10  22
ENDBRANCH   9  10
ENDBRANCH   1   9
BRANCH   2  24
ATOM     24  C   UNL     1      32.104  -8.722 -20.438  0.00  0.00    -0.043 C 
BRANCH  24  25
ATOM     25  C   UNL     1      33.115  -7.604 -20.723  0.00  0.00    +0.112 C 
BRANCH  25  28
ATOM     26  O   UNL     1      32.152  -4.145 -25.595  0.00  0.00    -0.440 OA
ATOM     27  O   UNL     1      30.279  -3.141 -24.676  0.00  0.00    -0.245 OA
ATOM     28  C   UNL     1      32.576  -6.615 -21.734  0.00  0.00    -0.002 C 
ATOM     29  C   UNL     1      33.208  -6.443 -22.969  0.00  0.00    -0.024 C 
ATOM     30  C   UNL     1      32.674  -5.525 -23.855  0.00  0.00    +0.023 C 
ATOM     31  C   UNL     1      31.429  -5.871 -21.404  0.00  0.00    -0.002 C 
ATOM     32  C   UNL     1      31.548  -4.802 -23.520  0.00  0.00    +0.075 C 
ATOM     33  C   UNL     1      30.900  -4.948 -22.307  0.00  0.00    +0.006 C 
ATOM     34  C   UNL     1      33.126  -5.145 -25.205  0.00  0.00    +0.235 C 
ATOM     35  C   UNL     1      34.426  -7.223 -23.330  0.00  0.00    +0.031 C 
ATOM     36  C   UNL     1      31.210  -3.920 -24.625  0.00  0.00    +0.341 C 
ENDBRANCH  25  28
BRANCH  25  37
ATOM     37  O   UNL     1      33.417  -6.894 -19.522  0.00  0.00    -0.382 OA
ATOM     38  H   UNL     1      33.052  -7.373 -18.762  0.00  0.00    +0.211 HD
ENDBRANCH  25  37
ENDBRANCH  24  25
ENDBRANCH   2  24
TORSDOF 8
ENDMDL
MODEL 5
REMARK VINA RESULT:     -12.8      2.501      4.625
REMARK  Name = 59568713
REMARK  8 active torsions:
REMARK  status: ('A' for Active; 'I' for Inactive)
REMARK    1  A    between atoms: N_1  and  C_9
REMARK    2  A    between atoms: N_2  and  C_24
REMARK    3  A    between atoms: C_9  and  C_10
REMARK    4  A    between atoms: C_10  and  C_13
REMARK    5  A    between atoms: C_10  and  O_22
REMARK    6  A    between atoms: C_24  and  C_25
REMARK    7  A    between atoms: C_25  and  C_28
REMARK    8  A    between atoms: C_25  and  O_37
REMARK                            x       y       z     vdW  Elec       q    Type
REMARK                         _______ _______ _______ _____ _____    ______ ____
ROOT
ATOM      1  N   UNL     1      32.474  -9.908 -20.947  0.00  0.00    +0.386 N 
ATOM      2  N   UNL     1      31.923 -12.327 -22.430  0.00  0.00    +0.386 N 
ATOM      3  C   UNL     1      32.565 -11.171 -23.068  0.00  0.00    -0.101 C 
ATOM      4  C   UNL     1      32.246 -12.368 -21.000  0.00  0.00    -0.101 C 
ATOM      5  C   UNL     1      32.151  -9.868 -22.378  0.00  0.00    -0.101 C 
ATOM      6  C   UNL     1      31.832 -11.064 -20.309  0.00  0.00    -0.101 C 
ATOM      7  H   UNL     1      33.484 -10.006 -20.848  0.00  0.00    -0.080 HD
ATOM      8  H   UNL     1      30.912 -12.228 -22.528  0.00  0.00    -0.080 HD
ENDROOT
BRANCH   1   9
ATOM      9  C   UNL     1      32.075  -8.665 -20.290  0.00  0.00    -0.043 C 
BRANCH   9  10
ATOM     10  C   UNL     1      33.086  -7.547 -20.577  0.00  0.00    +0.112 C 
BRANCH  10  13
ATOM     11  O   UNL     1      32.240  -4.268 -25.592  0.00  0.00    -0.440 OA
ATOM     12  O   UNL     1      30.355  -3.221 -24.749  0.00  0.00    -0.245 OA
ATOM     13  C   UNL     1      32.573  -6.594 -21.634  0.00  0.00    -0.002 C 
ATOM     14  C   UNL     1      33.231  -6.472 -22.862  0.00  0.00    -0.024 C 
ATOM     15  C   UNL     1      32.720  -5.585 -23.792  0.00  0.00    +0.023 C 
ATOM     16  C   UNL     1      31.425  -5.834 -21.356  0.00  0.00    -0.002 C 
ATOM     17  C   UNL     1      31.591  -4.844 -23.506  0.00  0.00    +0.075 C 
ATOM     18  C   UNL     1      30.919  -4.941 -22.302  0.00  0.00    +0.006 C 
ATOM     19  C   UNL     1      33.200  -5.259 -25.147  0.00  0.00    +0.235 C 
ATOM     20  C   UNL     1      34.451  -7.272 -23.170  0.00  0.00    +0.031 C 
ATOM     21  C   UNL     1      31.280  -4.002 -24.651  0.00  0.00    +0.341 C 
ENDBRANCH  10  13
BRANCH  10  22
ATOM     22  O   UNL     1      33.345  -6.799 -19.389  0.00  0.00    -0.382 OA
ATOM     23  H   UNL     1      34.249  -6.974 -19.087  0.00  0.00    +0.211 HD
ENDBRANCH  10  22
ENDBRANCH   9  10
ENDBRANCH   1   9
BRANCH   2  24
ATOM     24  C   UNL     1      32.319 -13.570 -23.088  0.00  0.00    -0.043 C 
BRANCH  24  25
ATOM     25  C   UNL     1      33.846 -13.699 -23.136  0.00  0.00    +0.112 C 
BRANCH  25  28
ATOM     26  O   UNL     1      35.494 -19.521 -22.995  0.00  0.00    -0.440 OA
ATOM     27  O   UNL     1      35.852 -19.501 -20.709  0.00  0.00    -0.245 OA
ATOM     28  C   UNL     1      34.299 -15.083 -22.727  0.00  0.00    -0.002 C 
ATOM     29  C   UNL     1      34.431 -16.101 -23.677  0.00  0.00    -0.024 C 
ATOM     30  C   UNL     1      34.848 -17.348 -23.248  0.00  0.00    +0.023 C 
ATOM     31  C   UNL     1      34.583 -15.326 -21.371  0.00  0.00    -0.002 C 
ATOM     32  C   UNL     1      35.123 -17.572 -21.914  0.00  0.00    +0.075 C 
ATOM     33  C   UNL     1      35.001 -16.589 -20.950  0.00  0.00    +0.006 C 
ATOM     34  C   UNL     1      35.070 -18.584 -24.017  0.00  0.00    +0.235 C 
ATOM     35  C   UNL     1      34.133 -15.857 -25.117  0.00  0.00    +0.031 C 
ATOM     36  C   UNL     1      35.535 -18.957 -21.747  0.00  0.00    +0.341 C 
ENDBRANCH  25  28
BRANCH  25  37
ATOM     37  O   UNL     1      34.322 -13.448 -24.459  0.00  0.00    -0.382 OA
ATOM     38  H   UNL     1      35.170 -12.979 -24.414  0.00  0.00    +0.211 HD
ENDBRANCH  25  37
ENDBRANCH  24  25
ENDBRANCH   2  24
TORSDOF 8
ENDMDL
MODEL 6
REMARK VINA RESULT:     -12.6      2.343     11.381
REMARK  Name = 59568713
REMARK  8 active torsions:
REMARK  status: ('A' for Active; 'I' for Inactive)
REMARK    1  A    between atoms: N_1  and  C_9
REMARK    2  A    between atoms: N_2  and  C_24
REMARK    3  A    between atoms: C_9  and  C_10
REMARK    4  A    between atoms: C_10  and  C_13
REMARK    5  A    between atoms: C_10  and  O_22
REMARK    6  A    between atoms: C_24  and  C_25
REMARK    7  A    between atoms: C_25  and  C_28
REMARK    8  A    between atoms: C_25  and  O_37
REMARK                            x       y       z     vdW  Elec       q    Type
REMARK                         _______ _______ _______ _____ _____    ______ ____
ROOT
ATOM      1  N   UNL     1      35.143 -19.263 -21.893  0.00  0.00    +0.386 N 
ATOM      2  N   UNL     1      35.623 -16.718 -23.179  0.00  0.00    +0.386 N 
ATOM      3  C   UNL     1      34.862 -17.780 -23.849  0.00  0.00    -0.101 C 
ATOM      4  C   UNL     1      35.469 -16.818 -21.723  0.00  0.00    -0.101 C 
ATOM      5  C   UNL     1      35.297 -19.161 -23.349  0.00  0.00    -0.101 C 
ATOM      6  C   UNL     1      35.903 -18.201 -21.222  0.00  0.00    -0.101 C 
ATOM      7  H   UNL     1      34.157 -19.144 -21.665  0.00  0.00    -0.080 HD
ATOM      8  H   UNL     1      36.611 -16.838 -23.406  0.00  0.00    -0.080 HD
ENDROOT
BRANCH   1   9
ATOM      9  C   UNL     1      35.562 -20.580 -21.418  0.00  0.00    -0.043 C 
BRANCH   9  10
ATOM     10  C   UNL     1      34.514 -21.176 -20.469  0.00  0.00    +0.112 C 
BRANCH  10  13
ATOM     11  O   UNL     1      35.622 -23.646 -15.057  0.00  0.00    -0.440 OA
ATOM     12  O   UNL     1      37.838 -22.979 -15.058  0.00  0.00    -0.245 OA
ATOM     13  C   UNL     1      35.143 -21.656 -19.179  0.00  0.00    -0.002 C 
ATOM     14  C   UNL     1      34.390 -22.368 -18.241  0.00  0.00    -0.024 C 
ATOM     15  C   UNL     1      35.015 -22.782 -17.078  0.00  0.00    +0.023 C 
ATOM     16  C   UNL     1      36.499 -21.371 -18.945  0.00  0.00    -0.002 C 
ATOM     17  C   UNL     1      36.347 -22.495 -16.860  0.00  0.00    +0.075 C 
ATOM     18  C   UNL     1      37.119 -21.793 -17.768  0.00  0.00    +0.006 C 
ATOM     19  C   UNL     1      34.474 -23.538 -15.934  0.00  0.00    +0.235 C 
ATOM     20  C   UNL     1      32.950 -22.677 -18.477  0.00  0.00    +0.031 C 
ATOM     21  C   UNL     1      36.740 -23.044 -15.572  0.00  0.00    +0.341 C 
ENDBRANCH  10  13
BRANCH  10  22
ATOM     22  O   UNL     1      33.526 -20.197 -20.146  0.00  0.00    -0.382 OA
ATOM     23  H   UNL     1      33.961 -19.363 -19.911  0.00  0.00    +0.211 HD
ENDBRANCH  10  22
ENDBRANCH   9  10
ENDBRANCH   1   9
BRANCH   2  24
ATOM     24  C   UNL     1      35.207 -15.401 -23.655  0.00  0.00    -0.043 C 
BRANCH  24  25
ATOM     25  C   UNL     1      33.678 -15.303 -23.723  0.00  0.00    +0.112 C 
BRANCH  25  28
ATOM     26  O   UNL     1      32.098  -9.735 -21.954  0.00  0.00    -0.440 OA
ATOM     27  O   UNL     1      31.284 -10.470 -19.915  0.00  0.00    -0.245 OA
ATOM     28  C   UNL     1      33.166 -14.096 -22.966  0.00  0.00    -0.002 C 
ATOM     29  C   UNL     1      33.240 -12.818 -23.528  0.00  0.00    -0.024 C 
ATOM     30  C   UNL     1      32.758 -11.751 -22.792  0.00  0.00    +0.023 C 
ATOM     31  C   UNL     1      32.617 -14.287 -21.685  0.00  0.00    -0.002 C 
ATOM     32  C   UNL     1      32.222 -11.952 -21.537  0.00  0.00    +0.075 C 
ATOM     33  C   UNL     1      32.135 -13.202 -20.953  0.00  0.00    +0.006 C 
ATOM     34  C   UNL     1      32.709 -10.318 -23.132  0.00  0.00    +0.235 C 
ATOM     35  C   UNL     1      33.821 -12.602 -24.884  0.00  0.00    +0.031 C 
ATOM     36  C   UNL     1      31.799 -10.669 -20.997  0.00  0.00    +0.341 C 
ENDBRANCH  25  28
BRANCH  25  37
ATOM     37  O   UNL     1      33.249 -15.192 -25.080  0.00  0.00    -0.382 OA
ATOM     38  H   UNL     1      33.052 -14.264 -25.281  0.00  0.00    +0.211 HD
ENDBRANCH  25  37
ENDBRANCH  24  25
ENDBRANCH   2  24
TORSDOF 8
ENDMDL
MODEL 7
REMARK VINA RESULT:     -12.5      2.648      4.573
REMARK  Name = 59568713
REMARK  8 active torsions:
REMARK  status: ('A' for Active; 'I' for Inactive)
REMARK    1  A    between atoms: N_1  and  C_9
REMARK    2  A    between atoms: N_2  and  C_24
REMARK    3  A    between atoms: C_9  and  C_10
REMARK    4  A    between atoms: C_10  and  C_13
REMARK    5  A    between atoms: C_10  and  O_22
REMARK    6  A    between atoms: C_24  and  C_25
REMARK    7  A    between atoms: C_25  and  C_28
REMARK    8  A    between atoms: C_25  and  O_37
REMARK                            x       y       z     vdW  Elec       q    Type
REMARK                         _______ _______ _______ _____ _____    ______ ____
ROOT
ATOM      1  N   UNL     1      32.415  -9.824 -21.090  0.00  0.00    +0.386 N 
ATOM      2  N   UNL     1      31.886 -12.308 -22.472  0.00  0.00    +0.386 N 
ATOM      3  C   UNL     1      32.368 -11.122 -23.192  0.00  0.00    -0.101 C 
ATOM      4  C   UNL     1      32.365 -12.296 -21.085  0.00  0.00    -0.101 C 
ATOM      5  C   UNL     1      31.936  -9.838 -22.477  0.00  0.00    -0.101 C 
ATOM      6  C   UNL     1      31.934 -11.010 -20.370  0.00  0.00    -0.101 C 
ATOM      7  H   UNL     1      33.434  -9.847 -21.102  0.00  0.00    -0.080 HD
ATOM      8  H   UNL     1      30.866 -12.284 -22.459  0.00  0.00    -0.080 HD
ENDROOT
BRANCH   1   9
ATOM      9  C   UNL     1      31.999  -8.600 -20.409  0.00  0.00    -0.043 C 
BRANCH   9  10
ATOM     10  C   UNL     1      33.091  -7.527 -20.500  0.00  0.00    +0.112 C 
BRANCH  10  13
ATOM     11  O   UNL     1      32.072  -4.430 -25.598  0.00  0.00    -0.440 OA
ATOM     12  O   UNL     1      33.969  -5.254 -26.635  0.00  0.00    -0.245 OA
ATOM     13  C   UNL     1      33.161  -6.923 -21.886  0.00  0.00    -0.002 C 
ATOM     14  C   UNL     1      32.175  -6.035 -22.326  0.00  0.00    -0.024 C 
ATOM     15  C   UNL     1      32.287  -5.514 -23.603  0.00  0.00    +0.023 C 
ATOM     16  C   UNL     1      34.236  -7.274 -22.719  0.00  0.00    -0.002 C 
ATOM     17  C   UNL     1      33.348  -5.868 -24.412  0.00  0.00    +0.075 C 
ATOM     18  C   UNL     1      34.339  -6.743 -24.006  0.00  0.00    +0.006 C 
ATOM     19  C   UNL     1      31.409  -4.570 -24.317  0.00  0.00    +0.235 C 
ATOM     20  C   UNL     1      31.029  -5.654 -21.452  0.00  0.00    +0.031 C 
ATOM     21  C   UNL     1      33.216  -5.178 -25.686  0.00  0.00    +0.341 C 
ENDBRANCH  10  13
BRANCH  10  22
ATOM     22  O   UNL     1      32.832  -6.477 -19.568  0.00  0.00    -0.382 OA
ATOM     23  H   UNL     1      32.670  -5.651 -20.048  0.00  0.00    +0.211 HD
ENDBRANCH  10  22
ENDBRANCH   9  10
ENDBRANCH   1   9
BRANCH   2  24
ATOM     24  C   UNL     1      32.299 -13.533 -23.153  0.00  0.00    -0.043 C 
BRANCH  24  25
ATOM     25  C   UNL     1      33.812 -13.746 -23.023  0.00  0.00    +0.112 C 
BRANCH  25  28
ATOM     26  O   UNL     1      35.518 -19.505 -22.278  0.00  0.00    -0.440 OA
ATOM     27  O   UNL     1      35.325 -19.992 -24.532  0.00  0.00    -0.245 OA
ATOM     28  C   UNL     1      34.186 -15.199 -23.216  0.00  0.00    -0.002 C 
ATOM     29  C   UNL     1      34.565 -15.989 -22.126  0.00  0.00    -0.024 C 
ATOM     30  C   UNL     1      34.897 -17.311 -22.359  0.00  0.00    +0.023 C 
ATOM     31  C   UNL     1      34.147 -15.739 -24.514  0.00  0.00    -0.002 C 
ATOM     32  C   UNL     1      34.854 -17.828 -23.638  0.00  0.00    +0.075 C 
ATOM     33  C   UNL     1      34.485 -17.074 -24.737  0.00  0.00    +0.006 C 
ATOM     34  C   UNL     1      35.324 -18.357 -21.414  0.00  0.00    +0.235 C 
ATOM     35  C   UNL     1      34.612 -15.430 -20.745  0.00  0.00    +0.031 C 
ATOM     36  C   UNL     1      35.250 -19.227 -23.592  0.00  0.00    +0.341 C 
ENDBRANCH  25  28
BRANCH  25  37
ATOM     37  O   UNL     1      34.507 -12.973 -24.002  0.00  0.00    -0.382 OA
ATOM     38  H   UNL     1      34.520 -12.043 -23.729  0.00  0.00    +0.211 HD
ENDBRANCH  25  37
ENDBRANCH  24  25
ENDBRANCH   2  24
TORSDOF 8
ENDMDL
MODEL 8
REMARK VINA RESULT:     -12.3      4.047     12.195
REMARK  Name = 59568713
REMARK  8 active torsions:
REMARK  status: ('A' for Active; 'I' for Inactive)
REMARK    1  A    between atoms: N_1  and  C_9
REMARK    2  A    between atoms: N_2  and  C_24
REMARK    3  A    between atoms: C_9  and  C_10
REMARK    4  A    between atoms: C_10  and  C_13
REMARK    5  A    between atoms: C_10  and  O_22
REMARK    6  A    between atoms: C_24  and  C_25
REMARK    7  A    between atoms: C_25  and  C_28
REMARK    8  A    between atoms: C_25  and  O_37
REMARK                            x       y       z     vdW  Elec       q    Type
REMARK                         _______ _______ _______ _____ _____    ______ ____
ROOT
ATOM      1  N   UNL     1      34.254 -22.046 -19.149  0.00  0.00    +0.386 N 
ATOM      2  N   UNL     1      35.029 -19.933 -20.964  0.00  0.00    +0.386 N 
ATOM      3  C   UNL     1      33.660 -20.026 -20.442  0.00  0.00    -0.101 C 
ATOM      4  C   UNL     1      35.983 -20.500 -20.003  0.00  0.00    -0.101 C 
ATOM      5  C   UNL     1      33.301 -21.478 -20.110  0.00  0.00    -0.101 C 
ATOM      6  C   UNL     1      35.623 -21.952 -19.669  0.00  0.00    -0.101 C 
ATOM      7  H   UNL     1      34.200 -21.506 -18.286  0.00  0.00    -0.080 HD
ATOM      8  H   UNL     1      35.082 -20.475 -21.827  0.00  0.00    -0.080 HD
ENDROOT
BRANCH   1   9
ATOM      9  C   UNL     1      33.912 -23.432 -18.836  0.00  0.00    -0.043 C 
BRANCH   9  10
ATOM     10  C   UNL     1      33.209 -23.526 -17.475  0.00  0.00    +0.112 C 
BRANCH  10  13
ATOM     11  O   UNL     1      36.033 -23.923 -12.137  0.00  0.00    -0.440 OA
ATOM     12  O   UNL     1      37.959 -22.917 -12.932  0.00  0.00    -0.245 OA
ATOM     13  C   UNL     1      34.200 -23.456 -16.334  0.00  0.00    -0.002 C 
ATOM     14  C   UNL     1      33.867 -23.954 -15.070  0.00  0.00    -0.024 C 
ATOM     15  C   UNL     1      34.810 -23.863 -14.062  0.00  0.00    +0.023 C 
ATOM     16  C   UNL     1      35.459 -22.880 -16.570  0.00  0.00    -0.002 C 
ATOM     17  C   UNL     1      36.043 -23.295 -14.308  0.00  0.00    +0.075 C 
ATOM     18  C   UNL     1      36.402 -22.794 -15.545  0.00  0.00    +0.006 C 
ATOM     19  C   UNL     1      34.733 -24.300 -12.656  0.00  0.00    +0.235 C 
ATOM     20  C   UNL     1      32.534 -24.567 -14.805  0.00  0.00    +0.031 C 
ATOM     21  C   UNL     1      36.827 -23.330 -13.083  0.00  0.00    +0.341 C 
ENDBRANCH  10  13
BRANCH  10  22
ATOM     22  O   UNL     1      32.278 -22.455 -17.324  0.00  0.00    -0.382 OA
ATOM     23  H   UNL     1      31.446 -22.798 -16.964  0.00  0.00    +0.211 HD
ENDBRANCH  10  22
ENDBRANCH   9  10
ENDBRANCH   1   9
BRANCH   2  24
ATOM     24  C   UNL     1      35.372 -18.548 -21.279  0.00  0.00    -0.043 C 
BRANCH  24  25
ATOM     25  C   UNL     1      35.458 -18.340 -22.797  0.00  0.00    +0.112 C 
BRANCH  25  28
ATOM     26  O   UNL     1      33.312 -13.501 -25.730  0.00  0.00    -0.440 OA
ATOM     27  O   UNL     1      33.563 -12.112 -23.896  0.00  0.00    -0.245 OA
ATOM     28  C   UNL     1      34.987 -16.958 -23.194  0.00  0.00    -0.002 C 
ATOM     29  C   UNL     1      34.509 -16.711 -24.485  0.00  0.00    -0.024 C 
ATOM     30  C   UNL     1      34.091 -15.429 -24.794  0.00  0.00    +0.023 C 
ATOM     31  C   UNL     1      35.041 -15.926 -22.239  0.00  0.00    -0.002 C 
ATOM     32  C   UNL     1      34.150 -14.427 -23.848  0.00  0.00    +0.075 C 
ATOM     33  C   UNL     1      34.618 -14.637 -22.564  0.00  0.00    +0.006 C 
ATOM     34  C   UNL     1      33.550 -14.893 -26.055  0.00  0.00    +0.235 C 
ATOM     35  C   UNL     1      34.447 -17.794 -25.506  0.00  0.00    +0.031 C 
ATOM     36  C   UNL     1      33.655 -13.194 -24.439  0.00  0.00    +0.341 C 
ENDBRANCH  25  28
BRANCH  25  37
ATOM     37  O   UNL     1      36.806 -18.496 -23.241  0.00  0.00    -0.382 OA
ATOM     38  H   UNL     1      37.040 -19.437 -23.238  0.00  0.00    +0.211 HD
ENDBRANCH  25  37
ENDBRANCH  24  25
ENDBRANCH   2  24
TORSDOF 8
ENDMDL
MODEL 9
REMARK VINA RESULT:     -12.2      1.267     11.400
REMARK  Name = 59568713
REMARK  8 active torsions:
REMARK  status: ('A' for Active; 'I' for Inactive)
REMARK    1  A    between atoms: N_1  and  C_9
REMARK    2  A    between atoms: N_2  and  C_24
REMARK    3  A    between atoms: C_9  and  C_10
REMARK    4  A    between atoms: C_10  and  C_13
REMARK    5  A    between atoms: C_10  and  O_22
REMARK    6  A    between atoms: C_24  and  C_25
REMARK    7  A    between atoms: C_25  and  C_28
REMARK    8  A    between atoms: C_25  and  O_37
REMARK                            x       y       z     vdW  Elec       q    Type
REMARK                         _______ _______ _______ _____ _____    ______ ____
ROOT
ATOM      1  N   UNL     1      34.960 -17.058 -21.910  0.00  0.00    +0.386 N 
ATOM      2  N   UNL     1      34.653 -14.287 -22.675  0.00  0.00    +0.386 N 
ATOM      3  C   UNL     1      34.876 -15.335 -23.678  0.00  0.00    -0.101 C 
ATOM      4  C   UNL     1      33.955 -14.836 -21.507  0.00  0.00    -0.101 C 
ATOM      5  C   UNL     1      35.658 -16.508 -23.078  0.00  0.00    -0.101 C 
ATOM      6  C   UNL     1      34.736 -16.011 -20.906  0.00  0.00    -0.101 C 
ATOM      7  H   UNL     1      34.053 -17.411 -22.214  0.00  0.00    -0.080 HD
ATOM      8  H   UNL     1      35.562 -13.936 -22.370  0.00  0.00    -0.080 HD
ENDROOT
BRANCH   1   9
ATOM      9  C   UNL     1      35.709 -18.175 -21.336  0.00  0.00    -0.043 C 
BRANCH   9  10
ATOM     10  C   UNL     1      35.211 -19.512 -21.898  0.00  0.00    +0.112 C 
BRANCH  10  13
ATOM     11  O   UNL     1      34.092 -23.257 -17.278  0.00  0.00    -0.440 OA
ATOM     12  O   UNL     1      31.799 -22.988 -17.442  0.00  0.00    -0.245 OA
ATOM     13  C   UNL     1      34.567 -20.360 -20.823  0.00  0.00    -0.002 C 
ATOM     14  C   UNL     1      35.351 -21.123 -19.953  0.00  0.00    -0.024 C 
ATOM     15  C   UNL     1      34.710 -21.881 -18.989  0.00  0.00    +0.023 C 
ATOM     16  C   UNL     1      33.165 -20.364 -20.718  0.00  0.00    -0.002 C 
ATOM     17  C   UNL     1      33.333 -21.876 -18.898  0.00  0.00    +0.075 C 
ATOM     18  C   UNL     1      32.530 -21.133 -19.743  0.00  0.00    +0.006 C 
ATOM     19  C   UNL     1      35.276 -22.766 -17.955  0.00  0.00    +0.235 C 
ATOM     20  C   UNL     1      36.838 -21.128 -20.053  0.00  0.00    +0.031 C 
ATOM     21  C   UNL     1      32.933 -22.752 -17.807  0.00  0.00    +0.341 C 
ENDBRANCH  10  13
BRANCH  10  22
ATOM     22  O   UNL     1      34.247 -19.288 -22.927  0.00  0.00    -0.382 OA
ATOM     23  H   UNL     1      34.179 -20.077 -23.485  0.00  0.00    +0.211 HD
ENDBRANCH  10  22
ENDBRANCH   9  10
ENDBRANCH   1   9
BRANCH   2  24
ATOM     24  C   UNL     1      33.907 -13.169 -23.247  0.00  0.00    -0.043 C 
BRANCH  24  25
ATOM     25  C   UNL     1      32.543 -13.016 -22.563  0.00  0.00    +0.112 C 
BRANCH  25  28
ATOM     26  O   UNL     1      32.508  -7.100 -21.288  0.00  0.00    -0.440 OA
ATOM     27  O   UNL     1      31.707  -7.432 -19.142  0.00  0.00    -0.245 OA
ATOM     28  C   UNL     1      32.401 -11.660 -21.906  0.00  0.00    -0.002 C 
ATOM     29  C   UNL     1      32.738 -10.494 -22.599  0.00  0.00    -0.024 C 
ATOM     30  C   UNL     1      32.590  -9.281 -21.951  0.00  0.00    +0.023 C 
ATOM     31  C   UNL     1      31.926 -11.598 -20.584  0.00  0.00    -0.002 C 
ATOM     32  C   UNL     1      32.123  -9.234 -20.654  0.00  0.00    +0.075 C 
ATOM     33  C   UNL     1      31.783 -10.368 -19.940  0.00  0.00    +0.006 C 
ATOM     34  C   UNL     1      32.864  -7.916 -22.432  0.00  0.00    +0.235 C 
ATOM     35  C   UNL     1      33.244 -10.546 -24.001  0.00  0.00    +0.031 C 
ATOM     36  C   UNL     1      32.069  -7.845 -20.225  0.00  0.00    +0.341 C 
ENDBRANCH  25  28
BRANCH  25  37
ATOM     37  O   UNL     1      31.491 -13.161 -23.517  0.00  0.00    -0.382 OA
ATOM     38  H   UNL     1      30.766 -13.672 -23.125  0.00  0.00    +0.211 HD
ENDBRANCH  25  37
ENDBRANCH  24  25
ENDBRANCH   2  24
TORSDOF 8
ENDMDL
