MODEL 1
REMARK VINA RESULT:     -13.5      0.000      0.000
REMARK  Name = 6918314
REMARK  8 active torsions:
REMARK  status: ('A' for Active; 'I' for Inactive)
REMARK    1  A    between atoms: N_1  and  C_22
REMARK    2  A    between atoms: N_2  and  C_9
REMARK    3  A    between atoms: C_16  and  C_19
REMARK    4  A    between atoms: C_22  and  C_23
REMARK    5  A    between atoms: C_23  and  C_24
REMARK    6  A    between atoms: C_24  and  C_25
REMARK    7  A    between atoms: C_25  and  C_27
REMARK    8  A    between atoms: C_33  and  C_37
REMARK                            x       y       z     vdW  Elec       q    Type
REMARK                         _______ _______ _______ _____ _____    ______ ____
ROOT
ATOM      1  N   UNL     1      35.322 -16.945 -24.682  0.00  0.00    +0.389 N 
ATOM      2  N   UNL     1      35.189 -18.790 -22.506  0.00  0.00    -0.312 N 
ATOM      3  C   UNL     1      35.281 -16.458 -23.298  0.00  0.00    -0.055 C 
ATOM      4  C   UNL     1      34.537 -18.179 -24.802  0.00  0.00    -0.055 C 
ATOM      5  C   UNL     1      35.859 -17.496 -22.333  0.00  0.00    +0.068 C 
ATOM      6  C   UNL     1      35.089 -19.274 -23.887  0.00  0.00    +0.068 C 
ATOM      7  H   UNL     1      36.291 -17.146 -24.932  0.00  0.00    -0.080 HD
ENDROOT
BRANCH   2   9
ATOM      8  O   UNL     1      35.274 -22.422 -18.342  0.00  0.00    -0.449 OA
ATOM      9  C   UNL     1      35.249 -19.708 -21.451  0.00  0.00    +0.048 C 
ATOM     10  C   UNL     1      34.061 -20.250 -20.902  0.00  0.00    +0.018 C 
ATOM     11  C   UNL     1      36.493 -20.108 -20.915  0.00  0.00    +0.018 C 
ATOM     12  C   UNL     1      34.138 -21.171 -19.842  0.00  0.00    +0.039 C 
ATOM     13  C   UNL     1      35.395 -21.525 -19.361  0.00  0.00    +0.146 C 
ATOM     14  C   UNL     1      36.594 -21.023 -19.862  0.00  0.00    +0.039 C 
ATOM     15  C   UNL     1      33.206 -21.903 -19.062  0.00  0.00    +0.045 C 
ATOM     16  C   UNL     1      33.944 -22.644 -18.169  0.00  0.00    +0.198 C 
BRANCH  16  19
ATOM     17  O   UNL     1      34.320 -24.361 -16.569  0.00  0.00    -0.267 OA
ATOM     18  N   UNL     1      32.198 -23.583 -16.768  0.00  0.00    -0.323 N 
ATOM     19  C   UNL     1      33.549 -23.555 -17.149  0.00  0.00    +0.277 C 
ATOM     20  H   UNL     1      31.897 -24.204 -16.065  0.00  0.00    +0.145 HD
ATOM     21  H   UNL     1      31.551 -22.982 -17.203  0.00  0.00    +0.145 HD
ENDBRANCH  16  19
ENDBRANCH   2   9
BRANCH   1  22
ATOM     22  C   UNL     1      34.818 -15.924 -25.600  0.00  0.00    -0.077 C 
BRANCH  22  23
ATOM     23  C   UNL     1      33.340 -15.649 -25.327  0.00  0.00    -0.022 C 
BRANCH  23  24
ATOM     24  C   UNL     1      33.028 -14.155 -25.427  0.00  0.00    +0.003 C 
BRANCH  24  25
ATOM     25  C   UNL     1      33.857 -13.344 -24.426  0.00  0.00    +0.028 C 
BRANCH  25  27
ATOM     26  N   UNL     1      31.991 -13.214 -21.289  0.00  0.00    -0.312 N 
ATOM     27  C   UNL     1      33.083 -13.007 -23.186  0.00  0.00    -0.006 C 
ATOM     28  C   UNL     1      32.684 -11.714 -22.789  0.00  0.00    +0.011 C 
ATOM     29  C   UNL     1      32.654 -13.913 -22.262  0.00  0.00    +0.058 C 
ATOM     30  C   UNL     1      31.994 -11.869 -21.585  0.00  0.00    +0.048 C 
ATOM     31  C   UNL     1      32.834 -10.419 -23.323  0.00  0.00    +0.011 C 
ATOM     32  C   UNL     1      31.444 -10.789 -20.886  0.00  0.00    +0.015 C 
ATOM     33  C   UNL     1      32.289  -9.329 -22.635  0.00  0.00    +0.069 C 
ATOM     34  C   UNL     1      31.605  -9.513 -21.435  0.00  0.00    +0.012 C 
ATOM     35  H   UNL     1      31.573 -13.614 -20.493  0.00  0.00    +0.152 HD
BRANCH  33  37
ATOM     36  N   UNL     1      32.556  -6.943 -23.608  0.00  0.00    -0.191 NA
ATOM     37  C   UNL     1      32.437  -8.012 -23.172  0.00  0.00    +0.100 C 
ENDBRANCH  33  37
ENDBRANCH  25  27
ENDBRANCH  24  25
ENDBRANCH  23  24
ENDBRANCH  22  23
ENDBRANCH   1  22
TORSDOF 8
ENDMDL
MODEL 2
REMARK VINA RESULT:     -13.4      4.347     11.239
REMARK  Name = 6918314
REMARK  8 active torsions:
REMARK  status: ('A' for Active; 'I' for Inactive)
REMARK    1  A    between atoms: N_1  and  C_22
REMARK    2  A    between atoms: N_2  and  C_9
REMARK    3  A    between atoms: C_16  and  C_19
REMARK    4  A    between atoms: C_22  and  C_23
REMARK    5  A    between atoms: C_23  and  C_24
REMARK    6  A    between atoms: C_24  and  C_25
REMARK    7  A    between atoms: C_25  and  C_27
REMARK    8  A    between atoms: C_33  and  C_37
REMARK                            x       y       z     vdW  Elec       q    Type
REMARK                         _______ _______ _______ _____ _____    ______ ____
ROOT
ATOM      1  N   UNL     1      36.189 -20.890 -19.206  0.00  0.00    +0.389 N 
ATOM      2  N   UNL     1      35.510 -19.573 -21.648  0.00  0.00    -0.312 N 
ATOM      3  C   UNL     1      37.242 -20.434 -20.121  0.00  0.00    -0.055 C 
ATOM      4  C   UNL     1      35.008 -21.306 -19.971  0.00  0.00    -0.055 C 
ATOM      5  C   UNL     1      36.765 -19.247 -20.961  0.00  0.00    +0.068 C 
ATOM      6  C   UNL     1      34.457 -20.149 -20.806  0.00  0.00    +0.068 C 
ATOM      7  H   UNL     1      35.928 -20.117 -18.594  0.00  0.00    -0.080 HD
ENDROOT
BRANCH   2   9
ATOM      8  O   UNL     1      34.147 -16.479 -26.020  0.00  0.00    -0.449 OA
ATOM      9  C   UNL     1      35.163 -18.821 -22.777  0.00  0.00    +0.048 C 
ATOM     10  C   UNL     1      35.018 -17.415 -22.687  0.00  0.00    +0.018 C 
ATOM     11  C   UNL     1      34.951 -19.451 -24.023  0.00  0.00    +0.018 C 
ATOM     12  C   UNL     1      34.670 -16.674 -23.830  0.00  0.00    +0.039 C 
ATOM     13  C   UNL     1      34.476 -17.354 -25.028  0.00  0.00    +0.146 C 
ATOM     14  C   UNL     1      34.605 -18.735 -25.174  0.00  0.00    +0.039 C 
ATOM     15  C   UNL     1      34.443 -15.304 -24.123  0.00  0.00    +0.045 C 
ATOM     16  C   UNL     1      34.130 -15.240 -25.461  0.00  0.00    +0.198 C 
BRANCH  16  19
ATOM     17  O   UNL     1      33.839 -14.158 -27.557  0.00  0.00    -0.267 OA
ATOM     18  N   UNL     1      33.449 -12.921 -25.695  0.00  0.00    -0.323 N 
ATOM     19  C   UNL     1      33.808 -14.137 -26.300  0.00  0.00    +0.277 C 
ATOM     20  H   UNL     1      33.222 -12.142 -26.252  0.00  0.00    +0.145 HD
ATOM     21  H   UNL     1      33.424 -12.849 -24.714  0.00  0.00    +0.145 HD
ENDBRANCH  16  19
ENDBRANCH   2   9
BRANCH   1  22
ATOM     22  C   UNL     1      36.675 -21.988 -18.372  0.00  0.00    -0.077 C 
BRANCH  22  23
ATOM     23  C   UNL     1      36.886 -21.512 -16.936  0.00  0.00    -0.022 C 
BRANCH  23  24
ATOM     24  C   UNL     1      36.207 -22.450 -15.937  0.00  0.00    +0.003 C 
BRANCH  24  25
ATOM     25  C   UNL     1      34.954 -23.094 -16.538  0.00  0.00    +0.028 C 
BRANCH  25  27
ATOM     26  N   UNL     1      33.519 -24.980 -13.760  0.00  0.00    -0.312 N 
ATOM     27  C   UNL     1      34.112 -23.778 -15.502  0.00  0.00    -0.006 C 
ATOM     28  C   UNL     1      32.705 -23.742 -15.428  0.00  0.00    +0.011 C 
ATOM     29  C   UNL     1      34.596 -24.536 -14.478  0.00  0.00    +0.058 C 
ATOM     30  C   UNL     1      32.350 -24.509 -14.317  0.00  0.00    +0.048 C 
ATOM     31  C   UNL     1      31.684 -23.136 -16.188  0.00  0.00    +0.011 C 
ATOM     32  C   UNL     1      31.021 -24.704 -13.927  0.00  0.00    +0.015 C 
ATOM     33  C   UNL     1      30.349 -23.322 -15.809  0.00  0.00    +0.069 C 
ATOM     34  C   UNL     1      30.025 -24.094 -14.695  0.00  0.00    +0.012 C 
ATOM     35  H   UNL     1      33.571 -25.552 -12.960  0.00  0.00    +0.152 HD
BRANCH  33  37
ATOM     36  N   UNL     1      28.463 -22.217 -17.199  0.00  0.00    -0.191 NA
ATOM     37  C   UNL     1      29.308 -22.712 -16.576  0.00  0.00    +0.100 C 
ENDBRANCH  33  37
ENDBRANCH  25  27
ENDBRANCH  24  25
ENDBRANCH  23  24
ENDBRANCH  22  23
ENDBRANCH   1  22
TORSDOF 8
ENDMDL
MODEL 3
REMARK VINA RESULT:     -13.1      4.605     12.543
REMARK  Name = 6918314
REMARK  8 active torsions:
REMARK  status: ('A' for Active; 'I' for Inactive)
REMARK    1  A    between atoms: N_1  and  C_22
REMARK    2  A    between atoms: N_2  and  C_9
REMARK    3  A    between atoms: C_16  and  C_19
REMARK    4  A    between atoms: C_22  and  C_23
REMARK    5  A    between atoms: C_23  and  C_24
REMARK    6  A    between atoms: C_24  and  C_25
REMARK    7  A    between atoms: C_25  and  C_27
REMARK    8  A    between atoms: C_33  and  C_37
REMARK                            x       y       z     vdW  Elec       q    Type
REMARK                         _______ _______ _______ _____ _____    ______ ____
ROOT
ATOM      1  N   UNL     1      35.890 -20.869 -19.224  0.00  0.00    +0.389 N 
ATOM      2  N   UNL     1      35.321 -19.532 -21.682  0.00  0.00    -0.312 N 
ATOM      3  C   UNL     1      36.976 -20.514 -20.144  0.00  0.00    -0.055 C 
ATOM      4  C   UNL     1      34.679 -21.197 -19.984  0.00  0.00    -0.055 C 
ATOM      5  C   UNL     1      36.599 -19.302 -20.998  0.00  0.00    +0.068 C 
ATOM      6  C   UNL     1      34.224 -20.009 -20.834  0.00  0.00    +0.068 C 
ATOM      7  H   UNL     1      35.694 -20.070 -18.621  0.00  0.00    -0.080 HD
ENDROOT
BRANCH   2   9
ATOM      8  O   UNL     1      34.204 -16.393 -26.091  0.00  0.00    -0.449 OA
ATOM      9  C   UNL     1      35.037 -18.769 -22.821  0.00  0.00    +0.048 C 
ATOM     10  C   UNL     1      34.907 -17.361 -22.729  0.00  0.00    +0.018 C 
ATOM     11  C   UNL     1      34.874 -19.388 -24.080  0.00  0.00    +0.018 C 
ATOM     12  C   UNL     1      34.622 -16.609 -23.882  0.00  0.00    +0.039 C 
ATOM     13  C   UNL     1      34.474 -17.279 -25.092  0.00  0.00    +0.146 C 
ATOM     14  C   UNL     1      34.591 -18.660 -25.240  0.00  0.00    +0.039 C 
ATOM     15  C   UNL     1      34.427 -15.234 -24.175  0.00  0.00    +0.045 C 
ATOM     16  C   UNL     1      34.177 -15.157 -25.526  0.00  0.00    +0.198 C 
BRANCH  16  19
ATOM     17  O   UNL     1      33.993 -14.060 -27.626  0.00  0.00    -0.267 OA
ATOM     18  N   UNL     1      33.546 -12.826 -25.775  0.00  0.00    -0.323 N 
ATOM     19  C   UNL     1      33.910 -14.044 -26.372  0.00  0.00    +0.277 C 
ATOM     20  H   UNL     1      33.356 -12.040 -26.336  0.00  0.00    +0.145 HD
ATOM     21  H   UNL     1      33.482 -12.758 -24.795  0.00  0.00    +0.145 HD
ENDBRANCH  16  19
ENDBRANCH   2   9
BRANCH   1  22
ATOM     22  C   UNL     1      36.284 -21.994 -18.376  0.00  0.00    -0.077 C 
BRANCH  22  23
ATOM     23  C   UNL     1      35.047 -22.724 -17.855  0.00  0.00    -0.022 C 
BRANCH  23  24
ATOM     24  C   UNL     1      35.017 -22.740 -16.325  0.00  0.00    +0.003 C 
BRANCH  24  25
ATOM     25  C   UNL     1      34.447 -24.058 -15.792  0.00  0.00    +0.028 C 
BRANCH  25  27
ATOM     26  N   UNL     1      35.141 -24.754 -12.275  0.00  0.00    -0.312 N 
ATOM     27  C   UNL     1      34.996 -24.412 -14.442  0.00  0.00    -0.006 C 
ATOM     28  C   UNL     1      36.308 -24.852 -14.175  0.00  0.00    +0.011 C 
ATOM     29  C   UNL     1      34.294 -24.356 -13.275  0.00  0.00    +0.058 C 
ATOM     30  C   UNL     1      36.378 -25.064 -12.796  0.00  0.00    +0.048 C 
ATOM     31  C   UNL     1      37.453 -25.098 -14.958  0.00  0.00    +0.011 C 
ATOM     32  C   UNL     1      37.541 -25.508 -12.159  0.00  0.00    +0.015 C 
ATOM     33  C   UNL     1      38.624 -25.544 -14.334  0.00  0.00    +0.069 C 
ATOM     34  C   UNL     1      38.666 -25.746 -12.956  0.00  0.00    +0.012 C 
ATOM     35  H   UNL     1      34.902 -24.810 -11.322  0.00  0.00    +0.152 HD
BRANCH  33  37
ATOM     36  N   UNL     1      40.738 -25.999 -15.762  0.00  0.00    -0.191 NA
ATOM     37  C   UNL     1      39.791 -25.795 -15.122  0.00  0.00    +0.100 C 
ENDBRANCH  33  37
ENDBRANCH  25  27
ENDBRANCH  24  25
ENDBRANCH  23  24
ENDBRANCH  22  23
ENDBRANCH   1  22
TORSDOF 8
ENDMDL
MODEL 4
REMARK VINA RESULT:     -13.1      4.208     11.101
REMARK  Name = 6918314
REMARK  8 active torsions:
REMARK  status: ('A' for Active; 'I' for Inactive)
REMARK    1  A    between atoms: N_1  and  C_22
REMARK    2  A    between atoms: N_2  and  C_9
REMARK    3  A    between atoms: C_16  and  C_19
REMARK    4  A    between atoms: C_22  and  C_23
REMARK    5  A    between atoms: C_23  and  C_24
REMARK    6  A    between atoms: C_24  and  C_25
REMARK    7  A    between atoms: C_25  and  C_27
REMARK    8  A    between atoms: C_33  and  C_37
REMARK                            x       y       z     vdW  Elec       q    Type
REMARK                         _______ _______ _______ _____ _____    ______ ____
ROOT
ATOM      1  N   UNL     1      34.029 -15.906 -24.461  0.00  0.00    +0.389 N 
ATOM      2  N   UNL     1      33.265 -13.383 -23.363  0.00  0.00    -0.312 N 
ATOM      3  C   UNL     1      34.603 -15.445 -23.191  0.00  0.00    -0.055 C 
ATOM      4  C   UNL     1      33.776 -14.760 -25.341  0.00  0.00    -0.055 C 
ATOM      5  C   UNL     1      33.651 -14.486 -22.474  0.00  0.00    +0.068 C 
ATOM      6  C   UNL     1      32.797 -13.777 -24.696  0.00  0.00    +0.068 C 
ATOM      7  H   UNL     1      33.144 -16.376 -24.271  0.00  0.00    -0.080 HD
ENDROOT
BRANCH   2   9
ATOM      8  O   UNL     1      31.434  -8.649 -21.177  0.00  0.00    -0.449 OA
ATOM      9  C   UNL     1      32.787 -12.204 -22.779  0.00  0.00    +0.048 C 
ATOM     10  C   UNL     1      32.982 -10.955 -23.420  0.00  0.00    +0.018 C 
ATOM     11  C   UNL     1      32.105 -12.238 -21.543  0.00  0.00    +0.018 C 
ATOM     12  C   UNL     1      32.496  -9.780 -22.820  0.00  0.00    +0.039 C 
ATOM     13  C   UNL     1      31.831  -9.881 -21.602  0.00  0.00    +0.146 C 
ATOM     14  C   UNL     1      31.613 -11.082 -20.929  0.00  0.00    +0.039 C 
ATOM     15  C   UNL     1      32.496  -8.398 -23.145  0.00  0.00    +0.045 C 
ATOM     16  C   UNL     1      31.842  -7.757 -22.119  0.00  0.00    +0.198 C 
BRANCH  16  19
ATOM     17  O   UNL     1      30.725  -5.712 -22.584  0.00  0.00    -0.267 OA
ATOM     18  N   UNL     1      32.225  -5.705 -20.880  0.00  0.00    -0.323 N 
ATOM     19  C   UNL     1      31.545  -6.382 -21.906  0.00  0.00    +0.277 C 
ATOM     20  H   UNL     1      32.039  -4.753 -20.711  0.00  0.00    +0.145 HD
ATOM     21  H   UNL     1      32.888  -6.182 -20.331  0.00  0.00    +0.145 HD
ENDBRANCH  16  19
ENDBRANCH   2   9
BRANCH   1  22
ATOM     22  C   UNL     1      34.923 -16.865 -25.110  0.00  0.00    -0.077 C 
BRANCH  22  23
ATOM     23  C   UNL     1      34.275 -18.247 -25.159  0.00  0.00    -0.022 C 
BRANCH  23  24
ATOM     24  C   UNL     1      35.009 -19.234 -24.249  0.00  0.00    +0.003 C 
BRANCH  24  25
ATOM     25  C   UNL     1      34.490 -19.158 -22.809  0.00  0.00    +0.028 C 
BRANCH  25  27
ATOM     26  N   UNL     1      37.474 -19.142 -20.704  0.00  0.00    -0.312 N 
ATOM     27  C   UNL     1      35.580 -19.359 -21.799  0.00  0.00    -0.006 C 
ATOM     28  C   UNL     1      35.557 -20.284 -20.735  0.00  0.00    +0.011 C 
ATOM     29  C   UNL     1      36.754 -18.668 -21.769  0.00  0.00    +0.058 C 
ATOM     30  C   UNL     1      36.766 -20.129 -20.054  0.00  0.00    +0.048 C 
ATOM     31  C   UNL     1      34.635 -21.243 -20.270  0.00  0.00    +0.011 C 
ATOM     32  C   UNL     1      37.102 -20.889 -18.929  0.00  0.00    +0.015 C 
ATOM     33  C   UNL     1      34.957 -22.010 -19.145  0.00  0.00    +0.069 C 
ATOM     34  C   UNL     1      36.172 -21.834 -18.485  0.00  0.00    +0.012 C 
ATOM     35  H   UNL     1      38.367 -18.823 -20.441  0.00  0.00    +0.152 HD
BRANCH  33  37
ATOM     36  N   UNL     1      33.272 -23.779 -18.281  0.00  0.00    -0.191 NA
ATOM     37  C   UNL     1      34.027 -22.986 -18.668  0.00  0.00    +0.100 C 
ENDBRANCH  33  37
ENDBRANCH  25  27
ENDBRANCH  24  25
ENDBRANCH  23  24
ENDBRANCH  22  23
ENDBRANCH   1  22
TORSDOF 8
ENDMDL
MODEL 5
REMARK VINA RESULT:     -12.8      4.206     11.526
REMARK  Name = 6918314
REMARK  8 active torsions:
REMARK  status: ('A' for Active; 'I' for Inactive)
REMARK    1  A    between atoms: N_1  and  C_22
REMARK    2  A    between atoms: N_2  and  C_9
REMARK    3  A    between atoms: C_16  and  C_19
REMARK    4  A    between atoms: C_22  and  C_23
REMARK    5  A    between atoms: C_23  and  C_24
REMARK    6  A    between atoms: C_24  and  C_25
REMARK    7  A    between atoms: C_25  and  C_27
REMARK    8  A    between atoms: C_33  and  C_37
REMARK                            x       y       z     vdW  Elec       q    Type
REMARK                         _______ _______ _______ _____ _____    ______ ____
ROOT
ATOM      1  N   UNL     1      35.580 -16.945 -22.972  0.00  0.00    +0.389 N 
ATOM      2  N   UNL     1      33.972 -14.623 -22.549  0.00  0.00    -0.312 N 
ATOM      3  C   UNL     1      34.750 -16.410 -24.057  0.00  0.00    -0.055 C 
ATOM      4  C   UNL     1      34.917 -16.725 -21.681  0.00  0.00    -0.055 C 
ATOM      5  C   UNL     1      34.518 -14.907 -23.882  0.00  0.00    +0.068 C 
ATOM      6  C   UNL     1      34.689 -15.234 -21.426  0.00  0.00    +0.068 C 
ATOM      7  H   UNL     1      36.475 -16.455 -22.969  0.00  0.00    -0.080 HD
ENDROOT
BRANCH   2   9
ATOM      8  O   UNL     1      31.348  -9.798 -21.931  0.00  0.00    -0.449 OA
ATOM      9  C   UNL     1      33.288 -13.416 -22.363  0.00  0.00    +0.048 C 
ATOM     10  C   UNL     1      33.539 -12.309 -23.211  0.00  0.00    +0.018 C 
ATOM     11  C   UNL     1      32.338 -13.279 -21.326  0.00  0.00    +0.018 C 
ATOM     12  C   UNL     1      32.844 -11.103 -23.010  0.00  0.00    +0.039 C 
ATOM     13  C   UNL     1      31.920 -11.034 -21.972  0.00  0.00    +0.146 C 
ATOM     14  C   UNL     1      31.634 -12.091 -21.109  0.00  0.00    +0.039 C 
ATOM     15  C   UNL     1      32.824  -9.827 -23.630  0.00  0.00    +0.045 C 
ATOM     16  C   UNL     1      31.902  -9.074 -22.939  0.00  0.00    +0.198 C 
BRANCH  16  19
ATOM     17  O   UNL     1      30.874  -7.292 -24.129  0.00  0.00    -0.267 OA
ATOM     18  N   UNL     1      31.731  -6.809 -22.084  0.00  0.00    -0.323 N 
ATOM     19  C   UNL     1      31.467  -7.730 -23.110  0.00  0.00    +0.277 C 
ATOM     20  H   UNL     1      31.441  -5.872 -22.176  0.00  0.00    +0.145 HD
ATOM     21  H   UNL     1      32.207  -7.099 -21.272  0.00  0.00    +0.145 HD
ENDBRANCH  16  19
ENDBRANCH   2   9
BRANCH   1  22
ATOM     22  C   UNL     1      35.840 -18.369 -23.179  0.00  0.00    -0.077 C 
BRANCH  22  23
ATOM     23  C   UNL     1      36.324 -19.015 -21.882  0.00  0.00    -0.022 C 
BRANCH  23  24
ATOM     24  C   UNL     1      35.351 -20.096 -21.407  0.00  0.00    +0.003 C 
BRANCH  24  25
ATOM     25  C   UNL     1      35.937 -20.902 -20.244  0.00  0.00    +0.028 C 
BRANCH  25  27
ATOM     26  N   UNL     1      32.947 -22.485 -18.869  0.00  0.00    -0.312 N 
ATOM     27  C   UNL     1      34.880 -21.620 -19.458  0.00  0.00    -0.006 C 
ATOM     28  C   UNL     1      35.061 -22.232 -18.201  0.00  0.00    +0.011 C 
ATOM     29  C   UNL     1      33.586 -21.781 -19.854  0.00  0.00    +0.058 C 
ATOM     30  C   UNL     1      33.824 -22.775 -17.847  0.00  0.00    +0.048 C 
ATOM     31  C   UNL     1      36.148 -22.389 -17.318  0.00  0.00    +0.011 C 
ATOM     32  C   UNL     1      33.618 -23.466 -16.648  0.00  0.00    +0.015 C 
ATOM     33  C   UNL     1      35.956 -23.079 -16.115  0.00  0.00    +0.069 C 
ATOM     34  C   UNL     1      34.710 -23.609 -15.788  0.00  0.00    +0.012 C 
ATOM     35  H   UNL     1      31.998 -22.746 -18.888  0.00  0.00    +0.152 HD
BRANCH  33  37
ATOM     36  N   UNL     1      37.946 -23.371 -14.481  0.00  0.00    -0.191 NA
ATOM     37  C   UNL     1      37.054 -23.240 -15.213  0.00  0.00    +0.100 C 
ENDBRANCH  33  37
ENDBRANCH  25  27
ENDBRANCH  24  25
ENDBRANCH  23  24
ENDBRANCH  22  23
ENDBRANCH   1  22
TORSDOF 8
ENDMDL
MODEL 6
REMARK VINA RESULT:     -12.7      3.616     11.012
REMARK  Name = 6918314
REMARK  8 active torsions:
REMARK  status: ('A' for Active; 'I' for Inactive)
REMARK    1  A    between atoms: N_1  and  C_22
REMARK    2  A    between atoms: N_2  and  C_9
REMARK    3  A    between atoms: C_16  and  C_19
REMARK    4  A    between atoms: C_22  and  C_23
REMARK    5  A    between atoms: C_23  and  C_24
REMARK    6  A    between atoms: C_24  and  C_25
REMARK    7  A    between atoms: C_25  and  C_27
REMARK    8  A    between atoms: C_33  and  C_37
REMARK                            x       y       z     vdW  Elec       q    Type
REMARK                         _______ _______ _______ _____ _____    ______ ____
ROOT
ATOM      1  N   UNL     1      35.926 -20.892 -20.614  0.00  0.00    +0.389 N 
ATOM      2  N   UNL     1      35.146 -18.243 -21.343  0.00  0.00    -0.312 N 
ATOM      3  C   UNL     1      34.520 -20.483 -20.528  0.00  0.00    -0.055 C 
ATOM      4  C   UNL     1      36.798 -19.752 -20.311  0.00  0.00    -0.055 C 
ATOM      5  C   UNL     1      34.212 -19.361 -21.523  0.00  0.00    +0.068 C 
ATOM      6  C   UNL     1      36.566 -18.605 -21.297  0.00  0.00    +0.068 C 
ATOM      7  H   UNL     1      36.120 -21.210 -21.564  0.00  0.00    -0.080 HD
ENDROOT
BRANCH   2   9
ATOM      8  O   UNL     1      33.549 -13.255 -23.107  0.00  0.00    -0.449 OA
ATOM      9  C   UNL     1      34.765 -16.984 -21.821  0.00  0.00    +0.048 C 
ATOM     10  C   UNL     1      33.837 -16.193 -21.100  0.00  0.00    +0.018 C 
ATOM     11  C   UNL     1      35.296 -16.481 -23.029  0.00  0.00    +0.018 C 
ATOM     12  C   UNL     1      33.464 -14.930 -21.593  0.00  0.00    +0.039 C 
ATOM     13  C   UNL     1      34.025 -14.492 -22.788  0.00  0.00    +0.146 C 
ATOM     14  C   UNL     1      34.941 -15.228 -23.538  0.00  0.00    +0.039 C 
ATOM     15  C   UNL     1      32.598 -13.889 -21.169  0.00  0.00    +0.045 C 
ATOM     16  C   UNL     1      32.686 -12.899 -22.119  0.00  0.00    +0.198 C 
BRANCH  16  19
ATOM     17  O   UNL     1      32.590 -10.587 -22.661  0.00  0.00    -0.267 OA
ATOM     18  N   UNL     1      30.718 -11.519 -21.780  0.00  0.00    -0.323 N 
ATOM     19  C   UNL     1      32.046 -11.631 -22.221  0.00  0.00    +0.277 C 
ATOM     20  H   UNL     1      30.251 -10.654 -21.839  0.00  0.00    +0.145 HD
ATOM     21  H   UNL     1      30.253 -12.304 -21.413  0.00  0.00    +0.145 HD
ENDBRANCH  16  19
ENDBRANCH   2   9
BRANCH   1  22
ATOM     22  C   UNL     1      36.195 -22.001 -19.699  0.00  0.00    -0.077 C 
BRANCH  22  23
ATOM     23  C   UNL     1      36.764 -21.476 -18.382  0.00  0.00    -0.022 C 
BRANCH  23  24
ATOM     24  C   UNL     1      36.193 -22.244 -17.188  0.00  0.00    +0.003 C 
BRANCH  24  25
ATOM     25  C   UNL     1      34.786 -22.771 -17.485  0.00  0.00    +0.028 C 
BRANCH  25  27
ATOM     26  N   UNL     1      33.985 -24.696 -14.487  0.00  0.00    -0.312 N 
ATOM     27  C   UNL     1      34.186 -23.485 -16.311  0.00  0.00    -0.006 C 
ATOM     28  C   UNL     1      32.816 -23.517 -15.978  0.00  0.00    +0.011 C 
ATOM     29  C   UNL     1      34.888 -24.208 -15.393  0.00  0.00    +0.058 C 
ATOM     30  C   UNL     1      32.712 -24.289 -14.819  0.00  0.00    +0.048 C 
ATOM     31  C   UNL     1      31.644 -22.970 -16.536  0.00  0.00    +0.011 C 
ATOM     32  C   UNL     1      31.489 -24.544 -14.189  0.00  0.00    +0.015 C 
ATOM     33  C   UNL     1      30.413 -23.217 -15.917  0.00  0.00    +0.069 C 
ATOM     34  C   UNL     1      30.339 -23.991 -14.761  0.00  0.00    +0.012 C 
ATOM     35  H   UNL     1      34.212 -25.256 -13.710  0.00  0.00    +0.152 HD
BRANCH  33  37
ATOM     36  N   UNL     1      28.249 -22.219 -16.934  0.00  0.00    -0.191 NA
ATOM     37  C   UNL     1      29.219 -22.666 -16.479  0.00  0.00    +0.100 C 
ENDBRANCH  33  37
ENDBRANCH  25  27
ENDBRANCH  24  25
ENDBRANCH  23  24
ENDBRANCH  22  23
ENDBRANCH   1  22
TORSDOF 8
ENDMDL
MODEL 7
REMARK VINA RESULT:     -12.5      1.903      2.476
REMARK  Name = 6918314
REMARK  8 active torsions:
REMARK  status: ('A' for Active; 'I' for Inactive)
REMARK    1  A    between atoms: N_1  and  C_22
REMARK    2  A    between atoms: N_2  and  C_9
REMARK    3  A    between atoms: C_16  and  C_19
REMARK    4  A    between atoms: C_22  and  C_23
REMARK    5  A    between atoms: C_23  and  C_24
REMARK    6  A    between atoms: C_24  and  C_25
REMARK    7  A    between atoms: C_25  and  C_27
REMARK    8  A    between atoms: C_33  and  C_37
REMARK                            x       y       z     vdW  Elec       q    Type
REMARK                         _______ _______ _______ _____ _____    ______ ____
ROOT
ATOM      1  N   UNL     1      34.993 -18.102 -23.504  0.00  0.00    +0.389 N 
ATOM      2  N   UNL     1      35.261 -19.931 -21.327  0.00  0.00    -0.312 N 
ATOM      3  C   UNL     1      34.167 -19.314 -23.447  0.00  0.00    -0.055 C 
ATOM      4  C   UNL     1      36.310 -18.368 -22.915  0.00  0.00    -0.055 C 
ATOM      5  C   UNL     1      33.966 -19.775 -22.002  0.00  0.00    +0.068 C 
ATOM      6  C   UNL     1      36.182 -18.798 -21.452  0.00  0.00    +0.068 C 
ATOM      7  H   UNL     1      34.535 -17.366 -22.967  0.00  0.00    -0.080 HD
ENDROOT
BRANCH   2   9
ATOM      8  O   UNL     1      35.626 -23.121 -16.829  0.00  0.00    -0.449 OA
ATOM      9  C   UNL     1      35.317 -20.750 -20.193  0.00  0.00    +0.048 C 
ATOM     10  C   UNL     1      36.502 -20.830 -19.422  0.00  0.00    +0.018 C 
ATOM     11  C   UNL     1      34.194 -21.512 -19.800  0.00  0.00    +0.018 C 
ATOM     12  C   UNL     1      36.543 -21.657 -18.286  0.00  0.00    +0.039 C 
ATOM     13  C   UNL     1      35.403 -22.381 -17.951  0.00  0.00    +0.146 C 
ATOM     14  C   UNL     1      34.211 -22.341 -18.673  0.00  0.00    +0.039 C 
ATOM     15  C   UNL     1      37.510 -21.985 -17.301  0.00  0.00    +0.045 C 
ATOM     16  C   UNL     1      36.906 -22.874 -16.443  0.00  0.00    +0.198 C 
BRANCH  16  19
ATOM     17  O   UNL     1      37.668 -22.968 -14.194  0.00  0.00    -0.267 OA
ATOM     18  N   UNL     1      37.597 -24.924 -15.342  0.00  0.00    -0.323 N 
ATOM     19  C   UNL     1      37.390 -23.537 -15.280  0.00  0.00    +0.277 C 
ATOM     20  H   UNL     1      37.932 -25.408 -14.552  0.00  0.00    +0.145 HD
ATOM     21  H   UNL     1      37.410 -25.413 -16.175  0.00  0.00    +0.145 HD
ENDBRANCH  16  19
ENDBRANCH   2   9
BRANCH   1  22
ATOM     22  C   UNL     1      35.132 -17.641 -24.885  0.00  0.00    -0.077 C 
BRANCH  22  23
ATOM     23  C   UNL     1      34.397 -16.315 -25.078  0.00  0.00    -0.022 C 
BRANCH  23  24
ATOM     24  C   UNL     1      34.632 -15.376 -23.894  0.00  0.00    +0.003 C 
BRANCH  24  25
ATOM     25  C   UNL     1      33.859 -14.064 -24.060  0.00  0.00    +0.028 C 
BRANCH  25  27
ATOM     26  N   UNL     1      32.290 -13.699 -20.783  0.00  0.00    -0.312 N 
ATOM     27  C   UNL     1      33.176 -13.640 -22.794  0.00  0.00    -0.006 C 
ATOM     28  C   UNL     1      32.698 -12.345 -22.509  0.00  0.00    +0.011 C 
ATOM     29  C   UNL     1      32.921 -14.456 -21.733  0.00  0.00    +0.058 C 
ATOM     30  C   UNL     1      32.141 -12.404 -21.230  0.00  0.00    +0.048 C 
ATOM     31  C   UNL     1      32.677 -11.117 -23.201  0.00  0.00    +0.011 C 
ATOM     32  C   UNL     1      31.560 -11.294 -20.607  0.00  0.00    +0.015 C 
ATOM     33  C   UNL     1      32.100  -9.998 -22.590  0.00  0.00    +0.069 C 
ATOM     34  C   UNL     1      31.551 -10.087 -21.312  0.00  0.00    +0.012 C 
ATOM     35  H   UNL     1      31.986 -14.030 -19.908  0.00  0.00    +0.152 HD
BRANCH  33  37
ATOM     36  N   UNL     1      32.054  -7.736 -23.852  0.00  0.00    -0.191 NA
ATOM     37  C   UNL     1      32.075  -8.750 -23.287  0.00  0.00    +0.100 C 
ENDBRANCH  33  37
ENDBRANCH  25  27
ENDBRANCH  24  25
ENDBRANCH  23  24
ENDBRANCH  22  23
ENDBRANCH   1  22
TORSDOF 8
ENDMDL
MODEL 8
REMARK VINA RESULT:     -12.3      4.034     11.475
REMARK  Name = 6918314
REMARK  8 active torsions:
REMARK  status: ('A' for Active; 'I' for Inactive)
REMARK    1  A    between atoms: N_1  and  C_22
REMARK    2  A    between atoms: N_2  and  C_9
REMARK    3  A    between atoms: C_16  and  C_19
REMARK    4  A    between atoms: C_22  and  C_23
REMARK    5  A    between atoms: C_23  and  C_24
REMARK    6  A    between atoms: C_24  and  C_25
REMARK    7  A    between atoms: C_25  and  C_27
REMARK    8  A    between atoms: C_33  and  C_37
REMARK                            x       y       z     vdW  Elec       q    Type
REMARK                         _______ _______ _______ _____ _____    ______ ____
ROOT
ATOM      1  N   UNL     1      35.537 -17.254 -22.669  0.00  0.00    +0.389 N 
ATOM      2  N   UNL     1      33.964 -14.894 -22.331  0.00  0.00    -0.312 N 
ATOM      3  C   UNL     1      34.769 -16.706 -23.793  0.00  0.00    -0.055 C 
ATOM      4  C   UNL     1      34.822 -17.012 -21.411  0.00  0.00    -0.055 C 
ATOM      5  C   UNL     1      34.563 -15.198 -23.636  0.00  0.00    +0.068 C 
ATOM      6  C   UNL     1      34.616 -15.514 -21.173  0.00  0.00    +0.068 C 
ATOM      7  H   UNL     1      36.442 -16.784 -22.628  0.00  0.00    -0.080 HD
ENDROOT
BRANCH   2   9
ATOM      8  O   UNL     1      31.412 -10.014 -21.866  0.00  0.00    -0.449 OA
ATOM      9  C   UNL     1      33.300 -13.670 -22.181  0.00  0.00    +0.048 C 
ATOM     10  C   UNL     1      33.506 -12.622 -23.112  0.00  0.00    +0.018 C 
ATOM     11  C   UNL     1      32.416 -13.459 -21.100  0.00  0.00    +0.018 C 
ATOM     12  C   UNL     1      32.831 -11.400 -22.947  0.00  0.00    +0.039 C 
ATOM     13  C   UNL     1      31.973 -11.256 -21.862  0.00  0.00    +0.146 C 
ATOM     14  C   UNL     1      31.733 -12.252 -20.917  0.00  0.00    +0.039 C 
ATOM     15  C   UNL     1      32.781 -10.165 -23.645  0.00  0.00    +0.045 C 
ATOM     16  C   UNL     1      31.908  -9.361 -22.950  0.00  0.00    +0.198 C 
BRANCH  16  19
ATOM     17  O   UNL     1      31.149  -7.561 -24.303  0.00  0.00    -0.267 OA
ATOM     18  N   UNL     1      31.410  -7.148 -22.087  0.00  0.00    -0.323 N 
ATOM     19  C   UNL     1      31.471  -8.027 -23.180  0.00  0.00    +0.277 C 
ATOM     20  H   UNL     1      31.112  -6.219 -22.218  0.00  0.00    +0.145 HD
ATOM     21  H   UNL     1      31.667  -7.460 -21.189  0.00  0.00    +0.145 HD
ENDBRANCH  16  19
ENDBRANCH   2   9
BRANCH   1  22
ATOM     22  C   UNL     1      35.774 -18.685 -22.858  0.00  0.00    -0.077 C 
BRANCH  22  23
ATOM     23  C   UNL     1      34.866 -19.499 -21.938  0.00  0.00    -0.022 C 
BRANCH  23  24
ATOM     24  C   UNL     1      35.678 -20.247 -20.879  0.00  0.00    +0.003 C 
BRANCH  24  25
ATOM     25  C   UNL     1      34.869 -21.390 -20.259  0.00  0.00    +0.028 C 
BRANCH  25  27
ATOM     26  N   UNL     1      36.844 -22.243 -17.309  0.00  0.00    -0.312 N 
ATOM     27  C   UNL     1      35.430 -21.836 -18.942  0.00  0.00    -0.006 C 
ATOM     28  C   UNL     1      34.699 -22.429 -17.893  0.00  0.00    +0.011 C 
ATOM     29  C   UNL     1      36.738 -21.728 -18.572  0.00  0.00    +0.058 C 
ATOM     30  C   UNL     1      35.614 -22.678 -16.868  0.00  0.00    +0.048 C 
ATOM     31  C   UNL     1      33.349 -22.784 -17.698  0.00  0.00    +0.011 C 
ATOM     32  C   UNL     1      35.246 -23.269 -15.654  0.00  0.00    +0.015 C 
ATOM     33  C   UNL     1      32.966 -23.375 -16.488  0.00  0.00    +0.069 C 
ATOM     34  C   UNL     1      33.901 -23.613 -15.483  0.00  0.00    +0.012 C 
ATOM     35  H   UNL     1      37.679 -22.295 -16.789  0.00  0.00    +0.152 HD
BRANCH  33  37
ATOM     36  N   UNL     1      30.488 -24.035 -16.119  0.00  0.00    -0.191 NA
ATOM     37  C   UNL     1      31.598 -23.739 -16.284  0.00  0.00    +0.100 C 
ENDBRANCH  33  37
ENDBRANCH  25  27
ENDBRANCH  24  25
ENDBRANCH  23  24
ENDBRANCH  22  23
ENDBRANCH   1  22
TORSDOF 8
ENDMDL
MODEL 9
REMARK VINA RESULT:     -12.3      3.013      5.010
REMARK  Name = 6918314
REMARK  8 active torsions:
REMARK  status: ('A' for Active; 'I' for Inactive)
REMARK    1  A    between atoms: N_1  and  C_22
REMARK    2  A    between atoms: N_2  and  C_9
REMARK    3  A    between atoms: C_16  and  C_19
REMARK    4  A    between atoms: C_22  and  C_23
REMARK    5  A    between atoms: C_23  and  C_24
REMARK    6  A    between atoms: C_24  and  C_25
REMARK    7  A    between atoms: C_25  and  C_27
REMARK    8  A    between atoms: C_33  and  C_37
REMARK                            x       y       z     vdW  Elec       q    Type
REMARK                         _______ _______ _______ _____ _____    ______ ____
ROOT
ATOM      1  N   UNL     1      34.686 -20.688 -21.143  0.00  0.00    +0.389 N 
ATOM      2  N   UNL     1      35.606 -21.673 -18.625  0.00  0.00    -0.312 N 
ATOM      3  C   UNL     1      35.950 -20.207 -20.575  0.00  0.00    -0.055 C 
ATOM      4  C   UNL     1      33.733 -20.978 -20.066  0.00  0.00    -0.055 C 
ATOM      5  C   UNL     1      36.571 -21.254 -19.648  0.00  0.00    +0.068 C 
ATOM      6  C   UNL     1      34.279 -22.051 -19.121  0.00  0.00    +0.068 C 
ATOM      7  H   UNL     1      34.864 -21.547 -21.664  0.00  0.00    -0.080 HD
ENDROOT
BRANCH   2   9
ATOM      8  O   UNL     1      37.419 -24.020 -13.962  0.00  0.00    -0.449 OA
ATOM      9  C   UNL     1      36.101 -22.258 -17.453  0.00  0.00    +0.048 C 
ATOM     10  C   UNL     1      35.223 -22.888 -16.538  0.00  0.00    +0.018 C 
ATOM     11  C   UNL     1      37.483 -22.227 -17.162  0.00  0.00    +0.018 C 
ATOM     12  C   UNL     1      35.737 -23.470 -15.365  0.00  0.00    +0.039 C 
ATOM     13  C   UNL     1      37.108 -23.407 -15.138  0.00  0.00    +0.146 C 
ATOM     14  C   UNL     1      38.016 -22.800 -16.003  0.00  0.00    +0.039 C 
ATOM     15  C   UNL     1      35.193 -24.166 -14.254  0.00  0.00    +0.045 C 
ATOM     16  C   UNL     1      36.253 -24.476 -13.434  0.00  0.00    +0.198 C 
BRANCH  16  19
ATOM     17  O   UNL     1      36.852 -26.282 -12.010  0.00  0.00    -0.267 OA
ATOM     18  N   UNL     1      35.701 -24.566 -11.071  0.00  0.00    -0.323 N 
ATOM     19  C   UNL     1      36.310 -25.162 -12.188  0.00  0.00    +0.277 C 
ATOM     20  H   UNL     1      35.725 -25.019 -10.197  0.00  0.00    +0.145 HD
ATOM     21  H   UNL     1      35.250 -23.696 -11.162  0.00  0.00    +0.145 HD
ENDBRANCH  16  19
ENDBRANCH   2   9
BRANCH   1  22
ATOM     22  C   UNL     1      34.130 -19.701 -22.068  0.00  0.00    -0.077 C 
BRANCH  22  23
ATOM     23  C   UNL     1      34.964 -19.644 -23.347  0.00  0.00    -0.022 C 
BRANCH  23  24
ATOM     24  C   UNL     1      35.193 -18.199 -23.794  0.00  0.00    +0.003 C 
BRANCH  24  25
ATOM     25  C   UNL     1      35.863 -17.374 -22.691  0.00  0.00    +0.028 C 
BRANCH  25  27
ATOM     26  N   UNL     1      33.784 -15.118 -20.711  0.00  0.00    -0.312 N 
ATOM     27  C   UNL     1      34.951 -16.324 -22.131  0.00  0.00    -0.006 C 
ATOM     28  C   UNL     1      34.285 -15.328 -22.875  0.00  0.00    +0.011 C 
ATOM     29  C   UNL     1      34.637 -16.184 -20.812  0.00  0.00    +0.058 C 
ATOM     30  C   UNL     1      33.552 -14.575 -21.955  0.00  0.00    +0.048 C 
ATOM     31  C   UNL     1      34.224 -14.979 -24.239  0.00  0.00    +0.011 C 
ATOM     32  C   UNL     1      32.756 -13.489 -22.333  0.00  0.00    +0.015 C 
ATOM     33  C   UNL     1      33.432 -13.894 -24.631  0.00  0.00    +0.069 C 
ATOM     34  C   UNL     1      32.710 -13.161 -23.691  0.00  0.00    +0.012 C 
ATOM     35  H   UNL     1      33.393 -14.787 -19.870  0.00  0.00    +0.152 HD
BRANCH  33  37
ATOM     36  N   UNL     1      33.309 -13.243 -27.136  0.00  0.00    -0.191 NA
ATOM     37  C   UNL     1      33.364 -13.535 -26.014  0.00  0.00    +0.100 C 
ENDBRANCH  33  37
ENDBRANCH  25  27
ENDBRANCH  24  25
ENDBRANCH  23  24
ENDBRANCH  22  23
ENDBRANCH   1  22
TORSDOF 8
ENDMDL
