MODEL 1
REMARK VINA RESULT:     -13.7      0.000      0.000
REMARK  Name = 445480
REMARK  5 active torsions:
REMARK  status: ('A' for Active; 'I' for Inactive)
REMARK    1  A    between atoms: N_2  and  C_21
REMARK    2  A    between atoms: C_3  and  N_7
REMARK    3  A    between atoms: N_7  and  S_9
REMARK    4  A    between atoms: S_9  and  C_14
REMARK    5  A    between atoms: C_21  and  C_24
REMARK                            x       y       z     vdW  Elec       q    Type
REMARK                         _______ _______ _______ _____ _____    ______ ____
ROOT
ATOM      1  O   UNL     1      36.742 -21.123 -19.962  0.00  0.00    -0.273 OA
ATOM      2  N   UNL     1      35.294 -19.857 -21.315  0.00  0.00    -0.274 N 
ATOM      3  C   UNL     1      34.342 -21.508 -19.975  0.00  0.00    +0.153 C 
ATOM      4  C   UNL     1      33.268 -20.515 -20.399  0.00  0.00    +0.048 C 
ATOM      5  C   UNL     1      33.879 -19.822 -21.603  0.00  0.00    +0.096 C 
ATOM      6  C   UNL     1      35.629 -20.830 -20.375  0.00  0.00    +0.242 C 
ENDROOT
BRANCH   3   7
ATOM      7  N   UNL     1      34.330 -21.711 -18.522  0.00  0.00    -0.171 NA
ATOM      8  H   UNL     1      35.299 -21.817 -18.221  0.00  0.00    +0.149 HD
BRANCH   7   9
ATOM      9  S   UNL     1      33.455 -23.048 -17.901  0.00  0.00    +0.066 S 
ATOM     10  O   UNL     1      33.753 -24.225 -18.694  0.00  0.00    -0.152 OA
ATOM     11  O   UNL     1      32.087 -22.642 -17.642  0.00  0.00    -0.152 OA
BRANCH   9  14
ATOM     12  S   UNL     1      35.735 -22.960 -16.080  0.00  0.00    -0.066 S 
ATOM     13  N   UNL     1      34.220 -24.505 -12.847  0.00  0.00    -0.243 NA
ATOM     14  C   UNL     1      34.109 -23.394 -16.268  0.00  0.00    +0.153 C 
ATOM     15  C   UNL     1      33.546 -23.936 -15.164  0.00  0.00    +0.046 C 
ATOM     16  C   UNL     1      34.481 -24.010 -14.088  0.00  0.00    +0.089 C 
ATOM     17  C   UNL     1      35.732 -23.507 -14.450  0.00  0.00    +0.048 C 
ATOM     18  C   UNL     1      36.781 -23.497 -13.520  0.00  0.00    +0.010 C 
ATOM     19  C   UNL     1      36.521 -24.001 -12.253  0.00  0.00    +0.021 C 
ATOM     20  C   UNL     1      35.252 -24.480 -11.980  0.00  0.00    +0.099 C 
ENDBRANCH   9  14
ENDBRANCH   7   9
ENDBRANCH   3   7
BRANCH   2  21
ATOM     21  C   UNL     1      36.235 -19.036 -22.046  0.00  0.00    +0.120 C 
BRANCH  21  24
ATOM     22  N   UNL     1      33.648 -13.917 -24.387  0.00  0.00    -0.230 NA
ATOM     23  N   UNL     1      34.679 -14.114 -22.280  0.00  0.00    -0.343 N 
ATOM     24  C   UNL     1      35.519 -18.191 -23.062  0.00  0.00    -0.002 C 
ATOM     25  C   UNL     1      35.256 -16.857 -22.781  0.00  0.00    +0.000 C 
ATOM     26  C   UNL     1      35.129 -18.755 -24.268  0.00  0.00    -0.003 C 
ATOM     27  C   UNL     1      34.586 -16.061 -23.725  0.00  0.00    +0.031 C 
ATOM     28  C   UNL     1      34.183 -16.622 -24.956  0.00  0.00    +0.004 C 
ATOM     29  C   UNL     1      34.462 -17.975 -25.214  0.00  0.00    -0.000 C 
ATOM     30  C   UNL     1      34.291 -14.715 -23.505  0.00  0.00    +0.125 C 
ATOM     31  C   UNL     1      33.517 -15.813 -25.883  0.00  0.00    +0.021 C 
ATOM     32  C   UNL     1      33.279 -14.488 -25.553  0.00  0.00    +0.100 C 
ATOM     33  H   UNL     1      34.477 -13.165 -22.110  0.00  0.00    +0.144 HD
ATOM     34  H   UNL     1      35.150 -14.646 -21.598  0.00  0.00    +0.144 HD
ENDBRANCH  21  24
ENDBRANCH   2  21
TORSDOF 5
ENDMDL
MODEL 2
REMARK VINA RESULT:     -13.6      4.673     10.374
REMARK  Name = 445480
REMARK  5 active torsions:
REMARK  status: ('A' for Active; 'I' for Inactive)
REMARK    1  A    between atoms: N_2  and  C_21
REMARK    2  A    between atoms: C_3  and  N_7
REMARK    3  A    between atoms: N_7  and  S_9
REMARK    4  A    between atoms: S_9  and  C_14
REMARK    5  A    between atoms: C_21  and  C_24
REMARK                            x       y       z     vdW  Elec       q    Type
REMARK                         _______ _______ _______ _____ _____    ______ ____
ROOT
ATOM      1  O   UNL     1      35.515 -16.328 -22.740  0.00  0.00    -0.273 OA
ATOM      2  N   UNL     1      35.647 -18.662 -22.993  0.00  0.00    -0.274 N 
ATOM      3  C   UNL     1      34.477 -17.470 -24.617  0.00  0.00    +0.153 C 
ATOM      4  C   UNL     1      34.854 -18.841 -25.165  0.00  0.00    +0.048 C 
ATOM      5  C   UNL     1      35.149 -19.653 -23.918  0.00  0.00    +0.096 C 
ATOM      6  C   UNL     1      35.279 -17.364 -23.344  0.00  0.00    +0.242 C 
ENDROOT
BRANCH   3   7
ATOM      7  N   UNL     1      34.882 -16.403 -25.539  0.00  0.00    -0.171 NA
ATOM      8  H   UNL     1      35.560 -15.819 -25.048  0.00  0.00    +0.149 HD
BRANCH   7   9
ATOM      9  S   UNL     1      33.666 -15.362 -26.154  0.00  0.00    +0.066 S 
ATOM     10  O   UNL     1      32.457 -16.128 -26.393  0.00  0.00    -0.152 OA
ATOM     11  O   UNL     1      34.240 -14.520 -27.185  0.00  0.00    -0.152 OA
BRANCH   9  14
ATOM     12  S   UNL     1      33.656 -12.602 -25.204  0.00  0.00    -0.066 S 
ATOM     13  N   UNL     1      32.007 -12.984 -21.701  0.00  0.00    -0.243 NA
ATOM     14  C   UNL     1      33.249 -14.207 -24.848  0.00  0.00    +0.153 C 
ATOM     15  C   UNL     1      32.673 -14.381 -23.637  0.00  0.00    +0.046 C 
ATOM     16  C   UNL     1      32.546 -13.142 -22.941  0.00  0.00    +0.089 C 
ATOM     17  C   UNL     1      33.047 -12.073 -23.685  0.00  0.00    +0.048 C 
ATOM     18  C   UNL     1      33.007 -10.772 -23.162  0.00  0.00    +0.010 C 
ATOM     19  C   UNL     1      32.459 -10.606 -21.897  0.00  0.00    +0.021 C 
ATOM     20  C   UNL     1      31.986 -11.721 -21.230  0.00  0.00    +0.099 C 
ENDBRANCH   9  14
ENDBRANCH   7   9
ENDBRANCH   3   7
BRANCH   2  21
ATOM     21  C   UNL     1      36.339 -19.039 -21.779  0.00  0.00    +0.120 C 
BRANCH  21  24
ATOM     22  N   UNL     1      35.025 -23.123 -17.310  0.00  0.00    -0.230 NA
ATOM     23  N   UNL     1      37.156 -22.265 -17.826  0.00  0.00    -0.343 N 
ATOM     24  C   UNL     1      35.473 -19.931 -20.933  0.00  0.00    -0.002 C 
ATOM     25  C   UNL     1      36.050 -20.686 -19.921  0.00  0.00    +0.000 C 
ATOM     26  C   UNL     1      34.109 -19.989 -21.177  0.00  0.00    -0.003 C 
ATOM     27  C   UNL     1      35.247 -21.522 -19.127  0.00  0.00    +0.031 C 
ATOM     28  C   UNL     1      33.858 -21.591 -19.364  0.00  0.00    +0.004 C 
ATOM     29  C   UNL     1      33.301 -20.816 -20.396  0.00  0.00    -0.000 C 
ATOM     30  C   UNL     1      35.764 -22.306 -18.095  0.00  0.00    +0.125 C 
ATOM     31  C   UNL     1      33.075 -22.431 -18.563  0.00  0.00    +0.021 C 
ATOM     32  C   UNL     1      33.700 -23.163 -17.565  0.00  0.00    +0.100 C 
ATOM     33  H   UNL     1      37.534 -22.813 -17.101  0.00  0.00    +0.144 HD
ATOM     34  H   UNL     1      37.744 -21.688 -18.365  0.00  0.00    +0.144 HD
ENDBRANCH  21  24
ENDBRANCH   2  21
TORSDOF 5
ENDMDL
MODEL 3
REMARK VINA RESULT:     -13.4      4.957     10.710
REMARK  Name = 445480
REMARK  5 active torsions:
REMARK  status: ('A' for Active; 'I' for Inactive)
REMARK    1  A    between atoms: N_2  and  C_21
REMARK    2  A    between atoms: C_3  and  N_7
REMARK    3  A    between atoms: N_7  and  S_9
REMARK    4  A    between atoms: S_9  and  C_14
REMARK    5  A    between atoms: C_21  and  C_24
REMARK                            x       y       z     vdW  Elec       q    Type
REMARK                         _______ _______ _______ _____ _____    ______ ____
ROOT
ATOM      1  O   UNL     1      35.312 -16.112 -21.243  0.00  0.00    -0.273 OA
ATOM      2  N   UNL     1      35.715 -17.717 -22.915  0.00  0.00    -0.274 N 
ATOM      3  C   UNL     1      34.378 -15.893 -23.477  0.00  0.00    +0.153 C 
ATOM      4  C   UNL     1      34.905 -16.549 -24.747  0.00  0.00    +0.048 C 
ATOM      5  C   UNL     1      35.320 -17.934 -24.287  0.00  0.00    +0.096 C 
ATOM      6  C   UNL     1      35.188 -16.541 -22.381  0.00  0.00    +0.242 C 
ENDROOT
BRANCH   3   7
ATOM      7  N   UNL     1      34.634 -14.448 -23.482  0.00  0.00    -0.171 NA
ATOM      8  H   UNL     1      34.636 -14.136 -22.511  0.00  0.00    +0.149 HD
BRANCH   7   9
ATOM      9  S   UNL     1      33.546 -13.438 -24.339  0.00  0.00    +0.066 S 
ATOM     10  O   UNL     1      32.338 -14.184 -24.640  0.00  0.00    -0.152 OA
ATOM     11  O   UNL     1      34.271 -12.731 -25.376  0.00  0.00    -0.152 OA
BRANCH   9  14
ATOM     12  S   UNL     1      32.362 -12.710 -21.772  0.00  0.00    -0.066 S 
ATOM     13  N   UNL     1      32.472  -8.825 -21.930  0.00  0.00    -0.243 NA
ATOM     14  C   UNL     1      33.037 -12.137 -23.216  0.00  0.00    +0.153 C 
ATOM     15  C   UNL     1      33.093 -10.789 -23.308  0.00  0.00    +0.046 C 
ATOM     16  C   UNL     1      32.557 -10.167 -22.141  0.00  0.00    +0.089 C 
ATOM     17  C   UNL     1      32.115 -11.106 -21.207  0.00  0.00    +0.048 C 
ATOM     18  C   UNL     1      31.557 -10.679 -19.994  0.00  0.00    +0.010 C 
ATOM     19  C   UNL     1      31.467  -9.311 -19.773  0.00  0.00    +0.021 C 
ATOM     20  C   UNL     1      31.930  -8.452 -20.753  0.00  0.00    +0.099 C 
ENDBRANCH   9  14
ENDBRANCH   7   9
ENDBRANCH   3   7
BRANCH   2  21
ATOM     21  C   UNL     1      36.472 -18.706 -22.179  0.00  0.00    +0.120 C 
BRANCH  21  24
ATOM     22  N   UNL     1      34.897 -22.806 -17.810  0.00  0.00    -0.230 NA
ATOM     23  N   UNL     1      37.070 -22.015 -18.256  0.00  0.00    -0.343 N 
ATOM     24  C   UNL     1      35.553 -19.579 -21.371  0.00  0.00    -0.002 C 
ATOM     25  C   UNL     1      36.076 -20.368 -20.355  0.00  0.00    +0.000 C 
ATOM     26  C   UNL     1      34.195 -19.587 -21.651  0.00  0.00    -0.003 C 
ATOM     27  C   UNL     1      35.224 -21.188 -19.596  0.00  0.00    +0.031 C 
ATOM     28  C   UNL     1      33.840 -21.205 -19.871  0.00  0.00    +0.004 C 
ATOM     29  C   UNL     1      33.339 -20.397 -20.905  0.00  0.00    -0.000 C 
ATOM     30  C   UNL     1      35.685 -22.004 -18.562  0.00  0.00    +0.125 C 
ATOM     31  C   UNL     1      33.007 -22.029 -19.104  0.00  0.00    +0.021 C 
ATOM     32  C   UNL     1      33.579 -22.796 -18.102  0.00  0.00    +0.100 C 
ATOM     33  H   UNL     1      37.409 -22.587 -17.529  0.00  0.00    +0.144 HD
ATOM     34  H   UNL     1      37.692 -21.451 -18.770  0.00  0.00    +0.144 HD
ENDBRANCH  21  24
ENDBRANCH   2  21
TORSDOF 5
ENDMDL
MODEL 4
REMARK VINA RESULT:     -13.4      2.964     10.691
REMARK  Name = 445480
REMARK  5 active torsions:
REMARK  status: ('A' for Active; 'I' for Inactive)
REMARK    1  A    between atoms: N_2  and  C_21
REMARK    2  A    between atoms: C_3  and  N_7
REMARK    3  A    between atoms: N_7  and  S_9
REMARK    4  A    between atoms: S_9  and  C_14
REMARK    5  A    between atoms: C_21  and  C_24
REMARK                            x       y       z     vdW  Elec       q    Type
REMARK                         _______ _______ _______ _____ _____    ______ ____
ROOT
ATOM      1  O   UNL     1      36.263 -21.144 -20.388  0.00  0.00    -0.273 OA
ATOM      2  N   UNL     1      34.148 -21.883 -19.671  0.00  0.00    -0.274 N 
ATOM      3  C   UNL     1      34.267 -19.789 -20.685  0.00  0.00    +0.153 C 
ATOM      4  C   UNL     1      32.829 -20.290 -20.718  0.00  0.00    +0.048 C 
ATOM      5  C   UNL     1      32.801 -21.364 -19.646  0.00  0.00    +0.096 C 
ATOM      6  C   UNL     1      35.056 -21.003 -20.259  0.00  0.00    +0.242 C 
ENDROOT
BRANCH   3   7
ATOM      7  N   UNL     1      34.709 -19.364 -22.018  0.00  0.00    -0.171 NA
ATOM      8  H   UNL     1      35.162 -20.166 -22.458  0.00  0.00    +0.149 HD
BRANCH   7   9
ATOM      9  S   UNL     1      35.798 -18.044 -22.125  0.00  0.00    +0.066 S 
ATOM     10  O   UNL     1      37.049 -18.501 -22.700  0.00  0.00    -0.152 OA
ATOM     11  O   UNL     1      35.769 -17.303 -20.879  0.00  0.00    -0.152 OA
BRANCH   9  14
ATOM     12  S   UNL     1      34.786 -15.361 -22.674  0.00  0.00    -0.066 S 
ATOM     13  N   UNL     1      33.891 -15.617 -26.451  0.00  0.00    -0.243 NA
ATOM     14  C   UNL     1      35.116 -16.893 -23.318  0.00  0.00    +0.153 C 
ATOM     15  C   UNL     1      34.818 -17.021 -24.630  0.00  0.00    +0.046 C 
ATOM     16  C   UNL     1      34.287 -15.808 -25.163  0.00  0.00    +0.089 C 
ATOM     17  C   UNL     1      34.212 -14.804 -24.196  0.00  0.00    +0.048 C 
ATOM     18  C   UNL     1      33.714 -13.538 -24.535  0.00  0.00    +0.010 C 
ATOM     19  C   UNL     1      33.309 -13.338 -25.848  0.00  0.00    +0.021 C 
ATOM     20  C   UNL     1      33.418 -14.388 -26.741  0.00  0.00    +0.099 C 
ENDBRANCH   9  14
ENDBRANCH   7   9
ENDBRANCH   3   7
BRANCH   2  21
ATOM     21  C   UNL     1      34.490 -23.133 -19.026  0.00  0.00    +0.120 C 
BRANCH  21  24
ATOM     22  N   UNL     1      30.035 -23.172 -14.721  0.00  0.00    -0.230 NA
ATOM     23  N   UNL     1      29.716 -23.021 -17.049  0.00  0.00    -0.343 N 
ATOM     24  C   UNL     1      33.907 -23.188 -17.641  0.00  0.00    -0.002 C 
ATOM     25  C   UNL     1      32.530 -23.131 -17.474  0.00  0.00    +0.000 C 
ATOM     26  C   UNL     1      34.753 -23.292 -16.547  0.00  0.00    -0.003 C 
ATOM     27  C   UNL     1      31.978 -23.180 -16.183  0.00  0.00    +0.031 C 
ATOM     28  C   UNL     1      32.827 -23.286 -15.061  0.00  0.00    +0.004 C 
ATOM     29  C   UNL     1      34.217 -23.341 -15.259  0.00  0.00    -0.000 C 
ATOM     30  C   UNL     1      30.604 -23.128 -15.947  0.00  0.00    +0.125 C 
ATOM     31  C   UNL     1      32.258 -23.333 -13.783  0.00  0.00    +0.021 C 
ATOM     32  C   UNL     1      30.878 -23.274 -13.672  0.00  0.00    +0.100 C 
ATOM     33  H   UNL     1      28.745 -22.983 -16.897  0.00  0.00    +0.144 HD
ATOM     34  H   UNL     1      30.074 -22.985 -17.966  0.00  0.00    +0.144 HD
ENDBRANCH  21  24
ENDBRANCH   2  21
TORSDOF 5
ENDMDL
MODEL 5
REMARK VINA RESULT:     -13.3      2.015      2.891
REMARK  Name = 445480
REMARK  5 active torsions:
REMARK  status: ('A' for Active; 'I' for Inactive)
REMARK    1  A    between atoms: N_2  and  C_21
REMARK    2  A    between atoms: C_3  and  N_7
REMARK    3  A    between atoms: N_7  and  S_9
REMARK    4  A    between atoms: S_9  and  C_14
REMARK    5  A    between atoms: C_21  and  C_24
REMARK                            x       y       z     vdW  Elec       q    Type
REMARK                         _______ _______ _______ _____ _____    ______ ____
ROOT
ATOM      1  O   UNL     1      37.246 -18.690 -20.610  0.00  0.00    -0.273 OA
ATOM      2  N   UNL     1      35.522 -18.358 -22.174  0.00  0.00    -0.274 N 
ATOM      3  C   UNL     1      35.560 -20.388 -21.032  0.00  0.00    +0.153 C 
ATOM      4  C   UNL     1      34.173 -20.161 -21.621  0.00  0.00    +0.048 C 
ATOM      5  C   UNL     1      34.410 -19.117 -22.696  0.00  0.00    +0.096 C 
ATOM      6  C   UNL     1      36.240 -19.052 -21.201  0.00  0.00    +0.242 C 
ENDROOT
BRANCH   3   7
ATOM      7  N   UNL     1      35.480 -20.717 -19.604  0.00  0.00    -0.171 NA
ATOM      8  H   UNL     1      36.434 -20.860 -19.271  0.00  0.00    +0.149 HD
BRANCH   7   9
ATOM      9  S   UNL     1      34.569 -22.094 -19.142  0.00  0.00    +0.066 S 
ATOM     10  O   UNL     1      34.914 -23.207 -20.007  0.00  0.00    -0.152 OA
ATOM     11  O   UNL     1      33.189 -21.702 -18.934  0.00  0.00    -0.152 OA
BRANCH   9  14
ATOM     12  S   UNL     1      33.955 -23.400 -16.605  0.00  0.00    -0.066 S 
ATOM     13  N   UNL     1      37.291 -22.938 -14.656  0.00  0.00    -0.243 NA
ATOM     14  C   UNL     1      35.125 -22.570 -17.506  0.00  0.00    +0.153 C 
ATOM     15  C   UNL     1      36.300 -22.389 -16.861  0.00  0.00    +0.046 C 
ATOM     16  C   UNL     1      36.265 -22.955 -15.552  0.00  0.00    +0.089 C 
ATOM     17  C   UNL     1      35.032 -23.547 -15.273  0.00  0.00    +0.048 C 
ATOM     18  C   UNL     1      34.812 -24.157 -14.029  0.00  0.00    +0.010 C 
ATOM     19  C   UNL     1      35.854 -24.142 -13.112  0.00  0.00    +0.021 C 
ATOM     20  C   UNL     1      37.042 -23.532 -13.472  0.00  0.00    +0.099 C 
ENDBRANCH   9  14
ENDBRANCH   7   9
ENDBRANCH   3   7
BRANCH   2  21
ATOM     21  C   UNL     1      35.884 -17.070 -22.726  0.00  0.00    +0.120 C 
BRANCH  21  24
ATOM     22  N   UNL     1      32.560 -11.851 -23.019  0.00  0.00    -0.230 NA
ATOM     23  N   UNL     1      33.952 -12.709 -24.713  0.00  0.00    -0.343 N 
ATOM     24  C   UNL     1      34.940 -16.005 -22.243  0.00  0.00    -0.002 C 
ATOM     25  C   UNL     1      34.633 -14.934 -23.072  0.00  0.00    +0.000 C 
ATOM     26  C   UNL     1      34.390 -16.103 -20.974  0.00  0.00    -0.003 C 
ATOM     27  C   UNL     1      33.753 -13.934 -22.627  0.00  0.00    +0.031 C 
ATOM     28  C   UNL     1      33.185 -14.022 -21.338  0.00  0.00    +0.004 C 
ATOM     29  C   UNL     1      33.515 -15.115 -20.520  0.00  0.00    -0.000 C 
ATOM     30  C   UNL     1      33.402 -12.833 -23.411  0.00  0.00    +0.125 C 
ATOM     31  C   UNL     1      32.311 -13.015 -20.913  0.00  0.00    +0.021 C 
ATOM     32  C   UNL     1      32.037 -11.968 -21.780  0.00  0.00    +0.100 C 
ATOM     33  H   UNL     1      33.714 -11.938 -25.276  0.00  0.00    +0.144 HD
ATOM     34  H   UNL     1      34.572 -13.395 -25.053  0.00  0.00    +0.144 HD
ENDBRANCH  21  24
ENDBRANCH   2  21
TORSDOF 5
ENDMDL
MODEL 6
REMARK VINA RESULT:     -13.1      2.628      3.636
REMARK  Name = 445480
REMARK  5 active torsions:
REMARK  status: ('A' for Active; 'I' for Inactive)
REMARK    1  A    between atoms: N_2  and  C_21
REMARK    2  A    between atoms: C_3  and  N_7
REMARK    3  A    between atoms: N_7  and  S_9
REMARK    4  A    between atoms: S_9  and  C_14
REMARK    5  A    between atoms: C_21  and  C_24
REMARK                            x       y       z     vdW  Elec       q    Type
REMARK                         _______ _______ _______ _____ _____    ______ ____
ROOT
ATOM      1  O   UNL     1      36.981 -18.593 -20.407  0.00  0.00    -0.273 OA
ATOM      2  N   UNL     1      35.426 -18.301 -22.147  0.00  0.00    -0.274 N 
ATOM      3  C   UNL     1      35.351 -20.308 -20.964  0.00  0.00    +0.153 C 
ATOM      4  C   UNL     1      34.032 -20.099 -21.698  0.00  0.00    +0.048 C 
ATOM      5  C   UNL     1      34.376 -19.077 -22.765  0.00  0.00    +0.096 C 
ATOM      6  C   UNL     1      36.042 -18.972 -21.091  0.00  0.00    +0.242 C 
ENDROOT
BRANCH   3   7
ATOM      7  N   UNL     1      35.125 -20.607 -19.546  0.00  0.00    -0.171 NA
ATOM      8  H   UNL     1      35.785 -20.044 -19.008  0.00  0.00    +0.149 HD
BRANCH   7   9
ATOM      9  S   UNL     1      35.299 -22.231 -19.026  0.00  0.00    +0.066 S 
ATOM     10  O   UNL     1      36.468 -22.338 -18.173  0.00  0.00    -0.152 OA
ATOM     11  O   UNL     1      35.111 -23.115 -20.159  0.00  0.00    -0.152 OA
BRANCH   9  14
ATOM     12  S   UNL     1      34.336 -23.245 -16.463  0.00  0.00    -0.066 S 
ATOM     13  N   UNL     1      30.484 -22.877 -16.869  0.00  0.00    -0.243 NA
ATOM     14  C   UNL     1      33.900 -22.598 -17.966  0.00  0.00    +0.153 C 
ATOM     15  C   UNL     1      32.567 -22.455 -18.145  0.00  0.00    +0.046 C 
ATOM     16  C   UNL     1      31.840 -22.893 -16.999  0.00  0.00    +0.089 C 
ATOM     17  C   UNL     1      32.687 -23.356 -15.991  0.00  0.00    +0.048 C 
ATOM     18  C   UNL     1      32.150 -23.828 -14.784  0.00  0.00    +0.010 C 
ATOM     19  C   UNL     1      30.768 -23.814 -14.647  0.00  0.00    +0.021 C 
ATOM     20  C   UNL     1      30.004 -23.338 -15.697  0.00  0.00    +0.099 C 
ENDBRANCH   9  14
ENDBRANCH   7   9
ENDBRANCH   3   7
BRANCH   2  21
ATOM     21  C   UNL     1      35.842 -17.024 -22.686  0.00  0.00    +0.120 C 
BRANCH  21  24
ATOM     22  N   UNL     1      32.634 -11.743 -23.133  0.00  0.00    -0.230 NA
ATOM     23  N   UNL     1      34.063 -12.645 -24.773  0.00  0.00    -0.343 N 
ATOM     24  C   UNL     1      34.904 -15.936 -22.244  0.00  0.00    -0.002 C 
ATOM     25  C   UNL     1      34.645 -14.868 -23.092  0.00  0.00    +0.000 C 
ATOM     26  C   UNL     1      34.310 -16.011 -20.992  0.00  0.00    -0.003 C 
ATOM     27  C   UNL     1      33.771 -13.846 -22.685  0.00  0.00    +0.031 C 
ATOM     28  C   UNL     1      33.161 -13.910 -21.414  0.00  0.00    +0.004 C 
ATOM     29  C   UNL     1      33.441 -15.002 -20.576  0.00  0.00    -0.000 C 
ATOM     30  C   UNL     1      33.469 -12.746 -23.489  0.00  0.00    +0.125 C 
ATOM     31  C   UNL     1      32.293 -12.882 -21.027  0.00  0.00    +0.021 C 
ATOM     32  C   UNL     1      32.068 -11.839 -21.911  0.00  0.00    +0.100 C 
ATOM     33  H   UNL     1      33.859 -11.874 -25.351  0.00  0.00    +0.144 HD
ATOM     34  H   UNL     1      34.680 -13.346 -25.087  0.00  0.00    +0.144 HD
ENDBRANCH  21  24
ENDBRANCH   2  21
TORSDOF 5
ENDMDL
MODEL 7
REMARK VINA RESULT:     -12.9      2.851     10.883
REMARK  Name = 445480
REMARK  5 active torsions:
REMARK  status: ('A' for Active; 'I' for Inactive)
REMARK    1  A    between atoms: N_2  and  C_21
REMARK    2  A    between atoms: C_3  and  N_7
REMARK    3  A    between atoms: N_7  and  S_9
REMARK    4  A    between atoms: S_9  and  C_14
REMARK    5  A    between atoms: C_21  and  C_24
REMARK                            x       y       z     vdW  Elec       q    Type
REMARK                         _______ _______ _______ _____ _____    ______ ____
ROOT
ATOM      1  O   UNL     1      36.446 -20.855 -19.839  0.00  0.00    -0.273 OA
ATOM      2  N   UNL     1      34.341 -21.760 -19.310  0.00  0.00    -0.274 N 
ATOM      3  C   UNL     1      34.387 -19.877 -20.682  0.00  0.00    +0.153 C 
ATOM      4  C   UNL     1      33.044 -20.581 -20.829  0.00  0.00    +0.048 C 
ATOM      5  C   UNL     1      32.958 -21.447 -19.585  0.00  0.00    +0.096 C 
ATOM      6  C   UNL     1      35.227 -20.871 -19.918  0.00  0.00    +0.242 C 
ENDROOT
BRANCH   3   7
ATOM      7  N   UNL     1      34.999 -19.628 -21.992  0.00  0.00    -0.171 NA
ATOM      8  H   UNL     1      35.545 -20.455 -22.235  0.00  0.00    +0.149 HD
BRANCH   7   9
ATOM      9  S   UNL     1      36.032 -18.270 -22.156  0.00  0.00    +0.066 S 
ATOM     10  O   UNL     1      37.264 -18.681 -22.804  0.00  0.00    -0.152 OA
ATOM     11  O   UNL     1      36.048 -17.532 -20.908  0.00  0.00    -0.152 OA
BRANCH   9  14
ATOM     12  S   UNL     1      34.812 -15.657 -22.611  0.00  0.00    -0.066 S 
ATOM     13  N   UNL     1      33.865 -15.877 -26.378  0.00  0.00    -0.243 NA
ATOM     14  C   UNL     1      35.243 -17.141 -23.304  0.00  0.00    +0.153 C 
ATOM     15  C   UNL     1      34.929 -17.256 -24.614  0.00  0.00    +0.046 C 
ATOM     16  C   UNL     1      34.299 -16.073 -25.102  0.00  0.00    +0.089 C 
ATOM     17  C   UNL     1      34.168 -15.104 -24.106  0.00  0.00    +0.048 C 
ATOM     18  C   UNL     1      33.570 -13.870 -24.400  0.00  0.00    +0.010 C 
ATOM     19  C   UNL     1      33.126 -13.665 -25.700  0.00  0.00    +0.021 C 
ATOM     20  C   UNL     1      33.296 -14.680 -26.624  0.00  0.00    +0.099 C 
ENDBRANCH   9  14
ENDBRANCH   7   9
ENDBRANCH   3   7
BRANCH   2  21
ATOM     21  C   UNL     1      34.710 -22.817 -18.393  0.00  0.00    +0.120 C 
BRANCH  21  24
ATOM     22  N   UNL     1      32.098 -24.834 -13.150  0.00  0.00    -0.230 NA
ATOM     23  N   UNL     1      34.379 -24.987 -13.715  0.00  0.00    -0.343 N 
ATOM     24  C   UNL     1      33.599 -23.076 -17.414  0.00  0.00    -0.002 C 
ATOM     25  C   UNL     1      33.881 -23.704 -16.208  0.00  0.00    +0.000 C 
ATOM     26  C   UNL     1      32.306 -22.686 -17.728  0.00  0.00    -0.003 C 
ATOM     27  C   UNL     1      32.848 -23.952 -15.289  0.00  0.00    +0.031 C 
ATOM     28  C   UNL     1      31.528 -23.560 -15.596  0.00  0.00    +0.004 C 
ATOM     29  C   UNL     1      31.271 -22.927 -16.823  0.00  0.00    -0.000 C 
ATOM     30  C   UNL     1      33.065 -24.578 -14.061  0.00  0.00    +0.125 C 
ATOM     31  C   UNL     1      30.513 -23.816 -14.667  0.00  0.00    +0.021 C 
ATOM     32  C   UNL     1      30.848 -24.445 -13.478  0.00  0.00    +0.100 C 
ATOM     33  H   UNL     1      34.546 -25.431 -12.853  0.00  0.00    +0.144 HD
ATOM     34  H   UNL     1      35.123 -24.827 -14.339  0.00  0.00    +0.144 HD
ENDBRANCH  21  24
ENDBRANCH   2  21
TORSDOF 5
ENDMDL
MODEL 8
REMARK VINA RESULT:     -12.6      2.743     10.611
REMARK  Name = 445480
REMARK  5 active torsions:
REMARK  status: ('A' for Active; 'I' for Inactive)
REMARK    1  A    between atoms: N_2  and  C_21
REMARK    2  A    between atoms: C_3  and  N_7
REMARK    3  A    between atoms: N_7  and  S_9
REMARK    4  A    between atoms: S_9  and  C_14
REMARK    5  A    between atoms: C_21  and  C_24
REMARK                            x       y       z     vdW  Elec       q    Type
REMARK                         _______ _______ _______ _____ _____    ______ ____
ROOT
ATOM      1  O   UNL     1      32.576 -20.535 -20.285  0.00  0.00    -0.273 OA
ATOM      2  N   UNL     1      34.000 -21.980 -19.095  0.00  0.00    -0.274 N 
ATOM      3  C   UNL     1      34.940 -20.723 -20.818  0.00  0.00    +0.153 C 
ATOM      4  C   UNL     1      36.042 -21.217 -19.888  0.00  0.00    +0.048 C 
ATOM      5  C   UNL     1      35.391 -22.368 -19.145  0.00  0.00    +0.096 C 
ATOM      6  C   UNL     1      33.673 -21.025 -20.057  0.00  0.00    +0.242 C 
ENDROOT
BRANCH   3   7
ATOM      7  N   UNL     1      35.044 -19.276 -21.038  0.00  0.00    -0.171 NA
ATOM      8  H   UNL     1      34.094 -18.902 -21.051  0.00  0.00    +0.149 HD
BRANCH   7   9
ATOM      9  S   UNL     1      35.826 -18.730 -22.462  0.00  0.00    +0.066 S 
ATOM     10  O   UNL     1      35.450 -19.586 -23.572  0.00  0.00    -0.152 OA
ATOM     11  O   UNL     1      37.217 -18.452 -22.163  0.00  0.00    -0.152 OA
BRANCH   9  14
ATOM     12  S   UNL     1      34.697 -16.943 -24.476  0.00  0.00    -0.066 S 
ATOM     13  N   UNL     1      34.026 -13.730 -22.387  0.00  0.00    -0.243 NA
ATOM     14  C   UNL     1      35.147 -17.117 -22.852  0.00  0.00    +0.153 C 
ATOM     15  C   UNL     1      34.929 -16.020 -22.093  0.00  0.00    +0.046 C 
ATOM     16  C   UNL     1      34.361 -14.961 -22.863  0.00  0.00    +0.089 C 
ATOM     17  C   UNL     1      34.177 -15.328 -24.197  0.00  0.00    +0.048 C 
ATOM     18  C   UNL     1      33.627 -14.414 -25.107  0.00  0.00    +0.010 C 
ATOM     19  C   UNL     1      33.285 -13.157 -24.628  0.00  0.00    +0.021 C 
ATOM     20  C   UNL     1      33.502 -12.878 -23.290  0.00  0.00    +0.099 C 
ENDBRANCH   9  14
ENDBRANCH   7   9
ENDBRANCH   3   7
BRANCH   2  21
ATOM     21  C   UNL     1      33.062 -22.635 -18.209  0.00  0.00    +0.120 C 
BRANCH  21  24
ATOM     22  N   UNL     1      37.756 -23.472 -14.254  0.00  0.00    -0.230 NA
ATOM     23  N   UNL     1      37.933 -22.746 -16.487  0.00  0.00    -0.343 N 
ATOM     24  C   UNL     1      33.726 -22.988 -16.907  0.00  0.00    -0.002 C 
ATOM     25  C   UNL     1      35.107 -22.900 -16.795  0.00  0.00    +0.000 C 
ATOM     26  C   UNL     1      32.949 -23.399 -15.834  0.00  0.00    -0.003 C 
ATOM     27  C   UNL     1      35.734 -23.230 -15.582  0.00  0.00    +0.031 C 
ATOM     28  C   UNL     1      34.956 -23.649 -14.483  0.00  0.00    +0.004 C 
ATOM     29  C   UNL     1      33.560 -23.730 -14.624  0.00  0.00    -0.000 C 
ATOM     30  C   UNL     1      37.116 -23.163 -15.404  0.00  0.00    +0.125 C 
ATOM     31  C   UNL     1      35.599 -23.974 -13.282  0.00  0.00    +0.021 C 
ATOM     32  C   UNL     1      36.980 -23.869 -13.223  0.00  0.00    +0.100 C 
ATOM     33  H   UNL     1      38.910 -22.694 -16.376  0.00  0.00    +0.144 HD
ATOM     34  H   UNL     1      37.522 -22.508 -17.349  0.00  0.00    +0.144 HD
ENDBRANCH  21  24
ENDBRANCH   2  21
TORSDOF 5
ENDMDL
MODEL 9
REMARK VINA RESULT:     -12.5      3.736      6.531
REMARK  Name = 445480
REMARK  5 active torsions:
REMARK  status: ('A' for Active; 'I' for Inactive)
REMARK    1  A    between atoms: N_2  and  C_21
REMARK    2  A    between atoms: C_3  and  N_7
REMARK    3  A    between atoms: N_7  and  S_9
REMARK    4  A    between atoms: S_9  and  C_14
REMARK    5  A    between atoms: C_21  and  C_24
REMARK                            x       y       z     vdW  Elec       q    Type
REMARK                         _______ _______ _______ _____ _____    ______ ____
ROOT
ATOM      1  O   UNL     1      35.372 -14.767 -23.124  0.00  0.00    -0.273 OA
ATOM      2  N   UNL     1      33.907 -14.698 -24.963  0.00  0.00    -0.274 N 
ATOM      3  C   UNL     1      34.762 -16.776 -24.347  0.00  0.00    +0.153 C 
ATOM      4  C   UNL     1      33.519 -16.971 -25.208  0.00  0.00    +0.048 C 
ATOM      5  C   UNL     1      33.364 -15.638 -25.915  0.00  0.00    +0.096 C 
ATOM      6  C   UNL     1      34.742 -15.303 -24.023  0.00  0.00    +0.242 C 
ENDROOT
BRANCH   3   7
ATOM      7  N   UNL     1      34.670 -17.550 -23.104  0.00  0.00    -0.171 NA
ATOM      8  H   UNL     1      34.791 -16.896 -22.330  0.00  0.00    +0.149 HD
BRANCH   7   9
ATOM      9  S   UNL     1      35.784 -18.831 -22.866  0.00  0.00    +0.066 S 
ATOM     10  O   UNL     1      37.029 -18.293 -22.351  0.00  0.00    -0.152 OA
ATOM     11  O   UNL     1      35.763 -19.700 -24.027  0.00  0.00    -0.152 OA
BRANCH   9  14
ATOM     12  S   UNL     1      36.326 -20.617 -20.621  0.00  0.00    -0.066 S 
ATOM     13  N   UNL     1      32.728 -21.507 -19.439  0.00  0.00    -0.243 NA
ATOM     14  C   UNL     1      35.130 -19.863 -21.554  0.00  0.00    +0.153 C 
ATOM     15  C   UNL     1      33.865 -20.148 -21.173  0.00  0.00    +0.046 C 
ATOM     16  C   UNL     1      33.847 -21.034 -20.054  0.00  0.00    +0.089 C 
ATOM     17  C   UNL     1      35.135 -21.377 -19.642  0.00  0.00    +0.048 C 
ATOM     18  C   UNL     1      35.317 -22.241 -18.553  0.00  0.00    +0.010 C 
ATOM     19  C   UNL     1      34.180 -22.727 -17.922  0.00  0.00    +0.021 C 
ATOM     20  C   UNL     1      32.941 -22.335 -18.397  0.00  0.00    +0.099 C 
ENDBRANCH   9  14
ENDBRANCH   7   9
ENDBRANCH   3   7
BRANCH   2  21
ATOM     21  C   UNL     1      33.682 -13.274 -25.091  0.00  0.00    +0.120 C 
BRANCH  21  24
ATOM     22  N   UNL     1      32.052  -8.886 -21.033  0.00  0.00    -0.230 NA
ATOM     23  N   UNL     1      33.050  -8.533 -23.136  0.00  0.00    -0.343 N 
ATOM     24  C   UNL     1      33.119 -12.713 -23.815  0.00  0.00    -0.002 C 
ATOM     25  C   UNL     1      33.108 -11.339 -23.617  0.00  0.00    +0.000 C 
ATOM     26  C   UNL     1      32.620 -13.575 -22.850  0.00  0.00    -0.003 C 
ATOM     27  C   UNL     1      32.586 -10.807 -22.426  0.00  0.00    +0.031 C 
ATOM     28  C   UNL     1      32.075 -11.673 -21.436  0.00  0.00    +0.004 C 
ATOM     29  C   UNL     1      32.099 -13.059 -21.663  0.00  0.00    -0.000 C 
ATOM     30  C   UNL     1      32.546  -9.436 -22.165  0.00  0.00    +0.125 C 
ATOM     31  C   UNL     1      31.560 -11.123 -20.256  0.00  0.00    +0.021 C 
ATOM     32  C   UNL     1      31.572  -9.745 -20.109  0.00  0.00    +0.100 C 
ATOM     33  H   UNL     1      33.028  -7.564 -22.965  0.00  0.00    +0.144 HD
ATOM     34  H   UNL     1      33.422  -8.876 -23.980  0.00  0.00    +0.144 HD
ENDBRANCH  21  24
ENDBRANCH   2  21
TORSDOF 5
ENDMDL
