MODEL 1
REMARK VINA RESULT:     -12.8      0.000      0.000
REMARK  Name = 58212050
REMARK  2 active torsions:
REMARK  status: ('A' for Active; 'I' for Inactive)
REMARK    1  A    between atoms: C_2  and  C_13
REMARK    2  A    between atoms: C_10  and  C_26
REMARK                            x       y       z     vdW  Elec       q    Type
REMARK                         _______ _______ _______ _____ _____    ______ ____
ROOT
ATOM      1  N   UNL     1      33.781 -14.528 -26.156  0.00  0.00    +0.389 N 
ATOM      2  C   UNL     1      34.029 -13.257 -24.045  0.00  0.00    +0.023 C 
ATOM      3  C   UNL     1      33.223 -13.432 -25.355  0.00  0.00    -0.068 C 
ATOM      4  C   UNL     1      34.330 -14.582 -23.356  0.00  0.00    -0.026 C 
ATOM      5  C   UNL     1      34.142 -15.794 -24.048  0.00  0.00    -0.047 C 
ATOM      6  C   UNL     1      33.582 -15.805 -25.452  0.00  0.00    -0.050 C 
ATOM      7  C   UNL     1      34.879 -14.617 -22.063  0.00  0.00    -0.004 C 
ATOM      8  C   UNL     1      34.434 -17.011 -23.414  0.00  0.00    -0.005 C 
ATOM      9  C   UNL     1      33.155 -14.574 -27.478  0.00  0.00    -0.100 C 
ATOM     10  C   UNL     1      34.949 -17.029 -22.119  0.00  0.00    +0.019 C 
ATOM     11  C   UNL     1      35.178 -15.832 -21.447  0.00  0.00    +0.001 C 
ATOM     12  H   UNL     1      34.780 -14.367 -26.284  0.00  0.00    -0.079 HD
ENDROOT
BRANCH   2  13
ATOM     13  C   UNL     1      33.329 -12.234 -23.158  0.00  0.00    -0.020 C 
ATOM     14  C   UNL     1      33.572 -10.872 -23.341  0.00  0.00    -0.004 C 
ATOM     15  C   UNL     1      32.450 -12.658 -22.167  0.00  0.00    -0.004 C 
ATOM     16  C   UNL     1      32.937  -9.917 -22.532  0.00  0.00    -0.000 C 
ATOM     17  C   UNL     1      32.043 -10.348 -21.523  0.00  0.00    -0.000 C 
ATOM     18  C   UNL     1      31.810 -11.722 -21.354  0.00  0.00    -0.000 C 
ATOM     19  C   UNL     1      33.170  -8.542 -22.701  0.00  0.00    -0.000 C 
ATOM     20  C   UNL     1      31.408  -9.393 -20.713  0.00  0.00    -0.000 C 
ATOM     21  C   UNL     1      32.530  -7.606 -21.888  0.00  0.00    -0.000 C 
ATOM     22  C   UNL     1      31.651  -8.030 -20.896  0.00  0.00    -0.000 C 
ENDBRANCH   2  13
BRANCH  10  26
ATOM     23  N   UNL     1      36.510 -18.409 -21.000  0.00  0.00    -0.147 NA
ATOM     24  N   UNL     1      36.878 -19.563 -20.382  0.00  0.00    -0.133 NA
ATOM     25  N   UNL     1      36.357 -21.762 -19.620  0.00  0.00    -0.341 N 
ATOM     26  C   UNL     1      35.252 -18.290 -21.478  0.00  0.00    +0.103 C 
ATOM     27  C   UNL     1      34.310 -19.293 -21.369  0.00  0.00    +0.024 C 
ATOM     28  C   UNL     1      34.684 -20.467 -20.741  0.00  0.00    +0.037 C 
ATOM     29  C   UNL     1      35.975 -20.561 -20.262  0.00  0.00    +0.147 C 
ATOM     30  H   UNL     1      37.271 -21.862 -19.267  0.00  0.00    +0.144 HD
ATOM     31  H   UNL     1      35.710 -22.498 -19.527  0.00  0.00    +0.144 HD
ENDBRANCH  10  26
TORSDOF 2
ENDMDL
MODEL 2
REMARK VINA RESULT:     -12.7      2.753      5.157
REMARK  Name = 58212050
REMARK  2 active torsions:
REMARK  status: ('A' for Active; 'I' for Inactive)
REMARK    1  A    between atoms: C_2  and  C_13
REMARK    2  A    between atoms: C_10  and  C_26
REMARK                            x       y       z     vdW  Elec       q    Type
REMARK                         _______ _______ _______ _____ _____    ______ ____
ROOT
ATOM      1  N   UNL     1      31.347 -10.500 -20.419  0.00  0.00    +0.389 N 
ATOM      2  C   UNL     1      32.117  -9.783 -22.661  0.00  0.00    +0.023 C 
ATOM      3  C   UNL     1      31.959  -9.397 -21.170  0.00  0.00    -0.068 C 
ATOM      4  C   UNL     1      32.671 -11.190 -22.852  0.00  0.00    -0.026 C 
ATOM      5  C   UNL     1      32.713 -12.083 -21.764  0.00  0.00    -0.047 C 
ATOM      6  C   UNL     1      32.270 -11.647 -20.387  0.00  0.00    -0.050 C 
ATOM      7  C   UNL     1      33.066 -11.646 -24.121  0.00  0.00    -0.004 C 
ATOM      8  C   UNL     1      33.211 -13.381 -21.948  0.00  0.00    -0.005 C 
ATOM      9  C   UNL     1      31.014 -10.078 -19.059  0.00  0.00    -0.100 C 
ATOM     10  C   UNL     1      33.628 -13.809 -23.208  0.00  0.00    +0.019 C 
ATOM     11  C   UNL     1      33.548 -12.943 -24.295  0.00  0.00    +0.001 C 
ATOM     12  H   UNL     1      30.484 -10.778 -20.885  0.00  0.00    -0.079 HD
ENDROOT
BRANCH   2  13
ATOM     13  C   UNL     1      32.905  -8.695 -23.380  0.00  0.00    -0.020 C 
ATOM     14  C   UNL     1      32.234  -7.632 -23.984  0.00  0.00    -0.004 C 
ATOM     15  C   UNL     1      34.294  -8.763 -23.433  0.00  0.00    -0.004 C 
ATOM     16  C   UNL     1      32.945  -6.622 -24.652  0.00  0.00    -0.000 C 
ATOM     17  C   UNL     1      34.357  -6.692 -24.707  0.00  0.00    -0.000 C 
ATOM     18  C   UNL     1      35.017  -7.768 -24.093  0.00  0.00    -0.000 C 
ATOM     19  C   UNL     1      32.285  -5.545 -25.266  0.00  0.00    -0.000 C 
ATOM     20  C   UNL     1      35.069  -5.682 -25.375  0.00  0.00    -0.000 C 
ATOM     21  C   UNL     1      33.008  -4.550 -25.925  0.00  0.00    -0.000 C 
ATOM     22  C   UNL     1      34.397  -4.618 -25.980  0.00  0.00    -0.000 C 
ENDBRANCH   2  13
BRANCH  10  26
ATOM     23  N   UNL     1      34.598 -15.750 -22.268  0.00  0.00    -0.147 NA
ATOM     24  N   UNL     1      35.093 -17.014 -22.349  0.00  0.00    -0.133 NA
ATOM     25  N   UNL     1      35.619 -18.955 -23.631  0.00  0.00    -0.341 N 
ATOM     26  C   UNL     1      34.134 -15.152 -23.386  0.00  0.00    +0.103 C 
ATOM     27  C   UNL     1      34.135 -15.767 -24.622  0.00  0.00    +0.024 C 
ATOM     28  C   UNL     1      34.638 -17.053 -24.705  0.00  0.00    +0.037 C 
ATOM     29  C   UNL     1      35.106 -17.639 -23.546  0.00  0.00    +0.147 C 
ATOM     30  H   UNL     1      35.961 -19.402 -22.823  0.00  0.00    +0.144 HD
ATOM     31  H   UNL     1      35.636 -19.422 -24.497  0.00  0.00    +0.144 HD
ENDBRANCH  10  26
TORSDOF 2
ENDMDL
MODEL 3
REMARK VINA RESULT:     -11.5      3.846      7.514
REMARK  Name = 58212050
REMARK  2 active torsions:
REMARK  status: ('A' for Active; 'I' for Inactive)
REMARK    1  A    between atoms: C_2  and  C_13
REMARK    2  A    between atoms: C_10  and  C_26
REMARK                            x       y       z     vdW  Elec       q    Type
REMARK                         _______ _______ _______ _____ _____    ______ ____
ROOT
ATOM      1  N   UNL     1      31.591  -6.769 -20.166  0.00  0.00    +0.389 N 
ATOM      2  C   UNL     1      31.572  -6.663 -22.640  0.00  0.00    +0.023 C 
ATOM      3  C   UNL     1      31.948  -5.940 -21.323  0.00  0.00    -0.068 C 
ATOM      4  C   UNL     1      31.977  -8.132 -22.644  0.00  0.00    -0.026 C 
ATOM      5  C   UNL     1      32.356  -8.760 -21.442  0.00  0.00    -0.047 C 
ATOM      6  C   UNL     1      32.427  -7.980 -20.150  0.00  0.00    -0.050 C 
ATOM      7  C   UNL     1      31.897  -8.902 -23.816  0.00  0.00    -0.004 C 
ATOM      8  C   UNL     1      32.714 -10.116 -21.448  0.00  0.00    -0.005 C 
ATOM      9  C   UNL     1      31.759  -6.019 -18.921  0.00  0.00    -0.100 C 
ATOM     10  C   UNL     1      32.659 -10.858 -22.626  0.00  0.00    +0.019 C 
ATOM     11  C   UNL     1      32.243 -10.253 -23.808  0.00  0.00    +0.001 C 
ATOM     12  H   UNL     1      30.610  -7.039 -20.243  0.00  0.00    -0.079 HD
ENDROOT
BRANCH   2  13
ATOM     13  C   UNL     1      32.105  -5.862 -23.822  0.00  0.00    -0.020 C 
ATOM     14  C   UNL     1      33.364  -6.151 -24.348  0.00  0.00    -0.004 C 
ATOM     15  C   UNL     1      31.336  -4.843 -24.375  0.00  0.00    -0.004 C 
ATOM     16  C   UNL     1      33.871  -5.422 -25.436  0.00  0.00    -0.000 C 
ATOM     17  C   UNL     1      33.088  -4.385 -25.998  0.00  0.00    -0.000 C 
ATOM     18  C   UNL     1      31.823  -4.108 -25.456  0.00  0.00    -0.000 C 
ATOM     19  C   UNL     1      35.137  -5.699 -25.978  0.00  0.00    -0.000 C 
ATOM     20  C   UNL     1      33.595  -3.655 -27.086  0.00  0.00    -0.000 C 
ATOM     21  C   UNL     1      35.624  -4.964 -27.059  0.00  0.00    -0.000 C 
ATOM     22  C   UNL     1      34.855  -3.944 -27.612  0.00  0.00    -0.000 C 
ENDBRANCH   2  13
BRANCH  10  26
ATOM     23  N   UNL     1      33.891 -12.635 -23.584  0.00  0.00    -0.147 NA
ATOM     24  N   UNL     1      34.287 -13.935 -23.648  0.00  0.00    -0.133 NA
ATOM     25  N   UNL     1      34.215 -16.167 -22.811  0.00  0.00    -0.341 N 
ATOM     26  C   UNL     1      33.025 -12.258 -22.619  0.00  0.00    +0.103 C 
ATOM     27  C   UNL     1      32.515 -13.135 -21.683  0.00  0.00    +0.024 C 
ATOM     28  C   UNL     1      32.918 -14.457 -21.748  0.00  0.00    +0.037 C 
ATOM     29  C   UNL     1      33.803 -14.814 -22.745  0.00  0.00    +0.147 C 
ATOM     30  H   UNL     1      34.846 -16.455 -23.509  0.00  0.00    +0.144 HD
ATOM     31  H   UNL     1      33.870 -16.818 -22.159  0.00  0.00    +0.144 HD
ENDBRANCH  10  26
TORSDOF 2
ENDMDL
MODEL 4
REMARK VINA RESULT:     -11.4      3.346      8.518
REMARK  Name = 58212050
REMARK  2 active torsions:
REMARK  status: ('A' for Active; 'I' for Inactive)
REMARK    1  A    between atoms: C_2  and  C_13
REMARK    2  A    between atoms: C_10  and  C_26
REMARK                            x       y       z     vdW  Elec       q    Type
REMARK                         _______ _______ _______ _____ _____    ______ ____
ROOT
ATOM      1  N   UNL     1      33.272 -13.411 -26.041  0.00  0.00    +0.389 N 
ATOM      2  C   UNL     1      33.229 -14.521 -23.828  0.00  0.00    +0.023 C 
ATOM      3  C   UNL     1      33.898 -14.456 -25.223  0.00  0.00    -0.068 C 
ATOM      4  C   UNL     1      33.012 -13.145 -23.211  0.00  0.00    -0.026 C 
ATOM      5  C   UNL     1      33.141 -11.990 -24.006  0.00  0.00    -0.047 C 
ATOM      6  C   UNL     1      33.554 -12.090 -25.457  0.00  0.00    -0.050 C 
ATOM      7  C   UNL     1      32.599 -13.007 -21.876  0.00  0.00    -0.004 C 
ATOM      8  C   UNL     1      32.928 -10.725 -23.438  0.00  0.00    -0.005 C 
ATOM      9  C   UNL     1      33.760 -13.471 -27.419  0.00  0.00    -0.100 C 
ATOM     10  C   UNL     1      32.547 -10.604 -22.102  0.00  0.00    +0.019 C 
ATOM     11  C   UNL     1      32.377 -11.745 -21.324  0.00  0.00    +0.001 C 
ATOM     12  H   UNL     1      32.263 -13.563 -26.055  0.00  0.00    -0.079 HD
ENDROOT
BRANCH   2  13
ATOM     13  C   UNL     1      34.005 -15.490 -22.944  0.00  0.00    -0.020 C 
ATOM     14  C   UNL     1      34.742 -16.523 -23.522  0.00  0.00    -0.004 C 
ATOM     15  C   UNL     1      33.977 -15.342 -21.561  0.00  0.00    -0.004 C 
ATOM     16  C   UNL     1      35.462 -17.425 -22.721  0.00  0.00    -0.000 C 
ATOM     17  C   UNL     1      35.433 -17.275 -21.314  0.00  0.00    -0.000 C 
ATOM     18  C   UNL     1      34.686 -16.229 -20.750  0.00  0.00    -0.000 C 
ATOM     19  C   UNL     1      36.209 -18.471 -23.287  0.00  0.00    -0.000 C 
ATOM     20  C   UNL     1      36.153 -18.177 -20.513  0.00  0.00    -0.000 C 
ATOM     21  C   UNL     1      36.918 -19.358 -22.476  0.00  0.00    -0.000 C 
ATOM     22  C   UNL     1      36.890 -19.212 -21.092  0.00  0.00    -0.000 C 
ENDBRANCH   2  13
BRANCH  10  26
ATOM     23  N   UNL     1      32.479  -9.216 -20.189  0.00  0.00    -0.147 NA
ATOM     24  N   UNL     1      32.286  -8.020 -19.570  0.00  0.00    -0.133 NA
ATOM     25  N   UNL     1      31.745  -5.700 -19.666  0.00  0.00    -0.341 N 
ATOM     26  C   UNL     1      32.323  -9.296 -21.528  0.00  0.00    +0.103 C 
ATOM     27  C   UNL     1      31.975  -8.212 -22.310  0.00  0.00    +0.024 C 
ATOM     28  C   UNL     1      31.780  -6.996 -21.679  0.00  0.00    +0.037 C 
ATOM     29  C   UNL     1      31.945  -6.944 -20.310  0.00  0.00    +0.147 C 
ATOM     30  H   UNL     1      31.855  -5.628 -18.690  0.00  0.00    +0.144 HD
ATOM     31  H   UNL     1      31.495  -4.907 -20.194  0.00  0.00    +0.144 HD
ENDBRANCH  10  26
TORSDOF 2
ENDMDL
MODEL 5
REMARK VINA RESULT:     -11.3      6.568     12.826
REMARK  Name = 58212050
REMARK  2 active torsions:
REMARK  status: ('A' for Active; 'I' for Inactive)
REMARK    1  A    between atoms: C_2  and  C_13
REMARK    2  A    between atoms: C_10  and  C_26
REMARK                            x       y       z     vdW  Elec       q    Type
REMARK                         _______ _______ _______ _____ _____    ______ ____
ROOT
ATOM      1  N   UNL     1      32.472 -23.349 -16.256  0.00  0.00    +0.389 N 
ATOM      2  C   UNL     1      34.911 -23.429 -15.837  0.00  0.00    +0.023 C 
ATOM      3  C   UNL     1      33.572 -24.205 -15.797  0.00  0.00    -0.068 C 
ATOM      4  C   UNL     1      35.095 -22.635 -17.125  0.00  0.00    -0.026 C 
ATOM      5  C   UNL     1      34.001 -22.428 -17.986  0.00  0.00    -0.047 C 
ATOM      6  C   UNL     1      32.651 -23.038 -17.684  0.00  0.00    -0.050 C 
ATOM      7  C   UNL     1      36.324 -22.027 -17.430  0.00  0.00    -0.004 C 
ATOM      8  C   UNL     1      34.172 -21.685 -19.164  0.00  0.00    -0.005 C 
ATOM      9  C   UNL     1      31.181 -24.003 -16.037  0.00  0.00    -0.100 C 
ATOM     10  C   UNL     1      35.406 -21.113 -19.467  0.00  0.00    +0.019 C 
ATOM     11  C   UNL     1      36.479 -21.278 -18.597  0.00  0.00    +0.001 C 
ATOM     12  H   UNL     1      32.482 -22.482 -15.720  0.00  0.00    -0.079 HD
ENDROOT
BRANCH   2  13
ATOM     13  C   UNL     1      36.055 -24.386 -15.521  0.00  0.00    -0.020 C 
ATOM     14  C   UNL     1      37.348 -23.892 -15.348  0.00  0.00    -0.004 C 
ATOM     15  C   UNL     1      35.808 -25.750 -15.406  0.00  0.00    -0.004 C 
ATOM     16  C   UNL     1      38.413 -24.760 -15.058  0.00  0.00    -0.000 C 
ATOM     17  C   UNL     1      38.162 -26.148 -14.942  0.00  0.00    -0.000 C 
ATOM     18  C   UNL     1      36.854 -26.627 -15.119  0.00  0.00    -0.000 C 
ATOM     19  C   UNL     1      39.721 -24.280 -14.882  0.00  0.00    -0.000 C 
ATOM     20  C   UNL     1      39.228 -27.016 -14.652  0.00  0.00    -0.000 C 
ATOM     21  C   UNL     1      40.768 -25.157 -14.594  0.00  0.00    -0.000 C 
ATOM     22  C   UNL     1      40.522 -26.522 -14.479  0.00  0.00    -0.000 C 
ENDBRANCH   2  13
BRANCH  10  26
ATOM     23  N   UNL     1      34.479 -20.276 -21.475  0.00  0.00    -0.147 NA
ATOM     24  N   UNL     1      34.547 -19.571 -22.636  0.00  0.00    -0.133 NA
ATOM     25  N   UNL     1      35.775 -18.223 -24.172  0.00  0.00    -0.341 N 
ATOM     26  C   UNL     1      35.569 -20.343 -20.681  0.00  0.00    +0.103 C 
ATOM     27  C   UNL     1      36.763 -19.725 -20.992  0.00  0.00    +0.024 C 
ATOM     28  C   UNL     1      36.833 -19.008 -22.173  0.00  0.00    +0.037 C 
ATOM     29  C   UNL     1      35.703 -18.956 -22.965  0.00  0.00    +0.147 C 
ATOM     30  H   UNL     1      34.988 -18.165 -24.761  0.00  0.00    +0.144 HD
ATOM     31  H   UNL     1      36.612 -17.771 -24.425  0.00  0.00    +0.144 HD
ENDBRANCH  10  26
TORSDOF 2
ENDMDL
MODEL 6
REMARK VINA RESULT:     -11.3      0.610      1.527
REMARK  Name = 58212050
REMARK  2 active torsions:
REMARK  status: ('A' for Active; 'I' for Inactive)
REMARK    1  A    between atoms: C_2  and  C_13
REMARK    2  A    between atoms: C_10  and  C_26
REMARK                            x       y       z     vdW  Elec       q    Type
REMARK                         _______ _______ _______ _____ _____    ______ ____
ROOT
ATOM      1  N   UNL     1      33.761 -14.356 -26.319  0.00  0.00    +0.389 N 
ATOM      2  C   UNL     1      34.131 -13.060 -24.242  0.00  0.00    +0.023 C 
ATOM      3  C   UNL     1      33.285 -13.215 -25.529  0.00  0.00    -0.068 C 
ATOM      4  C   UNL     1      34.376 -14.386 -23.532  0.00  0.00    -0.026 C 
ATOM      5  C   UNL     1      34.103 -15.599 -24.194  0.00  0.00    -0.047 C 
ATOM      6  C   UNL     1      33.509 -15.605 -25.584  0.00  0.00    -0.050 C 
ATOM      7  C   UNL     1      34.954 -14.426 -22.252  0.00  0.00    -0.004 C 
ATOM      8  C   UNL     1      34.342 -16.817 -23.542  0.00  0.00    -0.005 C 
ATOM      9  C   UNL     1      33.101 -14.393 -27.625  0.00  0.00    -0.100 C 
ATOM     10  C   UNL     1      34.888 -16.839 -22.260  0.00  0.00    +0.019 C 
ATOM     11  C   UNL     1      35.200 -15.644 -21.618  0.00  0.00    +0.001 C 
ATOM     12  H   UNL     1      34.764 -14.254 -26.474  0.00  0.00    -0.079 HD
ENDROOT
BRANCH   2  13
ATOM     13  C   UNL     1      33.512 -11.982 -23.361  0.00  0.00    -0.020 C 
ATOM     14  C   UNL     1      33.006 -12.315 -22.104  0.00  0.00    -0.004 C 
ATOM     15  C   UNL     1      33.452 -10.666 -23.810  0.00  0.00    -0.004 C 
ATOM     16  C   UNL     1      32.431 -11.333 -21.281  0.00  0.00    -0.000 C 
ATOM     17  C   UNL     1      32.369  -9.996 -21.738  0.00  0.00    -0.000 C 
ATOM     18  C   UNL     1      32.884  -9.679 -23.005  0.00  0.00    -0.000 C 
ATOM     19  C   UNL     1      31.916 -11.651 -20.013  0.00  0.00    -0.000 C 
ATOM     20  C   UNL     1      31.794  -9.014 -20.914  0.00  0.00    -0.000 C 
ATOM     21  C   UNL     1      31.348 -10.663 -19.208  0.00  0.00    -0.000 C 
ATOM     22  C   UNL     1      31.287  -9.348 -19.657  0.00  0.00    -0.000 C 
ENDBRANCH   2  13
BRANCH  10  26
ATOM     23  N   UNL     1      36.379 -18.256 -21.093  0.00  0.00    -0.147 NA
ATOM     24  N   UNL     1      36.696 -19.415 -20.455  0.00  0.00    -0.133 NA
ATOM     25  N   UNL     1      36.089 -21.588 -19.684  0.00  0.00    -0.341 N 
ATOM     26  C   UNL     1      35.137 -18.102 -21.600  0.00  0.00    +0.103 C 
ATOM     27  C   UNL     1      34.161 -19.073 -21.503  0.00  0.00    +0.024 C 
ATOM     28  C   UNL     1      34.483 -20.252 -20.855  0.00  0.00    +0.037 C 
ATOM     29  C   UNL     1      35.760 -20.382 -20.346  0.00  0.00    +0.147 C 
ATOM     30  H   UNL     1      36.991 -21.713 -19.309  0.00  0.00    +0.144 HD
ATOM     31  H   UNL     1      35.416 -22.302 -19.598  0.00  0.00    +0.144 HD
ENDBRANCH  10  26
TORSDOF 2
ENDMDL
MODEL 7
REMARK VINA RESULT:     -11.2      2.637      5.326
REMARK  Name = 58212050
REMARK  2 active torsions:
REMARK  status: ('A' for Active; 'I' for Inactive)
REMARK    1  A    between atoms: C_2  and  C_13
REMARK    2  A    between atoms: C_10  and  C_26
REMARK                            x       y       z     vdW  Elec       q    Type
REMARK                         _______ _______ _______ _____ _____    ______ ____
ROOT
ATOM      1  N   UNL     1      31.370 -10.421 -19.574  0.00  0.00    +0.389 N 
ATOM      2  C   UNL     1      31.475  -9.765 -21.959  0.00  0.00    +0.023 C 
ATOM      3  C   UNL     1      31.641  -9.307 -20.490  0.00  0.00    -0.068 C 
ATOM      4  C   UNL     1      32.132 -11.112 -22.236  0.00  0.00    -0.026 C 
ATOM      5  C   UNL     1      32.545 -11.926 -21.164  0.00  0.00    -0.047 C 
ATOM      6  C   UNL     1      32.404 -11.456 -19.735  0.00  0.00    -0.050 C 
ATOM      7  C   UNL     1      32.257 -11.601 -23.547  0.00  0.00    -0.004 C 
ATOM      8  C   UNL     1      33.137 -13.172 -21.423  0.00  0.00    -0.005 C 
ATOM      9  C   UNL     1      31.330  -9.954 -18.188  0.00  0.00    -0.100 C 
ATOM     10  C   UNL     1      33.281 -13.628 -22.732  0.00  0.00    +0.019 C 
ATOM     11  C   UNL     1      32.835 -12.846 -23.793  0.00  0.00    +0.001 C 
ATOM     12  H   UNL     1      30.458 -10.819 -19.799  0.00  0.00    -0.079 HD
ENDROOT
BRANCH   2  13
ATOM     13  C   UNL     1      31.926  -8.645 -22.888  0.00  0.00    -0.020 C 
ATOM     14  C   UNL     1      33.285  -8.444 -23.130  0.00  0.00    -0.004 C 
ATOM     15  C   UNL     1      30.982  -7.822 -23.494  0.00  0.00    -0.004 C 
ATOM     16  C   UNL     1      33.717  -7.416 -23.982  0.00  0.00    -0.000 C 
ATOM     17  C   UNL     1      32.757  -6.579 -24.598  0.00  0.00    -0.000 C 
ATOM     18  C   UNL     1      31.394  -6.795 -24.344  0.00  0.00    -0.000 C 
ATOM     19  C   UNL     1      35.082  -7.200 -24.236  0.00  0.00    -0.000 C 
ATOM     20  C   UNL     1      33.190  -5.549 -25.451  0.00  0.00    -0.000 C 
ATOM     21  C   UNL     1      35.494  -6.172 -25.085  0.00  0.00    -0.000 C 
ATOM     22  C   UNL     1      34.550  -5.349 -25.692  0.00  0.00    -0.000 C 
ENDBRANCH   2  13
BRANCH  10  26
ATOM     23  N   UNL     1      33.812 -15.350 -24.264  0.00  0.00    -0.147 NA
ATOM     24  N   UNL     1      34.357 -16.553 -24.589  0.00  0.00    -0.133 NA
ATOM     25  N   UNL     1      35.527 -18.535 -23.963  0.00  0.00    -0.341 N 
ATOM     26  C   UNL     1      33.887 -14.917 -22.987  0.00  0.00    +0.103 C 
ATOM     27  C   UNL     1      34.497 -15.642 -21.983  0.00  0.00    +0.024 C 
ATOM     28  C   UNL     1      35.052 -16.866 -22.313  0.00  0.00    +0.037 C 
ATOM     29  C   UNL     1      34.960 -17.283 -23.626  0.00  0.00    +0.147 C 
ATOM     30  H   UNL     1      35.479 -18.863 -24.890  0.00  0.00    +0.144 HD
ATOM     31  H   UNL     1      35.968 -19.078 -23.271  0.00  0.00    +0.144 HD
ENDBRANCH  10  26
TORSDOF 2
ENDMDL
MODEL 8
REMARK VINA RESULT:     -11.1      3.045      8.327
REMARK  Name = 58212050
REMARK  2 active torsions:
REMARK  status: ('A' for Active; 'I' for Inactive)
REMARK    1  A    between atoms: C_2  and  C_13
REMARK    2  A    between atoms: C_10  and  C_26
REMARK                            x       y       z     vdW  Elec       q    Type
REMARK                         _______ _______ _______ _____ _____    ______ ____
ROOT
ATOM      1  N   UNL     1      33.415 -14.494 -25.972  0.00  0.00    +0.389 N 
ATOM      2  C   UNL     1      33.612 -15.799 -23.877  0.00  0.00    +0.023 C 
ATOM      3  C   UNL     1      34.185 -15.543 -25.292  0.00  0.00    -0.068 C 
ATOM      4  C   UNL     1      33.309 -14.512 -23.119  0.00  0.00    -0.026 C 
ATOM      5  C   UNL     1      33.281 -13.282 -23.806  0.00  0.00    -0.047 C 
ATOM      6  C   UNL     1      33.610 -13.210 -25.279  0.00  0.00    -0.050 C 
ATOM      7  C   UNL     1      32.969 -14.536 -21.757  0.00  0.00    -0.004 C 
ATOM      8  C   UNL     1      32.987 -12.102 -23.107  0.00  0.00    -0.005 C 
ATOM      9  C   UNL     1      33.819 -14.382 -27.373  0.00  0.00    -0.100 C 
ATOM     10  C   UNL     1      32.682 -12.140 -21.748  0.00  0.00    +0.019 C 
ATOM     11  C   UNL     1      32.666 -13.358 -21.075  0.00  0.00    +0.001 C 
ATOM     12  H   UNL     1      32.426 -14.742 -25.946  0.00  0.00    -0.079 HD
ENDROOT
BRANCH   2  13
ATOM     13  C   UNL     1      34.528 -16.763 -23.132  0.00  0.00    -0.020 C 
ATOM     14  C   UNL     1      33.984 -17.830 -22.418  0.00  0.00    -0.004 C 
ATOM     15  C   UNL     1      35.907 -16.578 -23.165  0.00  0.00    -0.004 C 
ATOM     16  C   UNL     1      34.813 -18.727 -21.725  0.00  0.00    -0.000 C 
ATOM     17  C   UNL     1      36.215 -18.538 -21.759  0.00  0.00    -0.000 C 
ATOM     18  C   UNL     1      36.746 -17.459 -22.483  0.00  0.00    -0.000 C 
ATOM     19  C   UNL     1      34.282 -19.806 -21.001  0.00  0.00    -0.000 C 
ATOM     20  C   UNL     1      37.046 -19.435 -21.066  0.00  0.00    -0.000 C 
ATOM     21  C   UNL     1      35.121 -20.687 -20.318  0.00  0.00    -0.000 C 
ATOM     22  C   UNL     1      36.500 -20.502 -20.351  0.00  0.00    -0.000 C 
ENDBRANCH   2  13
BRANCH  10  26
ATOM     23  N   UNL     1      32.538  -9.780 -21.749  0.00  0.00    -0.147 NA
ATOM     24  N   UNL     1      32.270  -8.585 -21.157  0.00  0.00    -0.133 NA
ATOM     25  N   UNL     1      31.569  -7.324 -19.259  0.00  0.00    -0.341 N 
ATOM     26  C   UNL     1      32.374 -10.917 -21.040  0.00  0.00    +0.103 C 
ATOM     27  C   UNL     1      31.944 -10.928 -19.728  0.00  0.00    +0.024 C 
ATOM     28  C   UNL     1      31.672  -9.712 -19.126  0.00  0.00    +0.037 C 
ATOM     29  C   UNL     1      31.848  -8.566 -19.875  0.00  0.00    +0.147 C 
ATOM     30  H   UNL     1      31.684  -6.487 -19.765  0.00  0.00    +0.144 HD
ATOM     31  H   UNL     1      31.261  -7.296 -18.324  0.00  0.00    +0.144 HD
ENDBRANCH  10  26
TORSDOF 2
ENDMDL
MODEL 9
REMARK VINA RESULT:     -10.8      3.995      7.256
REMARK  Name = 58212050
REMARK  2 active torsions:
REMARK  status: ('A' for Active; 'I' for Inactive)
REMARK    1  A    between atoms: C_2  and  C_13
REMARK    2  A    between atoms: C_10  and  C_26
REMARK                            x       y       z     vdW  Elec       q    Type
REMARK                         _______ _______ _______ _____ _____    ______ ____
ROOT
ATOM      1  N   UNL     1      31.904  -6.710 -20.594  0.00  0.00    +0.389 N 
ATOM      2  C   UNL     1      32.359  -6.972 -23.014  0.00  0.00    +0.023 C 
ATOM      3  C   UNL     1      32.565  -6.098 -21.753  0.00  0.00    -0.068 C 
ATOM      4  C   UNL     1      32.581  -8.456 -22.748  0.00  0.00    -0.026 C 
ATOM      5  C   UNL     1      32.653  -8.930 -21.424  0.00  0.00    -0.047 C 
ATOM      6  C   UNL     1      32.575  -7.975 -20.255  0.00  0.00    -0.050 C 
ATOM      7  C   UNL     1      32.631  -9.382 -23.804  0.00  0.00    -0.004 C 
ATOM      8  C   UNL     1      32.845 -10.299 -21.183  0.00  0.00    -0.005 C 
ATOM      9  C   UNL     1      31.924  -5.801 -19.448  0.00  0.00    -0.100 C 
ATOM     10  C   UNL     1      32.923 -11.200 -22.243  0.00  0.00    +0.019 C 
ATOM     11  C   UNL     1      32.809 -10.742 -23.552  0.00  0.00    +0.001 C 
ATOM     12  H   UNL     1      30.930  -6.899 -20.832  0.00  0.00    -0.079 HD
ENDROOT
BRANCH   2  13
ATOM     13  C   UNL     1      33.193  -6.408 -24.158  0.00  0.00    -0.020 C 
ATOM     14  C   UNL     1      32.613  -5.537 -25.080  0.00  0.00    -0.004 C 
ATOM     15  C   UNL     1      34.533  -6.763 -24.282  0.00  0.00    -0.004 C 
ATOM     16  C   UNL     1      33.367  -5.010 -26.140  0.00  0.00    -0.000 C 
ATOM     17  C   UNL     1      34.730  -5.371 -26.267  0.00  0.00    -0.000 C 
ATOM     18  C   UNL     1      35.297  -6.249 -25.329  0.00  0.00    -0.000 C 
ATOM     19  C   UNL     1      32.799  -4.132 -27.078  0.00  0.00    -0.000 C 
ATOM     20  C   UNL     1      35.485  -4.844 -27.327  0.00  0.00    -0.000 C 
ATOM     21  C   UNL     1      33.564  -3.617 -28.125  0.00  0.00    -0.000 C 
ATOM     22  C   UNL     1      34.904  -3.973 -28.250  0.00  0.00    -0.000 C 
ENDBRANCH   2  13
BRANCH  10  26
ATOM     23  N   UNL     1      34.154 -13.182 -22.626  0.00  0.00    -0.147 NA
ATOM     24  N   UNL     1      34.404 -14.506 -22.436  0.00  0.00    -0.133 NA
ATOM     25  N   UNL     1      33.864 -16.590 -21.411  0.00  0.00    -0.341 N 
ATOM     26  C   UNL     1      33.114 -12.610 -21.983  0.00  0.00    +0.103 C 
ATOM     27  C   UNL     1      32.281 -13.309 -21.133  0.00  0.00    +0.024 C 
ATOM     28  C   UNL     1      32.534 -14.655 -20.939  0.00  0.00    +0.037 C 
ATOM     29  C   UNL     1      33.605 -15.213 -21.609  0.00  0.00    +0.147 C 
ATOM     30  H   UNL     1      34.619 -17.020 -21.874  0.00  0.00    +0.144 HD
ATOM     31  H   UNL     1      33.288 -17.118 -20.812  0.00  0.00    +0.144 HD
ENDBRANCH  10  26
TORSDOF 2
ENDMDL
