MODEL 1
REMARK VINA RESULT:     -14.3      0.000      0.000
REMARK  Name = 24794406
REMARK  5 active torsions:
REMARK  status: ('A' for Active; 'I' for Inactive)
REMARK    1  A    between atoms: C_1  and  S_24
REMARK    2  A    between atoms: C_2  and  N_8
REMARK    3  A    between atoms: C_9  and  C_11
REMARK    4  A    between atoms: C_12  and  N_18
REMARK    5  A    between atoms: S_24  and  N_28
REMARK                            x       y       z     vdW  Elec       q    Type
REMARK                         _______ _______ _______ _____ _____    ______ ____
ROOT
ATOM      1  C   UNL     1      33.054 -23.982 -15.195  0.00  0.00    +0.139 C 
ATOM      2  C   UNL     1      32.177 -23.495 -16.163  0.00  0.00    +0.070 C 
ATOM      3  C   UNL     1      32.578 -24.804 -14.173  0.00  0.00    +0.021 C 
ATOM      4  C   UNL     1      30.824 -23.829 -16.110  0.00  0.00    +0.016 C 
ATOM      5  C   UNL     1      31.225 -25.138 -14.120  0.00  0.00    +0.001 C 
ATOM      6  C   UNL     1      30.348 -24.651 -15.089  0.00  0.00    +0.001 C 
ENDROOT
BRANCH   2   8
ATOM      7  O   UNL     1      33.593 -24.183 -18.715  0.00  0.00    -0.270 OA
ATOM      8  N   UNL     1      32.634 -22.658 -17.211  0.00  0.00    -0.279 N 
ATOM      9  C   UNL     1      33.296 -23.022 -18.393  0.00  0.00    +0.250 C 
ATOM     10  H   UNL     1      32.467 -21.695 -17.094  0.00  0.00    +0.155 HD
BRANCH   9  11
ATOM     11  C   UNL     1      33.668 -21.927 -19.274  0.00  0.00    +0.054 C 
ATOM     12  C   UNL     1      34.381 -19.825 -20.964  0.00  0.00    +0.058 C 
ATOM     13  C   UNL     1      32.681 -21.117 -19.835  0.00  0.00    +0.006 C 
ATOM     14  C   UNL     1      35.012 -21.685 -19.559  0.00  0.00    +0.006 C 
ATOM     15  C   UNL     1      33.038 -20.066 -20.680  0.00  0.00    +0.015 C 
ATOM     16  C   UNL     1      35.369 -20.635 -20.404  0.00  0.00    +0.015 C 
BRANCH  12  18
ATOM     17  O   UNL     1      34.935 -20.068 -23.793  0.00  0.00    -0.269 OA
ATOM     18  N   UNL     1      34.753 -18.733 -21.843  0.00  0.00    -0.233 N 
ATOM     19  C   UNL     1      34.960 -18.975 -23.225  0.00  0.00    +0.257 C 
ATOM     20  C   UNL     1      34.931 -17.444 -21.334  0.00  0.00    +0.072 C 
ATOM     21  C   UNL     1      35.295 -17.786 -24.068  0.00  0.00    +0.059 C 
ATOM     22  C   UNL     1      35.264 -16.401 -22.104  0.00  0.00    +0.017 C 
ATOM     23  C   UNL     1      35.443 -16.581 -23.513  0.00  0.00    +0.006 C 
ENDBRANCH  12  18
ENDBRANCH   9  11
ENDBRANCH   2   8
BRANCH   1  24
ATOM     24  S   UNL     1      34.761 -23.587 -15.226  0.00  0.00    +0.076 S 
ATOM     25  O   UNL     1      34.885 -22.159 -14.964  0.00  0.00    -0.150 OA
ATOM     26  O   UNL     1      35.338 -24.134 -16.445  0.00  0.00    -0.150 OA
BRANCH  24  28
ATOM     27 CL   UNL     1      40.881 -26.459 -14.236  0.00  0.00    -0.081 Cl
ATOM     28  N   UNL     1      35.370 -24.440 -13.861  0.00  0.00    -0.199 N 
ATOM     29  N   UNL     1      37.144 -25.390 -15.110  0.00  0.00    -0.227 NA
ATOM     30  C   UNL     1      36.724 -24.926 -13.912  0.00  0.00    +0.147 C 
ATOM     31  C   UNL     1      37.509 -24.897 -12.771  0.00  0.00    +0.036 C 
ATOM     32  C   UNL     1      38.812 -25.374 -12.867  0.00  0.00    +0.016 C 
ATOM     33  C   UNL     1      38.416 -25.845 -15.164  0.00  0.00    +0.112 C 
ATOM     34  C   UNL     1      39.282 -25.860 -14.083  0.00  0.00    +0.077 C 
ATOM     35  H   UNL     1      34.808 -24.593 -13.067  0.00  0.00    +0.175 HD
ENDBRANCH  24  28
ENDBRANCH   1  24
TORSDOF 5
ENDMDL
MODEL 2
REMARK VINA RESULT:     -13.1     10.134     16.063
REMARK  Name = 24794406
REMARK  5 active torsions:
REMARK  status: ('A' for Active; 'I' for Inactive)
REMARK    1  A    between atoms: C_1  and  S_24
REMARK    2  A    between atoms: C_2  and  N_8
REMARK    3  A    between atoms: C_9  and  C_11
REMARK    4  A    between atoms: C_12  and  N_18
REMARK    5  A    between atoms: S_24  and  N_28
REMARK                            x       y       z     vdW  Elec       q    Type
REMARK                         _______ _______ _______ _____ _____    ______ ____
ROOT
ATOM      1  C   UNL     1      32.234  -7.376 -21.843  0.00  0.00    +0.139 C 
ATOM      2  C   UNL     1      32.241  -8.456 -20.962  0.00  0.00    +0.070 C 
ATOM      3  C   UNL     1      31.913  -6.100 -21.380  0.00  0.00    +0.021 C 
ATOM      4  C   UNL     1      31.926  -8.262 -19.617  0.00  0.00    +0.016 C 
ATOM      5  C   UNL     1      31.599  -5.905 -20.035  0.00  0.00    +0.001 C 
ATOM      6  C   UNL     1      31.606  -6.986 -19.153  0.00  0.00    +0.001 C 
ENDROOT
BRANCH   2   8
ATOM      7  O   UNL     1      30.477 -10.839 -21.410  0.00  0.00    -0.270 OA
ATOM      8  N   UNL     1      32.562  -9.763 -21.406  0.00  0.00    -0.279 N 
ATOM      9  C   UNL     1      31.704 -10.854 -21.603  0.00  0.00    +0.250 C 
ATOM     10  H   UNL     1      33.513  -9.927 -21.602  0.00  0.00    +0.155 HD
BRANCH   9  11
ATOM     11  C   UNL     1      32.336 -12.087 -22.043  0.00  0.00    +0.054 C 
ATOM     12  C   UNL     1      33.549 -14.454 -22.885  0.00  0.00    +0.058 C 
ATOM     13  C   UNL     1      32.275 -13.226 -21.240  0.00  0.00    +0.006 C 
ATOM     14  C   UNL     1      33.003 -12.132 -23.266  0.00  0.00    +0.006 C 
ATOM     15  C   UNL     1      32.882 -14.409 -21.661  0.00  0.00    +0.015 C 
ATOM     16  C   UNL     1      33.610 -13.314 -23.688  0.00  0.00    +0.015 C 
BRANCH  12  18
ATOM     17  O   UNL     1      35.055 -16.255 -21.195  0.00  0.00    -0.269 OA
ATOM     18  N   UNL     1      34.180 -15.684 -23.323  0.00  0.00    -0.233 N 
ATOM     19  C   UNL     1      34.859 -16.503 -22.386  0.00  0.00    +0.257 C 
ATOM     20  C   UNL     1      34.145 -16.058 -24.669  0.00  0.00    +0.072 C 
ATOM     21  C   UNL     1      35.441 -17.777 -22.912  0.00  0.00    +0.059 C 
ATOM     22  C   UNL     1      34.702 -17.186 -25.121  0.00  0.00    +0.017 C 
ATOM     23  C   UNL     1      35.363 -18.073 -24.211  0.00  0.00    +0.006 C 
ENDBRANCH  12  18
ENDBRANCH   9  11
ENDBRANCH   2   8
BRANCH   1  24
ATOM     24  S   UNL     1      32.624  -7.578 -23.539  0.00  0.00    +0.076 S 
ATOM     25  O   UNL     1      31.574  -8.392 -24.137  0.00  0.00    -0.150 OA
ATOM     26  O   UNL     1      34.007  -8.021 -23.644  0.00  0.00    -0.150 OA
BRANCH  24  28
ATOM     27 CL   UNL     1      36.274  -4.392 -28.357  0.00  0.00    -0.081 Cl
ATOM     28  N   UNL     1      32.479  -5.977 -24.152  0.00  0.00    -0.199 N 
ATOM     29  N   UNL     1      34.643  -6.033 -25.114  0.00  0.00    -0.227 NA
ATOM     30  C   UNL     1      33.377  -5.566 -25.199  0.00  0.00    +0.147 C 
ATOM     31  C   UNL     1      32.921  -4.740 -26.214  0.00  0.00    +0.036 C 
ATOM     32  C   UNL     1      33.823  -4.370 -27.206  0.00  0.00    +0.016 C 
ATOM     33  C   UNL     1      35.490  -5.652 -26.096  0.00  0.00    +0.112 C 
ATOM     34  C   UNL     1      35.134  -4.830 -27.153  0.00  0.00    +0.077 C 
ATOM     35  H   UNL     1      31.802  -5.357 -23.797  0.00  0.00    +0.175 HD
ENDBRANCH  24  28
ENDBRANCH   1  24
TORSDOF 5
ENDMDL
MODEL 3
REMARK VINA RESULT:     -12.7      3.484      5.694
REMARK  Name = 24794406
REMARK  5 active torsions:
REMARK  status: ('A' for Active; 'I' for Inactive)
REMARK    1  A    between atoms: C_1  and  S_24
REMARK    2  A    between atoms: C_2  and  N_8
REMARK    3  A    between atoms: C_9  and  C_11
REMARK    4  A    between atoms: C_12  and  N_18
REMARK    5  A    between atoms: S_24  and  N_28
REMARK                            x       y       z     vdW  Elec       q    Type
REMARK                         _______ _______ _______ _____ _____    ______ ____
ROOT
ATOM      1  C   UNL     1      34.867 -23.311 -16.552  0.00  0.00    +0.139 C 
ATOM      2  C   UNL     1      35.855 -22.400 -16.925  0.00  0.00    +0.070 C 
ATOM      3  C   UNL     1      35.049 -24.115 -15.426  0.00  0.00    +0.021 C 
ATOM      4  C   UNL     1      37.026 -22.295 -16.175  0.00  0.00    +0.016 C 
ATOM      5  C   UNL     1      36.219 -24.008 -14.675  0.00  0.00    +0.001 C 
ATOM      6  C   UNL     1      37.208 -23.097 -15.049  0.00  0.00    +0.001 C 
ENDROOT
BRANCH   2   8
ATOM      7  O   UNL     1      37.319 -22.402 -19.542  0.00  0.00    -0.270 OA
ATOM      8  N   UNL     1      35.695 -21.573 -18.064  0.00  0.00    -0.279 N 
ATOM      9  C   UNL     1      36.405 -21.606 -19.274  0.00  0.00    +0.250 C 
ATOM     10  H   UNL     1      34.996 -20.883 -17.998  0.00  0.00    +0.155 HD
BRANCH   9  11
ATOM     11  C   UNL     1      36.031 -20.602 -20.256  0.00  0.00    +0.054 C 
ATOM     12  C   UNL     1      35.315 -18.673 -22.140  0.00  0.00    +0.058 C 
ATOM     13  C   UNL     1      36.992 -19.722 -20.753  0.00  0.00    +0.006 C 
ATOM     14  C   UNL     1      34.712 -20.516 -20.701  0.00  0.00    +0.006 C 
ATOM     15  C   UNL     1      36.634 -18.757 -21.695  0.00  0.00    +0.015 C 
ATOM     16  C   UNL     1      34.353 -19.552 -21.642  0.00  0.00    +0.015 C 
BRANCH  12  18
ATOM     17  O   UNL     1      34.909 -15.863 -21.585  0.00  0.00    -0.269 OA
ATOM     18  N   UNL     1      34.942 -17.670 -23.119  0.00  0.00    -0.233 N 
ATOM     19  C   UNL     1      34.812 -16.313 -22.728  0.00  0.00    +0.257 C 
ATOM     20  C   UNL     1      34.686 -18.034 -24.444  0.00  0.00    +0.072 C 
ATOM     21  C   UNL     1      34.470 -15.337 -23.809  0.00  0.00    +0.059 C 
ATOM     22  C   UNL     1      34.349 -17.147 -25.386  0.00  0.00    +0.017 C 
ATOM     23  C   UNL     1      34.246 -15.757 -25.056  0.00  0.00    +0.006 C 
ENDBRANCH  12  18
ENDBRANCH   9  11
ENDBRANCH   2   8
BRANCH   1  24
ATOM     24  S   UNL     1      33.382 -23.475 -17.467  0.00  0.00    +0.076 S 
ATOM     25  O   UNL     1      33.667 -24.322 -18.617  0.00  0.00    -0.150 OA
ATOM     26  O   UNL     1      32.828 -22.147 -17.689  0.00  0.00    -0.150 OA
BRANCH  24  28
ATOM     27 CL   UNL     1      26.839 -22.446 -15.792  0.00  0.00    -0.081 Cl
ATOM     28  N   UNL     1      32.369 -24.354 -16.388  0.00  0.00    -0.199 N 
ATOM     29  N   UNL     1      30.792 -22.592 -16.261  0.00  0.00    -0.227 NA
ATOM     30  C   UNL     1      31.003 -23.927 -16.239  0.00  0.00    +0.147 C 
ATOM     31  C   UNL     1      30.000 -24.870 -16.085  0.00  0.00    +0.036 C 
ATOM     32  C   UNL     1      28.694 -24.413 -15.946  0.00  0.00    +0.016 C 
ATOM     33  C   UNL     1      29.510 -22.186 -16.123  0.00  0.00    +0.112 C 
ATOM     34  C   UNL     1      28.436 -23.046 -15.964  0.00  0.00    +0.077 C 
ATOM     35  H   UNL     1      32.715 -25.127 -15.887  0.00  0.00    +0.175 HD
ENDBRANCH  24  28
ENDBRANCH   1  24
TORSDOF 5
ENDMDL
MODEL 4
REMARK VINA RESULT:     -11.6      3.003      5.055
REMARK  Name = 24794406
REMARK  5 active torsions:
REMARK  status: ('A' for Active; 'I' for Inactive)
REMARK    1  A    between atoms: C_1  and  S_24
REMARK    2  A    between atoms: C_2  and  N_8
REMARK    3  A    between atoms: C_9  and  C_11
REMARK    4  A    between atoms: C_12  and  N_18
REMARK    5  A    between atoms: S_24  and  N_28
REMARK                            x       y       z     vdW  Elec       q    Type
REMARK                         _______ _______ _______ _____ _____    ______ ____
ROOT
ATOM      1  C   UNL     1      35.518 -23.050 -16.662  0.00  0.00    +0.139 C 
ATOM      2  C   UNL     1      36.502 -22.224 -17.204  0.00  0.00    +0.070 C 
ATOM      3  C   UNL     1      35.835 -23.921 -15.619  0.00  0.00    +0.021 C 
ATOM      4  C   UNL     1      37.804 -22.270 -16.705  0.00  0.00    +0.016 C 
ATOM      5  C   UNL     1      37.136 -23.966 -15.119  0.00  0.00    +0.001 C 
ATOM      6  C   UNL     1      38.121 -23.139 -15.662  0.00  0.00    +0.001 C 
ENDROOT
BRANCH   2   8
ATOM      7  O   UNL     1      36.966 -22.498 -20.153  0.00  0.00    -0.270 OA
ATOM      8  N   UNL     1      36.207 -21.332 -18.264  0.00  0.00    -0.279 N 
ATOM      9  C   UNL     1      36.442 -21.498 -19.637  0.00  0.00    +0.250 C 
ATOM     10  H   UNL     1      35.783 -20.483 -18.003  0.00  0.00    +0.155 HD
BRANCH   9  11
ATOM     11  C   UNL     1      36.052 -20.385 -20.486  0.00  0.00    +0.054 C 
ATOM     12  C   UNL     1      35.302 -18.250 -22.118  0.00  0.00    +0.058 C 
ATOM     13  C   UNL     1      34.726 -20.256 -20.901  0.00  0.00    +0.006 C 
ATOM     14  C   UNL     1      37.002 -19.447 -20.888  0.00  0.00    +0.006 C 
ATOM     15  C   UNL     1      34.352 -19.188 -21.717  0.00  0.00    +0.015 C 
ATOM     16  C   UNL     1      36.628 -18.380 -21.704  0.00  0.00    +0.015 C 
BRANCH  12  18
ATOM     17  O   UNL     1      34.786 -18.417 -24.959  0.00  0.00    -0.269 OA
ATOM     18  N   UNL     1      34.913 -17.140 -22.966  0.00  0.00    -0.233 N 
ATOM     19  C   UNL     1      34.649 -17.359 -24.342  0.00  0.00    +0.257 C 
ATOM     20  C   UNL     1      34.819 -15.848 -22.443  0.00  0.00    +0.072 C 
ATOM     21  C   UNL     1      34.209 -16.170 -25.135  0.00  0.00    +0.059 C 
ATOM     22  C   UNL     1      34.454 -14.793 -23.180  0.00  0.00    +0.017 C 
ATOM     23  C   UNL     1      34.134 -14.965 -24.565  0.00  0.00    +0.006 C 
ENDBRANCH  12  18
ENDBRANCH   9  11
ENDBRANCH   2   8
BRANCH   1  24
ATOM     24  S   UNL     1      33.871 -23.023 -17.260  0.00  0.00    +0.076 S 
ATOM     25  O   UNL     1      33.525 -24.383 -17.652  0.00  0.00    -0.150 OA
ATOM     26  O   UNL     1      33.756 -21.954 -18.242  0.00  0.00    -0.150 OA
BRANCH  24  28
ATOM     27 CL   UNL     1      28.547 -26.225 -14.417  0.00  0.00    -0.081 Cl
ATOM     28  N   UNL     1      32.966 -22.620 -15.853  0.00  0.00    -0.199 N 
ATOM     29  N   UNL     1      31.173 -24.041 -16.467  0.00  0.00    -0.227 NA
ATOM     30  C   UNL     1      31.893 -23.495 -15.461  0.00  0.00    +0.147 C 
ATOM     31  C   UNL     1      31.654 -23.734 -14.118  0.00  0.00    +0.036 C 
ATOM     32  C   UNL     1      30.609 -24.588 -13.784  0.00  0.00    +0.016 C 
ATOM     33  C   UNL     1      30.165 -24.866 -16.104  0.00  0.00    +0.112 C 
ATOM     34  C   UNL     1      29.845 -25.169 -14.791  0.00  0.00    +0.077 C 
ATOM     35  H   UNL     1      33.175 -21.812 -15.331  0.00  0.00    +0.175 HD
ENDBRANCH  24  28
ENDBRANCH   1  24
TORSDOF 5
ENDMDL
MODEL 5
REMARK VINA RESULT:     -11.3      6.354     12.557
REMARK  Name = 24794406
REMARK  5 active torsions:
REMARK  status: ('A' for Active; 'I' for Inactive)
REMARK    1  A    between atoms: C_1  and  S_24
REMARK    2  A    between atoms: C_2  and  N_8
REMARK    3  A    between atoms: C_9  and  C_11
REMARK    4  A    between atoms: C_12  and  N_18
REMARK    5  A    between atoms: S_24  and  N_28
REMARK                            x       y       z     vdW  Elec       q    Type
REMARK                         _______ _______ _______ _____ _____    ______ ____
ROOT
ATOM      1  C   UNL     1      33.146 -13.553 -24.658  0.00  0.00    +0.139 C 
ATOM      2  C   UNL     1      33.650 -14.758 -25.146  0.00  0.00    +0.070 C 
ATOM      3  C   UNL     1      32.848 -12.513 -25.540  0.00  0.00    +0.021 C 
ATOM      4  C   UNL     1      33.858 -14.924 -26.515  0.00  0.00    +0.016 C 
ATOM      5  C   UNL     1      33.055 -12.680 -26.909  0.00  0.00    +0.001 C 
ATOM      6  C   UNL     1      33.559 -13.886 -27.397  0.00  0.00    +0.001 C 
ENDROOT
BRANCH   2   8
ATOM      7  O   UNL     1      35.117 -17.320 -25.668  0.00  0.00    -0.270 OA
ATOM      8  N   UNL     1      33.961 -15.829 -24.273  0.00  0.00    -0.279 N 
ATOM      9  C   UNL     1      34.652 -17.016 -24.558  0.00  0.00    +0.250 C 
ATOM     10  H   UNL     1      33.651 -15.728 -23.344  0.00  0.00    +0.155 HD
BRANCH   9  11
ATOM     11  C   UNL     1      34.794 -17.948 -23.452  0.00  0.00    +0.054 C 
ATOM     12  C   UNL     1      35.069 -19.736 -21.328  0.00  0.00    +0.058 C 
ATOM     13  C   UNL     1      34.963 -17.468 -22.153  0.00  0.00    +0.006 C 
ATOM     14  C   UNL     1      34.764 -19.322 -23.688  0.00  0.00    +0.006 C 
ATOM     15  C   UNL     1      35.101 -18.362 -21.091  0.00  0.00    +0.015 C 
ATOM     16  C   UNL     1      34.902 -20.216 -22.627  0.00  0.00    +0.015 C 
BRANCH  12  18
ATOM     17  O   UNL     1      32.900 -21.162 -20.053  0.00  0.00    -0.269 OA
ATOM     18  N   UNL     1      35.212 -20.665 -20.224  0.00  0.00    -0.233 N 
ATOM     19  C   UNL     1      34.071 -21.334 -19.710  0.00  0.00    +0.257 C 
ATOM     20  C   UNL     1      36.463 -20.891 -19.644  0.00  0.00    +0.072 C 
ATOM     21  C   UNL     1      34.313 -22.310 -18.603  0.00  0.00    +0.059 C 
ATOM     22  C   UNL     1      36.648 -21.745 -18.632  0.00  0.00    +0.017 C 
ATOM     23  C   UNL     1      35.539 -22.479 -18.103  0.00  0.00    +0.006 C 
ENDBRANCH  12  18
ENDBRANCH   9  11
ENDBRANCH   2   8
BRANCH   1  24
ATOM     24  S   UNL     1      32.871 -13.304 -22.946  0.00  0.00    +0.076 S 
ATOM     25  O   UNL     1      34.066 -12.680 -22.396  0.00  0.00    -0.150 OA
ATOM     26  O   UNL     1      32.397 -14.554 -22.369  0.00  0.00    -0.150 OA
BRANCH  24  28
ATOM     27 CL   UNL     1      32.375  -7.404 -19.537  0.00  0.00    -0.081 Cl
ATOM     28  N   UNL     1      31.602 -12.141 -22.934  0.00  0.00    -0.199 N 
ATOM     29  N   UNL     1      32.401 -11.129 -20.948  0.00  0.00    -0.227 NA
ATOM     30  C   UNL     1      31.771 -10.959 -22.131  0.00  0.00    +0.147 C 
ATOM     31  C   UNL     1      31.298  -9.741 -22.591  0.00  0.00    +0.036 C 
ATOM     32  C   UNL     1      31.485  -8.623 -21.784  0.00  0.00    +0.016 C 
ATOM     33  C   UNL     1      32.565 -10.020 -20.191  0.00  0.00    +0.112 C 
ATOM     34  C   UNL     1      32.130  -8.758 -20.559  0.00  0.00    +0.077 C 
ATOM     35  H   UNL     1      30.782 -12.281 -23.460  0.00  0.00    +0.175 HD
ENDBRANCH  24  28
ENDBRANCH   1  24
TORSDOF 5
ENDMDL
