MODEL 1
REMARK VINA RESULT:     -14.0      0.000      0.000
REMARK  Name = 3488
REMARK  8 active torsions:
REMARK  status: ('A' for Active; 'I' for Inactive)
REMARK    1  A    between atoms: C_1  and  S_7
REMARK    2  A    between atoms: C_2  and  C_22
REMARK    3  A    between atoms: S_7  and  N_12
REMARK    4  A    between atoms: N_11  and  C_16
REMARK    5  A    between atoms: C_22  and  C_23
REMARK    6  A    between atoms: C_23  and  N_25
REMARK    7  A    between atoms: C_26  and  C_29
REMARK    8  A    between atoms: C_30  and  O_35
REMARK                            x       y       z     vdW  Elec       q    Type
REMARK                         _______ _______ _______ _____ _____    ______ ____
ROOT
ATOM      1  C   UNL     1      34.326 -21.969 -19.102  0.00  0.00    +0.125 C 
ATOM      2  C   UNL     1      35.522 -20.129 -20.790  0.00  0.00    -0.020 C 
ATOM      3  C   UNL     1      35.706 -21.881 -19.135  0.00  0.00    +0.020 C 
ATOM      4  C   UNL     1      33.528 -21.160 -19.892  0.00  0.00    +0.020 C 
ATOM      5  C   UNL     1      36.309 -20.954 -19.986  0.00  0.00    -0.003 C 
ATOM      6  C   UNL     1      34.131 -20.232 -20.742  0.00  0.00    -0.003 C 
ENDROOT
BRANCH   1   7
ATOM      7  S   UNL     1      33.562 -23.144 -18.025  0.00  0.00    +0.077 S 
ATOM      8  O   UNL     1      33.586 -24.439 -18.679  0.00  0.00    -0.150 OA
ATOM      9  O   UNL     1      32.307 -22.563 -17.592  0.00  0.00    -0.150 OA
BRANCH   7  12
ATOM     10  O   UNL     1      33.566 -24.668 -15.318  0.00  0.00    -0.251 OA
ATOM     11  N   UNL     1      35.563 -23.724 -14.635  0.00  0.00    -0.289 N 
ATOM     12  N   UNL     1      34.662 -23.152 -16.716  0.00  0.00    -0.169 N 
ATOM     13  C   UNL     1      34.519 -23.920 -15.518  0.00  0.00    +0.319 C 
ATOM     14  H   UNL     1      36.282 -23.101 -14.887  0.00  0.00    +0.151 HD
ATOM     15  H   UNL     1      35.460 -22.580 -16.794  0.00  0.00    +0.178 HD
BRANCH  11  16
ATOM     16  C   UNL     1      35.647 -24.395 -13.356  0.00  0.00    +0.073 C 
ATOM     17  C   UNL     1      36.041 -23.414 -12.245  0.00  0.00    +0.020 C 
ATOM     18  C   UNL     1      36.614 -25.581 -13.418  0.00  0.00    +0.020 C 
ATOM     19  C   UNL     1      37.502 -22.977 -12.343  0.00  0.00    +0.002 C 
ATOM     20  C   UNL     1      38.075 -25.140 -13.513  0.00  0.00    +0.002 C 
ATOM     21  C   UNL     1      38.446 -24.175 -12.391  0.00  0.00    +0.000 C 
ENDBRANCH  11  16
ENDBRANCH   7  12
ENDBRANCH   1   7
BRANCH   2  22
ATOM     22  C   UNL     1      36.166 -19.138 -21.700  0.00  0.00    +0.048 C 
BRANCH  22  23
ATOM     23  C   UNL     1      35.421 -18.952 -23.028  0.00  0.00    +0.094 C 
BRANCH  23  25
ATOM     24  O   UNL     1      34.700 -17.756 -25.536  0.00  0.00    -0.270 OA
ATOM     25  N   UNL     1      35.029 -17.586 -23.247  0.00  0.00    -0.300 N 
ATOM     26  C   UNL     1      34.696 -17.093 -24.502  0.00  0.00    +0.249 C 
ATOM     27  H   UNL     1      34.996 -16.974 -22.475  0.00  0.00    +0.150 HD
BRANCH  26  29
ATOM     28 CL   UNL     1      32.878 -13.162 -27.304  0.00  0.00    -0.082 Cl
ATOM     29  C   UNL     1      34.339 -15.652 -24.566  0.00  0.00    +0.088 C 
ATOM     30  C   UNL     1      34.509 -14.854 -23.453  0.00  0.00    +0.143 C 
ATOM     31  C   UNL     1      33.842 -15.158 -25.756  0.00  0.00    +0.019 C 
ATOM     32  C   UNL     1      34.168 -13.504 -23.532  0.00  0.00    +0.038 C 
ATOM     33  C   UNL     1      33.500 -13.808 -25.834  0.00  0.00    +0.058 C 
ATOM     34  C   UNL     1      33.664 -12.981 -24.724  0.00  0.00    +0.015 C 
BRANCH  30  35
ATOM     35  O   UNL     1      34.999 -15.345 -22.280  0.00  0.00    -0.471 OA
ATOM     36  C   UNL     1      34.571 -14.705 -21.081  0.00  0.00    +0.252 C 
ENDBRANCH  30  35
ENDBRANCH  26  29
ENDBRANCH  23  25
ENDBRANCH  22  23
ENDBRANCH   2  22
TORSDOF 8
ENDMDL
MODEL 2
REMARK VINA RESULT:     -13.3      0.972      2.077
REMARK  Name = 3488
REMARK  8 active torsions:
REMARK  status: ('A' for Active; 'I' for Inactive)
REMARK    1  A    between atoms: C_1  and  S_7
REMARK    2  A    between atoms: C_2  and  C_22
REMARK    3  A    between atoms: S_7  and  N_12
REMARK    4  A    between atoms: N_11  and  C_16
REMARK    5  A    between atoms: C_22  and  C_23
REMARK    6  A    between atoms: C_23  and  N_25
REMARK    7  A    between atoms: C_26  and  C_29
REMARK    8  A    between atoms: C_30  and  O_35
REMARK                            x       y       z     vdW  Elec       q    Type
REMARK                         _______ _______ _______ _____ _____    ______ ____
ROOT
ATOM      1  C   UNL     1      34.221 -21.987 -19.100  0.00  0.00    +0.125 C 
ATOM      2  C   UNL     1      35.383 -20.141 -20.805  0.00  0.00    -0.020 C 
ATOM      3  C   UNL     1      33.408 -21.163 -19.857  0.00  0.00    +0.020 C 
ATOM      4  C   UNL     1      35.601 -21.911 -19.174  0.00  0.00    +0.020 C 
ATOM      5  C   UNL     1      33.994 -20.232 -20.717  0.00  0.00    -0.003 C 
ATOM      6  C   UNL     1      36.187 -20.982 -20.034  0.00  0.00    -0.003 C 
ENDROOT
BRANCH   1   7
ATOM      7  S   UNL     1      33.479 -23.166 -18.011  0.00  0.00    +0.077 S 
ATOM      8  O   UNL     1      33.507 -24.461 -18.662  0.00  0.00    -0.150 OA
ATOM      9  O   UNL     1      32.225 -22.593 -17.564  0.00  0.00    -0.150 OA
BRANCH   7  12
ATOM     10  O   UNL     1      33.544 -24.707 -15.315  0.00  0.00    -0.251 OA
ATOM     11  N   UNL     1      35.531 -23.731 -14.649  0.00  0.00    -0.289 N 
ATOM     12  N   UNL     1      34.595 -23.161 -16.715  0.00  0.00    -0.169 N 
ATOM     13  C   UNL     1      34.480 -23.940 -15.520  0.00  0.00    +0.319 C 
ATOM     14  H   UNL     1      36.235 -23.093 -14.905  0.00  0.00    +0.151 HD
ATOM     15  H   UNL     1      35.381 -22.574 -16.799  0.00  0.00    +0.178 HD
BRANCH  11  16
ATOM     16  C   UNL     1      35.643 -24.408 -13.375  0.00  0.00    +0.073 C 
ATOM     17  C   UNL     1      36.031 -23.427 -12.263  0.00  0.00    +0.020 C 
ATOM     18  C   UNL     1      36.631 -25.575 -13.456  0.00  0.00    +0.020 C 
ATOM     19  C   UNL     1      37.482 -22.962 -12.374  0.00  0.00    +0.002 C 
ATOM     20  C   UNL     1      38.083 -25.106 -13.565  0.00  0.00    +0.002 C 
ATOM     21  C   UNL     1      38.448 -24.142 -12.441  0.00  0.00    +0.000 C 
ENDBRANCH  11  16
ENDBRANCH   7  12
ENDBRANCH   1   7
BRANCH   2  22
ATOM     22  C   UNL     1      36.009 -19.146 -21.723  0.00  0.00    +0.048 C 
BRANCH  22  23
ATOM     23  C   UNL     1      35.911 -17.700 -21.219  0.00  0.00    +0.094 C 
BRANCH  23  25
ATOM     24  O   UNL     1      34.138 -15.465 -20.908  0.00  0.00    -0.270 OA
ATOM     25  N   UNL     1      35.488 -16.791 -22.249  0.00  0.00    -0.300 N 
ATOM     26  C   UNL     1      34.622 -15.732 -22.005  0.00  0.00    +0.249 C 
ATOM     27  H   UNL     1      35.824 -16.924 -23.165  0.00  0.00    +0.150 HD
BRANCH  26  29
ATOM     28 CL   UNL     1      33.916 -11.014 -23.968  0.00  0.00    -0.082 Cl
ATOM     29  C   UNL     1      34.259 -14.900 -23.181  0.00  0.00    +0.088 C 
ATOM     30  C   UNL     1      33.934 -15.507 -24.377  0.00  0.00    +0.143 C 
ATOM     31  C   UNL     1      34.261 -13.527 -23.030  0.00  0.00    +0.019 C 
ATOM     32  C   UNL     1      33.596 -14.708 -25.469  0.00  0.00    +0.038 C 
ATOM     33  C   UNL     1      33.923 -12.729 -24.123  0.00  0.00    +0.058 C 
ATOM     34  C   UNL     1      33.590 -13.319 -25.342  0.00  0.00    +0.015 C 
BRANCH  30  35
ATOM     35  O   UNL     1      33.934 -16.862 -24.521  0.00  0.00    -0.471 OA
ATOM     36  C   UNL     1      34.818 -17.409 -25.497  0.00  0.00    +0.252 C 
ENDBRANCH  30  35
ENDBRANCH  26  29
ENDBRANCH  23  25
ENDBRANCH  22  23
ENDBRANCH   2  22
TORSDOF 8
ENDMDL
MODEL 3
REMARK VINA RESULT:     -13.0      6.624     10.399
REMARK  Name = 3488
REMARK  8 active torsions:
REMARK  status: ('A' for Active; 'I' for Inactive)
REMARK    1  A    between atoms: C_1  and  S_7
REMARK    2  A    between atoms: C_2  and  C_22
REMARK    3  A    between atoms: S_7  and  N_12
REMARK    4  A    between atoms: N_11  and  C_16
REMARK    5  A    between atoms: C_22  and  C_23
REMARK    6  A    between atoms: C_23  and  N_25
REMARK    7  A    between atoms: C_26  and  C_29
REMARK    8  A    between atoms: C_30  and  O_35
REMARK                            x       y       z     vdW  Elec       q    Type
REMARK                         _______ _______ _______ _____ _____    ______ ____
ROOT
ATOM      1  C   UNL     1      32.954 -12.820 -23.060  0.00  0.00    +0.125 C 
ATOM      2  C   UNL     1      31.823 -11.327 -21.020  0.00  0.00    -0.020 C 
ATOM      3  C   UNL     1      32.691 -13.427 -21.845  0.00  0.00    +0.020 C 
ATOM      4  C   UNL     1      32.665 -11.485 -23.281  0.00  0.00    +0.020 C 
ATOM      5  C   UNL     1      32.121 -12.675 -20.816  0.00  0.00    -0.003 C 
ATOM      6  C   UNL     1      32.094 -10.732 -22.254  0.00  0.00    -0.003 C 
ENDROOT
BRANCH   1   7
ATOM      7  S   UNL     1      33.676 -13.773 -24.362  0.00  0.00    +0.077 S 
ATOM      8  O   UNL     1      34.655 -12.944 -25.038  0.00  0.00    -0.150 OA
ATOM      9  O   UNL     1      32.582 -14.371 -25.101  0.00  0.00    -0.150 OA
BRANCH   7  12
ATOM     10  O   UNL     1      34.750 -16.577 -25.160  0.00  0.00    -0.251 OA
ATOM     11  N   UNL     1      35.544 -17.026 -23.036  0.00  0.00    -0.289 N 
ATOM     12  N   UNL     1      34.484 -14.988 -23.470  0.00  0.00    -0.169 N 
ATOM     13  C   UNL     1      34.919 -16.247 -23.990  0.00  0.00    +0.319 C 
ATOM     14  H   UNL     1      35.631 -16.673 -22.122  0.00  0.00    +0.151 HD
ATOM     15  H   UNL     1      34.664 -14.804 -22.519  0.00  0.00    +0.178 HD
BRANCH  11  16
ATOM     16  C   UNL     1      36.076 -18.341 -23.321  0.00  0.00    +0.073 C 
ATOM     17  C   UNL     1      34.993 -19.416 -23.177  0.00  0.00    +0.020 C 
ATOM     18  C   UNL     1      37.287 -18.650 -22.435  0.00  0.00    +0.020 C 
ATOM     19  C   UNL     1      34.607 -19.665 -21.720  0.00  0.00    +0.002 C 
ATOM     20  C   UNL     1      36.897 -18.900 -20.978  0.00  0.00    +0.002 C 
ATOM     21  C   UNL     1      35.827 -19.982 -20.859  0.00  0.00    +0.000 C 
ENDBRANCH  11  16
ENDBRANCH   7  12
ENDBRANCH   1   7
BRANCH   2  22
ATOM     22  C   UNL     1      31.215 -10.522 -19.922  0.00  0.00    +0.048 C 
BRANCH  22  23
ATOM     23  C   UNL     1      31.970  -9.220 -19.626  0.00  0.00    +0.094 C 
BRANCH  23  25
ATOM     24  O   UNL     1      33.145  -6.603 -19.729  0.00  0.00    -0.270 OA
ATOM     25  N   UNL     1      32.015  -8.344 -20.765  0.00  0.00    -0.300 N 
ATOM     26  C   UNL     1      32.608  -7.088 -20.722  0.00  0.00    +0.249 C 
ATOM     27  H   UNL     1      31.608  -8.645 -21.610  0.00  0.00    +0.150 HD
BRANCH  26  29
ATOM     28 CL   UNL     1      30.892  -2.867 -23.139  0.00  0.00    -0.082 Cl
ATOM     29  C   UNL     1      32.547  -6.293 -21.976  0.00  0.00    +0.088 C 
ATOM     30  C   UNL     1      33.190  -6.748 -23.108  0.00  0.00    +0.143 C 
ATOM     31  C   UNL     1      31.837  -5.109 -21.959  0.00  0.00    +0.019 C 
ATOM     32  C   UNL     1      33.121  -5.988 -24.276  0.00  0.00    +0.038 C 
ATOM     33  C   UNL     1      31.769  -4.348 -23.127  0.00  0.00    +0.058 C 
ATOM     34  C   UNL     1      32.410  -4.788 -24.285  0.00  0.00    +0.015 C 
BRANCH  30  35
ATOM     35  O   UNL     1      33.890  -7.918 -23.120  0.00  0.00    -0.471 OA
ATOM     36  C   UNL     1      35.184  -7.892 -23.718  0.00  0.00    +0.252 C 
ENDBRANCH  30  35
ENDBRANCH  26  29
ENDBRANCH  23  25
ENDBRANCH  22  23
ENDBRANCH   2  22
TORSDOF 8
ENDMDL
MODEL 4
REMARK VINA RESULT:     -12.9      1.533      2.240
REMARK  Name = 3488
REMARK  8 active torsions:
REMARK  status: ('A' for Active; 'I' for Inactive)
REMARK    1  A    between atoms: C_1  and  S_7
REMARK    2  A    between atoms: C_2  and  C_22
REMARK    3  A    between atoms: S_7  and  N_12
REMARK    4  A    between atoms: N_11  and  C_16
REMARK    5  A    between atoms: C_22  and  C_23
REMARK    6  A    between atoms: C_23  and  N_25
REMARK    7  A    between atoms: C_26  and  C_29
REMARK    8  A    between atoms: C_30  and  O_35
REMARK                            x       y       z     vdW  Elec       q    Type
REMARK                         _______ _______ _______ _____ _____    ______ ____
ROOT
ATOM      1  C   UNL     1      34.639 -21.613 -19.510  0.00  0.00    +0.125 C 
ATOM      2  C   UNL     1      35.970 -19.710 -21.017  0.00  0.00    -0.020 C 
ATOM      3  C   UNL     1      33.906 -20.739 -20.294  0.00  0.00    +0.020 C 
ATOM      4  C   UNL     1      36.021 -21.559 -19.462  0.00  0.00    +0.020 C 
ATOM      5  C   UNL     1      34.577 -19.779 -21.053  0.00  0.00    -0.003 C 
ATOM      6  C   UNL     1      36.692 -20.601 -20.222  0.00  0.00    -0.003 C 
ENDROOT
BRANCH   1   7
ATOM      7  S   UNL     1      33.789 -22.828 -18.548  0.00  0.00    +0.077 S 
ATOM      8  O   UNL     1      33.837 -24.087 -19.266  0.00  0.00    -0.150 OA
ATOM      9  O   UNL     1      32.517 -22.247 -18.167  0.00  0.00    -0.150 OA
BRANCH   7  12
ATOM     10  O   UNL     1      33.596 -24.492 -15.932  0.00  0.00    -0.251 OA
ATOM     11  N   UNL     1      35.556 -23.619 -15.072  0.00  0.00    -0.289 N 
ATOM     12  N   UNL     1      34.800 -22.923 -17.173  0.00  0.00    -0.169 N 
ATOM     13  C   UNL     1      34.569 -23.751 -16.029  0.00  0.00    +0.319 C 
ATOM     14  H   UNL     1      36.298 -22.996 -15.243  0.00  0.00    +0.151 HD
ATOM     15  H   UNL     1      35.610 -22.361 -17.169  0.00  0.00    +0.178 HD
BRANCH  11  16
ATOM     16  C   UNL     1      35.547 -24.358 -13.828  0.00  0.00    +0.073 C 
ATOM     17  C   UNL     1      35.982 -23.468 -12.657  0.00  0.00    +0.020 C 
ATOM     18  C   UNL     1      36.419 -25.613 -13.926  0.00  0.00    +0.020 C 
ATOM     19  C   UNL     1      37.476 -23.146 -12.692  0.00  0.00    +0.002 C 
ATOM     20  C   UNL     1      37.913 -25.287 -13.958  0.00  0.00    +0.002 C 
ATOM     21  C   UNL     1      38.324 -24.412 -12.778  0.00  0.00    +0.000 C 
ENDBRANCH  11  16
ENDBRANCH   7  12
ENDBRANCH   1   7
BRANCH   2  22
ATOM     22  C   UNL     1      36.687 -18.684 -21.828  0.00  0.00    +0.048 C 
BRANCH  22  23
ATOM     23  C   UNL     1      35.946 -18.291 -23.113  0.00  0.00    +0.094 C 
BRANCH  23  25
ATOM     24  O   UNL     1      34.142 -17.109 -25.007  0.00  0.00    -0.270 OA
ATOM     25  N   UNL     1      35.303 -17.010 -23.002  0.00  0.00    -0.300 N 
ATOM     26  C   UNL     1      34.440 -16.517 -23.973  0.00  0.00    +0.249 C 
ATOM     27  H   UNL     1      35.480 -16.459 -22.205  0.00  0.00    +0.150 HD
BRANCH  26  29
ATOM     28 CL   UNL     1      32.478 -13.162 -20.581  0.00  0.00    -0.082 Cl
ATOM     29  C   UNL     1      33.877 -15.166 -23.722  0.00  0.00    +0.088 C 
ATOM     30  C   UNL     1      33.751 -14.271 -24.765  0.00  0.00    +0.143 C 
ATOM     31  C   UNL     1      33.494 -14.850 -22.433  0.00  0.00    +0.019 C 
ATOM     32  C   UNL     1      33.220 -13.007 -24.510  0.00  0.00    +0.038 C 
ATOM     33  C   UNL     1      32.964 -13.586 -22.178  0.00  0.00    +0.058 C 
ATOM     34  C   UNL     1      32.826 -12.664 -23.216  0.00  0.00    +0.015 C 
BRANCH  30  35
ATOM     35  O   UNL     1      34.130 -14.586 -26.036  0.00  0.00    -0.471 OA
ATOM     36  C   UNL     1      33.665 -13.732 -27.079  0.00  0.00    +0.252 C 
ENDBRANCH  30  35
ENDBRANCH  26  29
ENDBRANCH  23  25
ENDBRANCH  22  23
ENDBRANCH   2  22
TORSDOF 8
ENDMDL
MODEL 5
REMARK VINA RESULT:     -12.7      6.472     10.316
REMARK  Name = 3488
REMARK  8 active torsions:
REMARK  status: ('A' for Active; 'I' for Inactive)
REMARK    1  A    between atoms: C_1  and  S_7
REMARK    2  A    between atoms: C_2  and  C_22
REMARK    3  A    between atoms: S_7  and  N_12
REMARK    4  A    between atoms: N_11  and  C_16
REMARK    5  A    between atoms: C_22  and  C_23
REMARK    6  A    between atoms: C_23  and  N_25
REMARK    7  A    between atoms: C_26  and  C_29
REMARK    8  A    between atoms: C_30  and  O_35
REMARK                            x       y       z     vdW  Elec       q    Type
REMARK                         _______ _______ _______ _____ _____    ______ ____
ROOT
ATOM      1  C   UNL     1      32.969 -12.864 -23.219  0.00  0.00    +0.125 C 
ATOM      2  C   UNL     1      31.801 -11.350 -21.217  0.00  0.00    -0.020 C 
ATOM      3  C   UNL     1      32.586 -13.482 -22.042  0.00  0.00    +0.020 C 
ATOM      4  C   UNL     1      32.781 -11.508 -23.421  0.00  0.00    +0.020 C 
ATOM      5  C   UNL     1      31.997 -12.719 -21.032  0.00  0.00    -0.003 C 
ATOM      6  C   UNL     1      32.192 -10.744 -22.412  0.00  0.00    -0.003 C 
ENDROOT
BRANCH   1   7
ATOM      7  S   UNL     1      33.714 -13.831 -24.498  0.00  0.00    +0.077 S 
ATOM      8  O   UNL     1      34.691 -13.001 -25.179  0.00  0.00    -0.150 OA
ATOM      9  O   UNL     1      32.634 -14.453 -25.238  0.00  0.00    -0.150 OA
BRANCH   7  12
ATOM     10  O   UNL     1      34.785 -16.654 -25.226  0.00  0.00    -0.251 OA
ATOM     11  N   UNL     1      35.590 -17.047 -23.095  0.00  0.00    -0.289 N 
ATOM     12  N   UNL     1      34.527 -15.020 -23.578  0.00  0.00    -0.169 N 
ATOM     13  C   UNL     1      34.960 -16.293 -24.067  0.00  0.00    +0.319 C 
ATOM     14  H   UNL     1      35.681 -16.669 -22.191  0.00  0.00    +0.151 HD
ATOM     15  H   UNL     1      34.712 -14.811 -22.633  0.00  0.00    +0.178 HD
BRANCH  11  16
ATOM     16  C   UNL     1      36.121 -18.369 -23.347  0.00  0.00    +0.073 C 
ATOM     17  C   UNL     1      35.029 -19.436 -23.210  0.00  0.00    +0.020 C 
ATOM     18  C   UNL     1      37.310 -18.669 -22.430  0.00  0.00    +0.020 C 
ATOM     19  C   UNL     1      34.610 -19.659 -21.758  0.00  0.00    +0.002 C 
ATOM     20  C   UNL     1      36.886 -18.894 -20.978  0.00  0.00    +0.002 C 
ATOM     21  C   UNL     1      35.809 -19.969 -20.866  0.00  0.00    +0.000 C 
ENDBRANCH  11  16
ENDBRANCH   7  12
ENDBRANCH   1   7
BRANCH   2  22
ATOM     22  C   UNL     1      31.173 -10.534 -20.138  0.00  0.00    +0.048 C 
BRANCH  22  23
ATOM     23  C   UNL     1      31.838  -9.167 -19.937  0.00  0.00    +0.094 C 
BRANCH  23  25
ATOM     24  O   UNL     1      33.718  -7.088 -20.559  0.00  0.00    -0.270 OA
ATOM     25  N   UNL     1      31.907  -8.409 -21.157  0.00  0.00    -0.300 N 
ATOM     26  C   UNL     1      32.856  -7.416 -21.371  0.00  0.00    +0.249 C 
ATOM     27  H   UNL     1      31.254  -8.599 -21.870  0.00  0.00    +0.150 HD
BRANCH  26  29
ATOM     28 CL   UNL     1      35.204  -6.065 -25.760  0.00  0.00    -0.082 Cl
ATOM     29  C   UNL     1      32.776  -6.705 -22.673  0.00  0.00    +0.088 C 
ATOM     30  C   UNL     1      31.613  -6.055 -23.030  0.00  0.00    +0.143 C 
ATOM     31  C   UNL     1      33.889  -6.723 -23.491  0.00  0.00    +0.019 C 
ATOM     32  C   UNL     1      31.558  -5.393 -24.256  0.00  0.00    +0.038 C 
ATOM     33  C   UNL     1      33.833  -6.062 -24.718  0.00  0.00    +0.058 C 
ATOM     34  C   UNL     1      32.669  -5.396 -25.100  0.00  0.00    +0.015 C 
BRANCH  30  35
ATOM     35  O   UNL     1      30.517  -6.040 -22.219  0.00  0.00    -0.471 OA
ATOM     36  C   UNL     1      30.352  -4.902 -21.376  0.00  0.00    +0.252 C 
ENDBRANCH  30  35
ENDBRANCH  26  29
ENDBRANCH  23  25
ENDBRANCH  22  23
ENDBRANCH   2  22
TORSDOF 8
ENDMDL
MODEL 6
REMARK VINA RESULT:     -12.2      3.983     11.604
REMARK  Name = 3488
REMARK  8 active torsions:
REMARK  status: ('A' for Active; 'I' for Inactive)
REMARK    1  A    between atoms: C_1  and  S_7
REMARK    2  A    between atoms: C_2  and  C_22
REMARK    3  A    between atoms: S_7  and  N_12
REMARK    4  A    between atoms: N_11  and  C_16
REMARK    5  A    between atoms: C_22  and  C_23
REMARK    6  A    between atoms: C_23  and  N_25
REMARK    7  A    between atoms: C_26  and  C_29
REMARK    8  A    between atoms: C_30  and  O_35
REMARK                            x       y       z     vdW  Elec       q    Type
REMARK                         _______ _______ _______ _____ _____    ______ ____
ROOT
ATOM      1  C   UNL     1      34.961 -20.579 -20.596  0.00  0.00    +0.125 C 
ATOM      2  C   UNL     1      34.022 -22.400 -18.734  0.00  0.00    -0.020 C 
ATOM      3  C   UNL     1      33.598 -20.687 -20.386  0.00  0.00    +0.020 C 
ATOM      4  C   UNL     1      35.867 -21.358 -19.898  0.00  0.00    +0.020 C 
ATOM      5  C   UNL     1      33.124 -21.606 -19.447  0.00  0.00    -0.003 C 
ATOM      6  C   UNL     1      35.394 -22.275 -18.959  0.00  0.00    -0.003 C 
ENDROOT
BRANCH   1   7
ATOM      7  S   UNL     1      35.560 -19.416 -21.785  0.00  0.00    +0.077 S 
ATOM      8  O   UNL     1      34.999 -19.762 -23.077  0.00  0.00    -0.150 OA
ATOM      9  O   UNL     1      36.996 -19.334 -21.605  0.00  0.00    -0.150 OA
BRANCH   7  12
ATOM     10  O   UNL     1      36.060 -16.430 -22.482  0.00  0.00    -0.251 OA
ATOM     11  N   UNL     1      34.434 -15.677 -21.022  0.00  0.00    -0.289 N 
ATOM     12  N   UNL     1      34.838 -17.971 -21.223  0.00  0.00    -0.169 N 
ATOM     13  C   UNL     1      35.187 -16.651 -21.649  0.00  0.00    +0.319 C 
ATOM     14  H   UNL     1      33.756 -15.955 -20.366  0.00  0.00    +0.151 HD
ATOM     15  H   UNL     1      34.122 -18.057 -20.552  0.00  0.00    +0.178 HD
BRANCH  11  16
ATOM     16  C   UNL     1      34.597 -14.264 -21.289  0.00  0.00    +0.073 C 
ATOM     17  C   UNL     1      33.497 -13.444 -20.606  0.00  0.00    +0.020 C 
ATOM     18  C   UNL     1      34.642 -13.989 -22.795  0.00  0.00    +0.020 C 
ATOM     19  C   UNL     1      32.135 -13.621 -21.277  0.00  0.00    +0.002 C 
ATOM     20  C   UNL     1      33.277 -14.165 -23.462  0.00  0.00    +0.002 C 
ATOM     21  C   UNL     1      32.202 -13.330 -22.774  0.00  0.00    +0.000 C 
ENDBRANCH  11  16
ENDBRANCH   7  12
ENDBRANCH   1   7
BRANCH   2  22
ATOM     22  C   UNL     1      33.517 -23.382 -17.732  0.00  0.00    +0.048 C 
BRANCH  22  23
ATOM     23  C   UNL     1      33.713 -22.930 -16.279  0.00  0.00    +0.094 C 
BRANCH  23  25
ATOM     24  O   UNL     1      36.410 -22.135 -15.702  0.00  0.00    -0.270 OA
ATOM     25  N   UNL     1      34.709 -23.708 -15.594  0.00  0.00    -0.300 N 
ATOM     26  C   UNL     1      35.996 -23.240 -15.359  0.00  0.00    +0.249 C 
ATOM     27  H   UNL     1      34.471 -24.611 -15.280  0.00  0.00    +0.150 HD
BRANCH  26  29
ATOM     28 CL   UNL     1      40.616 -25.529 -15.220  0.00  0.00    -0.082 Cl
ATOM     29  C   UNL     1      36.916 -24.176 -14.663  0.00  0.00    +0.088 C 
ATOM     30  C   UNL     1      36.504 -24.811 -13.509  0.00  0.00    +0.143 C 
ATOM     31  C   UNL     1      38.169 -24.379 -15.207  0.00  0.00    +0.019 C 
ATOM     32  C   UNL     1      37.382 -25.686 -12.870  0.00  0.00    +0.038 C 
ATOM     33  C   UNL     1      39.047 -25.254 -14.567  0.00  0.00    +0.058 C 
ATOM     34  C   UNL     1      38.654 -25.909 -13.400  0.00  0.00    +0.015 C 
BRANCH  30  35
ATOM     35  O   UNL     1      35.266 -24.607 -12.975  0.00  0.00    -0.471 OA
ATOM     36  C   UNL     1      35.211 -24.128 -11.634  0.00  0.00    +0.252 C 
ENDBRANCH  30  35
ENDBRANCH  26  29
ENDBRANCH  23  25
ENDBRANCH  22  23
ENDBRANCH   2  22
TORSDOF 8
ENDMDL
MODEL 7
REMARK VINA RESULT:     -11.9      3.257      5.287
REMARK  Name = 3488
REMARK  8 active torsions:
REMARK  status: ('A' for Active; 'I' for Inactive)
REMARK    1  A    between atoms: C_1  and  S_7
REMARK    2  A    between atoms: C_2  and  C_22
REMARK    3  A    between atoms: S_7  and  N_12
REMARK    4  A    between atoms: N_11  and  C_16
REMARK    5  A    between atoms: C_22  and  C_23
REMARK    6  A    between atoms: C_23  and  N_25
REMARK    7  A    between atoms: C_26  and  C_29
REMARK    8  A    between atoms: C_30  and  O_35
REMARK                            x       y       z     vdW  Elec       q    Type
REMARK                         _______ _______ _______ _____ _____    ______ ____
ROOT
ATOM      1  C   UNL     1      36.421 -23.837 -15.359  0.00  0.00    +0.125 C 
ATOM      2  C   UNL     1      36.904 -21.973 -17.349  0.00  0.00    -0.020 C 
ATOM      3  C   UNL     1      37.706 -23.356 -15.536  0.00  0.00    +0.020 C 
ATOM      4  C   UNL     1      35.371 -23.409 -16.152  0.00  0.00    +0.020 C 
ATOM      5  C   UNL     1      37.950 -22.416 -16.539  0.00  0.00    -0.003 C 
ATOM      6  C   UNL     1      35.614 -22.469 -17.154  0.00  0.00    -0.003 C 
ENDROOT
BRANCH   1   7
ATOM      7  S   UNL     1      36.113 -25.027 -14.089  0.00  0.00    +0.077 S 
ATOM      8  O   UNL     1      36.223 -24.357 -12.807  0.00  0.00    -0.150 OA
ATOM      9  O   UNL     1      36.935 -26.182 -14.388  0.00  0.00    -0.150 OA
BRANCH   7  12
ATOM     10  O   UNL     1      33.465 -23.858 -12.962  0.00  0.00    -0.251 OA
ATOM     11  N   UNL     1      32.145 -25.286 -14.212  0.00  0.00    -0.289 N 
ATOM     12  N   UNL     1      34.473 -25.408 -14.388  0.00  0.00    -0.169 N 
ATOM     13  C   UNL     1      33.349 -24.768 -13.777  0.00  0.00    +0.319 C 
ATOM     14  H   UNL     1      32.156 -26.017 -14.870  0.00  0.00    +0.151 HD
ATOM     15  H   UNL     1      34.289 -26.127 -15.035  0.00  0.00    +0.178 HD
BRANCH  11  16
ATOM     16  C   UNL     1      30.865 -24.799 -13.743  0.00  0.00    +0.073 C 
ATOM     17  C   UNL     1      29.711 -25.499 -14.469  0.00  0.00    +0.020 C 
ATOM     18  C   UNL     1      30.769 -23.277 -13.884  0.00  0.00    +0.020 C 
ATOM     19  C   UNL     1      29.578 -25.050 -15.924  0.00  0.00    +0.002 C 
ATOM     20  C   UNL     1      30.634 -22.832 -15.341  0.00  0.00    +0.002 C 
ATOM     21  C   UNL     1      29.472 -23.532 -16.038  0.00  0.00    +0.000 C 
ENDBRANCH  11  16
ENDBRANCH   7  12
ENDBRANCH   1   7
BRANCH   2  22
ATOM     22  C   UNL     1      37.163 -20.970 -18.421  0.00  0.00    +0.048 C 
BRANCH  22  23
ATOM     23  C   UNL     1      36.375 -21.233 -19.711  0.00  0.00    +0.094 C 
BRANCH  23  25
ATOM     24  O   UNL     1      33.920 -20.088 -20.660  0.00  0.00    -0.270 OA
ATOM     25  N   UNL     1      36.234 -20.050 -20.515  0.00  0.00    -0.300 N 
ATOM     26  C   UNL     1      34.999 -19.567 -20.930  0.00  0.00    +0.249 C 
ATOM     27  H   UNL     1      37.046 -19.561 -20.785  0.00  0.00    +0.150 HD
BRANCH  26  29
ATOM     28 CL   UNL     1      34.561 -14.436 -21.224  0.00  0.00    -0.082 Cl
ATOM     29  C   UNL     1      35.024 -18.349 -21.780  0.00  0.00    +0.088 C 
ATOM     30  C   UNL     1      35.260 -18.462 -23.135  0.00  0.00    +0.143 C 
ATOM     31  C   UNL     1      34.808 -17.128 -21.171  0.00  0.00    +0.019 C 
ATOM     32  C   UNL     1      35.280 -17.307 -23.916  0.00  0.00    +0.038 C 
ATOM     33  C   UNL     1      34.828 -15.973 -21.953  0.00  0.00    +0.058 C 
ATOM     34  C   UNL     1      35.064 -16.062 -23.325  0.00  0.00    +0.015 C 
BRANCH  30  35
ATOM     35  O   UNL     1      35.473 -19.669 -23.732  0.00  0.00    -0.471 OA
ATOM     36  C   UNL     1      34.797 -19.910 -24.963  0.00  0.00    +0.252 C 
ENDBRANCH  30  35
ENDBRANCH  26  29
ENDBRANCH  23  25
ENDBRANCH  22  23
ENDBRANCH   2  22
TORSDOF 8
ENDMDL
MODEL 8
REMARK VINA RESULT:     -11.9      3.663     10.996
REMARK  Name = 3488
REMARK  8 active torsions:
REMARK  status: ('A' for Active; 'I' for Inactive)
REMARK    1  A    between atoms: C_1  and  S_7
REMARK    2  A    between atoms: C_2  and  C_22
REMARK    3  A    between atoms: S_7  and  N_12
REMARK    4  A    between atoms: N_11  and  C_16
REMARK    5  A    between atoms: C_22  and  C_23
REMARK    6  A    between atoms: C_23  and  N_25
REMARK    7  A    between atoms: C_26  and  C_29
REMARK    8  A    between atoms: C_30  and  O_35
REMARK                            x       y       z     vdW  Elec       q    Type
REMARK                         _______ _______ _______ _____ _____    ______ ____
ROOT
ATOM      1  C   UNL     1      34.913 -18.506 -23.625  0.00  0.00    +0.125 C 
ATOM      2  C   UNL     1      35.932 -19.651 -21.319  0.00  0.00    -0.020 C 
ATOM      3  C   UNL     1      36.248 -18.320 -23.311  0.00  0.00    +0.020 C 
ATOM      4  C   UNL     1      34.075 -19.251 -22.813  0.00  0.00    +0.020 C 
ATOM      5  C   UNL     1      36.762 -18.897 -22.149  0.00  0.00    -0.003 C 
ATOM      6  C   UNL     1      34.588 -19.829 -21.652  0.00  0.00    -0.003 C 
ENDROOT
BRANCH   1   7
ATOM      7  S   UNL     1      34.262 -17.775 -25.097  0.00  0.00    +0.077 S 
ATOM      8  O   UNL     1      33.215 -18.640 -25.605  0.00  0.00    -0.150 OA
ATOM      9  O   UNL     1      35.397 -17.425 -25.928  0.00  0.00    -0.150 OA
BRANCH   7  12
ATOM     10  O   UNL     1      35.479 -15.340 -23.600  0.00  0.00    -0.251 OA
ATOM     11  N   UNL     1      33.439 -14.272 -23.398  0.00  0.00    -0.289 N 
ATOM     12  N   UNL     1      33.560 -16.347 -24.470  0.00  0.00    -0.169 N 
ATOM     13  C   UNL     1      34.268 -15.304 -23.794  0.00  0.00    +0.319 C 
ATOM     14  H   UNL     1      32.478 -14.336 -23.601  0.00  0.00    +0.151 HD
ATOM     15  H   UNL     1      32.589 -16.234 -24.586  0.00  0.00    +0.178 HD
BRANCH  11  16
ATOM     16  C   UNL     1      33.921 -13.100 -22.700  0.00  0.00    +0.073 C 
ATOM     17  C   UNL     1      33.788 -13.270 -21.183  0.00  0.00    +0.020 C 
ATOM     18  C   UNL     1      33.203 -11.836 -23.183  0.00  0.00    +0.020 C 
ATOM     19  C   UNL     1      32.336 -13.203 -20.713  0.00  0.00    +0.002 C 
ATOM     20  C   UNL     1      31.751 -11.772 -22.709  0.00  0.00    +0.002 C 
ATOM     21  C   UNL     1      31.645 -11.931 -21.195  0.00  0.00    +0.000 C 
ENDBRANCH  11  16
ENDBRANCH   7  12
ENDBRANCH   1   7
BRANCH   2  22
ATOM     22  C   UNL     1      36.480 -20.267 -20.077  0.00  0.00    +0.048 C 
BRANCH  22  23
ATOM     23  C   UNL     1      36.156 -21.761 -19.939  0.00  0.00    +0.094 C 
BRANCH  23  25
ATOM     24  O   UNL     1      33.903 -23.523 -19.699  0.00  0.00    -0.270 OA
ATOM     25  N   UNL     1      35.417 -22.050 -18.740  0.00  0.00    -0.300 N 
ATOM     26  C   UNL     1      34.335 -22.921 -18.719  0.00  0.00    +0.249 C 
ATOM     27  H   UNL     1      35.688 -21.614 -17.900  0.00  0.00    +0.150 HD
BRANCH  26  29
ATOM     28 CL   UNL     1      29.929 -22.894 -16.035  0.00  0.00    -0.082 Cl
ATOM     29  C   UNL     1      33.660 -23.093 -17.407  0.00  0.00    +0.088 C 
ATOM     30  C   UNL     1      34.404 -23.405 -16.288  0.00  0.00    +0.143 C 
ATOM     31  C   UNL     1      32.289 -22.931 -17.355  0.00  0.00    +0.019 C 
ATOM     32  C   UNL     1      33.752 -23.563 -15.065  0.00  0.00    +0.038 C 
ATOM     33  C   UNL     1      31.637 -23.089 -16.132  0.00  0.00    +0.058 C 
ATOM     34  C   UNL     1      32.368 -23.404 -14.987  0.00  0.00    +0.015 C 
BRANCH  30  35
ATOM     35  O   UNL     1      35.757 -23.564 -16.343  0.00  0.00    -0.471 OA
ATOM     36  C   UNL     1      36.385 -24.158 -15.208  0.00  0.00    +0.252 C 
ENDBRANCH  30  35
ENDBRANCH  26  29
ENDBRANCH  23  25
ENDBRANCH  22  23
ENDBRANCH   2  22
TORSDOF 8
ENDMDL
MODEL 9
REMARK VINA RESULT:     -11.8      3.090      4.799
REMARK  Name = 3488
REMARK  8 active torsions:
REMARK  status: ('A' for Active; 'I' for Inactive)
REMARK    1  A    between atoms: C_1  and  S_7
REMARK    2  A    between atoms: C_2  and  C_22
REMARK    3  A    between atoms: S_7  and  N_12
REMARK    4  A    between atoms: N_11  and  C_16
REMARK    5  A    between atoms: C_22  and  C_23
REMARK    6  A    between atoms: C_23  and  N_25
REMARK    7  A    between atoms: C_26  and  C_29
REMARK    8  A    between atoms: C_30  and  O_35
REMARK                            x       y       z     vdW  Elec       q    Type
REMARK                         _______ _______ _______ _____ _____    ______ ____
ROOT
ATOM      1  C   UNL     1      35.182 -22.442 -17.641  0.00  0.00    +0.125 C 
ATOM      2  C   UNL     1      35.165 -21.082 -20.053  0.00  0.00    -0.020 C 
ATOM      3  C   UNL     1      33.999 -22.343 -18.353  0.00  0.00    +0.020 C 
ATOM      4  C   UNL     1      36.357 -21.878 -18.106  0.00  0.00    +0.020 C 
ATOM      5  C   UNL     1      33.990 -21.658 -19.568  0.00  0.00    -0.003 C 
ATOM      6  C   UNL     1      36.349 -21.193 -19.322  0.00  0.00    -0.003 C 
ENDROOT
BRANCH   1   7
ATOM      7  S   UNL     1      35.192 -23.310 -16.101  0.00  0.00    +0.077 S 
ATOM      8  O   UNL     1      35.286 -22.333 -15.034  0.00  0.00    -0.150 OA
ATOM      9  O   UNL     1      36.179 -24.365 -16.221  0.00  0.00    -0.150 OA
BRANCH   7  12
ATOM     10  O   UNL     1      32.600 -22.590 -14.548  0.00  0.00    -0.251 OA
ATOM     11  N   UNL     1      31.381 -24.294 -15.524  0.00  0.00    -0.289 N 
ATOM     12  N   UNL     1      33.627 -23.998 -16.102  0.00  0.00    -0.169 N 
ATOM     13  C   UNL     1      32.522 -23.545 -15.315  0.00  0.00    +0.319 C 
ATOM     14  H   UNL     1      31.419 -25.043 -16.161  0.00  0.00    +0.151 HD
ATOM     15  H   UNL     1      33.475 -24.770 -16.695  0.00  0.00    +0.178 HD
BRANCH  11  16
ATOM     16  C   UNL     1      30.131 -24.027 -14.846  0.00  0.00    +0.073 C 
ATOM     17  C   UNL     1      29.077 -25.083 -15.199  0.00  0.00    +0.020 C 
ATOM     18  C   UNL     1      29.627 -22.615 -15.156  0.00  0.00    +0.020 C 
ATOM     19  C   UNL     1      28.566 -24.942 -16.632  0.00  0.00    +0.002 C 
ATOM     20  C   UNL     1      29.114 -22.478 -16.590  0.00  0.00    +0.002 C 
ATOM     21  C   UNL     1      28.059 -23.531 -16.914  0.00  0.00    +0.000 C 
ENDBRANCH  11  16
ENDBRANCH   7  12
ENDBRANCH   1   7
BRANCH   2  22
ATOM     22  C   UNL     1      35.156 -20.350 -21.352  0.00  0.00    +0.048 C 
BRANCH  22  23
ATOM     23  C   UNL     1      35.992 -19.063 -21.335  0.00  0.00    +0.094 C 
BRANCH  23  25
ATOM     24  O   UNL     1      35.383 -16.551 -20.086  0.00  0.00    -0.270 OA
ATOM     25  N   UNL     1      35.299 -17.954 -21.931  0.00  0.00    -0.300 N 
ATOM     26  C   UNL     1      35.047 -16.771 -21.247  0.00  0.00    +0.249 C 
ATOM     27  H   UNL     1      34.988 -18.035 -22.863  0.00  0.00    +0.150 HD
BRANCH  26  29
ATOM     28 CL   UNL     1      31.960 -12.642 -21.075  0.00  0.00    -0.082 Cl
ATOM     29  C   UNL     1      34.295 -15.730 -21.995  0.00  0.00    +0.088 C 
ATOM     30  C   UNL     1      34.329 -15.717 -23.374  0.00  0.00    +0.143 C 
ATOM     31  C   UNL     1      33.577 -14.801 -21.268  0.00  0.00    +0.019 C 
ATOM     32  C   UNL     1      33.616 -14.732 -24.058  0.00  0.00    +0.038 C 
ATOM     33  C   UNL     1      32.865 -13.815 -21.952  0.00  0.00    +0.058 C 
ATOM     34  C   UNL     1      32.884 -13.781 -23.346  0.00  0.00    +0.015 C 
BRANCH  30  35
ATOM     35  O   UNL     1      35.039 -16.636 -24.087  0.00  0.00    -0.471 OA
ATOM     36  C   UNL     1      34.891 -16.609 -25.505  0.00  0.00    +0.252 C 
ENDBRANCH  30  35
ENDBRANCH  26  29
ENDBRANCH  23  25
ENDBRANCH  22  23
ENDBRANCH   2  22
TORSDOF 8
ENDMDL
