MODEL 1
REMARK VINA RESULT:     -12.2      0.000      0.000
REMARK  Name = 6323454
REMARK  1 active torsions:
REMARK  status: ('A' for Active; 'I' for Inactive)
REMARK    1  A    between atoms: C_18  and  O_22
REMARK                            x       y       z     vdW  Elec       q    Type
REMARK                         _______ _______ _______ _____ _____    ______ ____
ROOT
ATOM      1  O   UNL     1      34.497 -24.639 -13.587  0.00  0.00    -0.350 OA
ATOM      2  O   UNL     1      37.556 -22.891 -13.776  0.00  0.00    -0.445 OA
ATOM      3  O   UNL     1      37.937 -22.420 -16.500  0.00  0.00    -0.287 OA
ATOM      4  O   UNL     1      38.449 -22.808 -11.652  0.00  0.00    -0.250 OA
ATOM      5  O   UNL     1      32.800 -23.558 -17.354  0.00  0.00    -0.287 OA
ATOM      6  C   UNL     1      35.481 -23.684 -13.252  0.00  0.00    +0.171 C 
ATOM      7  C   UNL     1      36.525 -23.692 -14.341  0.00  0.00    +0.221 C 
ATOM      8  C   UNL     1      35.894 -23.233 -15.620  0.00  0.00    +0.060 C 
ATOM      9  C   UNL     1      33.739 -24.217 -14.753  0.00  0.00    +0.141 C 
ATOM     10  C   UNL     1      34.589 -23.506 -15.815  0.00  0.00    +0.046 C 
ATOM     11  C   UNL     1      36.349 -23.975 -12.053  0.00  0.00    +0.143 C 
ATOM     12  C   UNL     1      37.572 -23.166 -12.422  0.00  0.00    +0.320 C 
ATOM     13  C   UNL     1      36.733 -22.578 -16.652  0.00  0.00    +0.195 C 
ATOM     14  C   UNL     1      33.939 -23.177 -17.115  0.00  0.00    +0.197 C 
ATOM     15  C   UNL     1      32.567 -23.365 -14.257  0.00  0.00    +0.037 C 
ATOM     16  C   UNL     1      36.063 -22.120 -17.883  0.00  0.00    +0.045 C 
ATOM     17  C   UNL     1      34.717 -22.409 -18.105  0.00  0.00    +0.075 C 
ATOM     18  C   UNL     1      34.098 -21.976 -19.284  0.00  0.00    +0.137 C 
ATOM     19  C   UNL     1      36.792 -21.401 -18.837  0.00  0.00    +0.003 C 
ATOM     20  C   UNL     1      34.825 -21.256 -20.233  0.00  0.00    +0.037 C 
ATOM     21  C   UNL     1      36.170 -20.970 -20.010  0.00  0.00    +0.003 C 
ENDROOT
BRANCH  18  22
ATOM     22  O   UNL     1      32.785 -22.218 -19.560  0.00  0.00    -0.505 OA
ATOM     23  H   UNL     1      32.364 -21.765 -20.265  0.00  0.00    +0.292 HD
ENDBRANCH  18  22
TORSDOF 1
ENDMDL
MODEL 2
REMARK VINA RESULT:     -11.3      2.044      5.759
REMARK  Name = 6323454
REMARK  1 active torsions:
REMARK  status: ('A' for Active; 'I' for Inactive)
REMARK    1  A    between atoms: C_18  and  O_22
REMARK                            x       y       z     vdW  Elec       q    Type
REMARK                         _______ _______ _______ _____ _____    ______ ____
ROOT
ATOM      1  O   UNL     1      32.115 -23.070 -15.056  0.00  0.00    -0.350 OA
ATOM      2  O   UNL     1      34.357 -22.954 -17.777  0.00  0.00    -0.445 OA
ATOM      3  O   UNL     1      36.888 -23.169 -16.621  0.00  0.00    -0.287 OA
ATOM      4  O   UNL     1      33.128 -22.544 -19.684  0.00  0.00    -0.250 OA
ATOM      5  O   UNL     1      34.617 -24.902 -12.119  0.00  0.00    -0.287 OA
ATOM      6  C   UNL     1      32.639 -23.365 -16.334  0.00  0.00    +0.171 C 
ATOM      7  C   UNL     1      34.042 -22.816 -16.397  0.00  0.00    +0.221 C 
ATOM      8  C   UNL     1      34.892 -23.545 -15.402  0.00  0.00    +0.060 C 
ATOM      9  C   UNL     1      32.798 -23.833 -14.026  0.00  0.00    +0.141 C 
ATOM     10  C   UNL     1      34.303 -23.999 -14.278  0.00  0.00    +0.046 C 
ATOM     11  C   UNL     1      32.025 -22.655 -17.514  0.00  0.00    +0.143 C 
ATOM     12  C   UNL     1      33.192 -22.704 -18.475  0.00  0.00    +0.320 C 
ATOM     13  C   UNL     1      36.350 -23.668 -15.640  0.00  0.00    +0.195 C 
ATOM     14  C   UNL     1      35.121 -24.627 -13.202  0.00  0.00    +0.197 C 
ATOM     15  C   UNL     1      32.066 -25.171 -13.881  0.00  0.00    +0.037 C 
ATOM     16  C   UNL     1      37.142 -24.417 -14.647  0.00  0.00    +0.045 C 
ATOM     17  C   UNL     1      36.548 -24.877 -13.473  0.00  0.00    +0.075 C 
ATOM     18  C   UNL     1      37.316 -25.578 -12.533  0.00  0.00    +0.137 C 
ATOM     19  C   UNL     1      38.501 -24.652 -14.884  0.00  0.00    +0.003 C 
ATOM     20  C   UNL     1      38.670 -25.814 -12.773  0.00  0.00    +0.037 C 
ATOM     21  C   UNL     1      39.262 -25.351 -13.946  0.00  0.00    +0.003 C 
ENDROOT
BRANCH  18  22
ATOM     22  O   UNL     1      36.797 -26.062 -11.369  0.00  0.00    -0.505 OA
ATOM     23  H   UNL     1      35.978 -25.737 -11.050  0.00  0.00    +0.292 HD
ENDBRANCH  18  22
TORSDOF 1
ENDMDL
MODEL 3
REMARK VINA RESULT:     -11.1      7.865     11.427
REMARK  Name = 6323454
REMARK  1 active torsions:
REMARK  status: ('A' for Active; 'I' for Inactive)
REMARK    1  A    between atoms: C_18  and  O_22
REMARK                            x       y       z     vdW  Elec       q    Type
REMARK                         _______ _______ _______ _____ _____    ______ ____
ROOT
ATOM      1  O   UNL     1      35.271 -16.722 -25.126  0.00  0.00    -0.350 OA
ATOM      2  O   UNL     1      34.632 -17.836 -21.841  0.00  0.00    -0.445 OA
ATOM      3  O   UNL     1      34.171 -15.504 -20.378  0.00  0.00    -0.287 OA
ATOM      4  O   UNL     1      34.964 -20.117 -21.795  0.00  0.00    -0.250 OA
ATOM      5  O   UNL     1      33.488 -12.845 -24.947  0.00  0.00    -0.287 OA
ATOM      6  C   UNL     1      34.716 -17.514 -24.098  0.00  0.00    +0.171 C 
ATOM      7  C   UNL     1      35.014 -16.840 -22.782  0.00  0.00    +0.221 C 
ATOM      8  C   UNL     1      34.304 -15.522 -22.742  0.00  0.00    +0.060 C 
ATOM      9  C   UNL     1      34.560 -15.461 -25.251  0.00  0.00    +0.141 C 
ATOM     10  C   UNL     1      34.116 -14.869 -23.906  0.00  0.00    +0.046 C 
ATOM     11  C   UNL     1      35.343 -18.864 -23.849  0.00  0.00    +0.143 C 
ATOM     12  C   UNL     1      34.968 -19.055 -22.397  0.00  0.00    +0.320 C 
ATOM     13  C   UNL     1      33.911 -14.944 -21.435  0.00  0.00    +0.195 C 
ATOM     14  C   UNL     1      33.521 -13.502 -23.914  0.00  0.00    +0.197 C 
ATOM     15  C   UNL     1      33.394 -15.684 -26.220  0.00  0.00    +0.037 C 
ATOM     16  C   UNL     1      33.191 -13.657 -21.447  0.00  0.00    +0.045 C 
ATOM     17  C   UNL     1      33.005 -12.964 -22.642  0.00  0.00    +0.075 C 
ATOM     18  C   UNL     1      32.328 -11.737 -22.637  0.00  0.00    +0.137 C 
ATOM     19  C   UNL     1      32.706 -13.127 -20.246  0.00  0.00    +0.003 C 
ATOM     20  C   UNL     1      31.842 -11.212 -21.439  0.00  0.00    +0.037 C 
ATOM     21  C   UNL     1      32.031 -11.905 -20.246  0.00  0.00    +0.003 C 
ENDROOT
BRANCH  18  22
ATOM     22  O   UNL     1      32.105 -11.012 -23.769  0.00  0.00    -0.505 OA
ATOM     23  H   UNL     1      32.651 -10.276 -23.969  0.00  0.00    +0.292 HD
ENDBRANCH  18  22
TORSDOF 1
ENDMDL
MODEL 4
REMARK VINA RESULT:     -10.9      1.854      6.119
REMARK  Name = 6323454
REMARK  1 active torsions:
REMARK  status: ('A' for Active; 'I' for Inactive)
REMARK    1  A    between atoms: C_18  and  O_22
REMARK                            x       y       z     vdW  Elec       q    Type
REMARK                         _______ _______ _______ _____ _____    ______ ____
ROOT
ATOM      1  O   UNL     1      37.145 -22.405 -18.097  0.00  0.00    -0.350 OA
ATOM      2  O   UNL     1      34.170 -21.296 -19.636  0.00  0.00    -0.445 OA
ATOM      3  O   UNL     1      32.143 -22.766 -18.405  0.00  0.00    -0.287 OA
ATOM      4  O   UNL     1      34.754 -19.841 -21.327  0.00  0.00    -0.250 OA
ATOM      5  O   UNL     1      35.537 -24.066 -14.505  0.00  0.00    -0.287 OA
ATOM      6  C   UNL     1      36.205 -21.492 -18.624  0.00  0.00    +0.171 C 
ATOM      7  C   UNL     1      34.929 -22.246 -18.898  0.00  0.00    +0.221 C 
ATOM      8  C   UNL     1      34.370 -22.740 -17.599  0.00  0.00    +0.060 C 
ATOM      9  C   UNL     1      36.750 -22.848 -16.771  0.00  0.00    +0.141 C 
ATOM     10  C   UNL     1      35.236 -23.044 -16.612  0.00  0.00    +0.046 C 
ATOM     11  C   UNL     1      36.480 -20.931 -19.997  0.00  0.00    +0.143 C 
ATOM     12  C   UNL     1      35.067 -20.601 -20.424  0.00  0.00    +0.320 C 
ATOM     13  C   UNL     1      32.909 -22.957 -17.469  0.00  0.00    +0.195 C 
ATOM     14  C   UNL     1      34.745 -23.649 -15.342  0.00  0.00    +0.197 C 
ATOM     15  C   UNL     1      37.334 -21.855 -15.760  0.00  0.00    +0.037 C 
ATOM     16  C   UNL     1      32.403 -23.419 -16.164  0.00  0.00    +0.045 C 
ATOM     17  C   UNL     1      33.288 -23.752 -15.140  0.00  0.00    +0.075 C 
ATOM     18  C   UNL     1      32.792 -24.199 -13.909  0.00  0.00    +0.137 C 
ATOM     19  C   UNL     1      31.022 -23.534 -15.962  0.00  0.00    +0.003 C 
ATOM     20  C   UNL     1      31.416 -24.310 -13.708  0.00  0.00    +0.037 C 
ATOM     21  C   UNL     1      30.533 -23.979 -14.733  0.00  0.00    +0.003 C 
ENDROOT
BRANCH  18  22
ATOM     22  O   UNL     1      33.601 -24.534 -12.864  0.00  0.00    -0.505 OA
ATOM     23  H   UNL     1      33.338 -24.338 -11.986  0.00  0.00    +0.292 HD
ENDBRANCH  18  22
TORSDOF 1
ENDMDL
MODEL 5
REMARK VINA RESULT:     -10.6      7.416     11.740
REMARK  Name = 6323454
REMARK  1 active torsions:
REMARK  status: ('A' for Active; 'I' for Inactive)
REMARK    1  A    between atoms: C_18  and  O_22
REMARK                            x       y       z     vdW  Elec       q    Type
REMARK                         _______ _______ _______ _____ _____    ______ ____
ROOT
ATOM      1  O   UNL     1      34.202 -12.991 -23.129  0.00  0.00    -0.350 OA
ATOM      2  O   UNL     1      33.717 -14.497 -26.282  0.00  0.00    -0.445 OA
ATOM      3  O   UNL     1      34.986 -16.975 -26.088  0.00  0.00    -0.287 OA
ATOM      4  O   UNL     1      32.677 -12.955 -27.644  0.00  0.00    -0.250 OA
ATOM      5  O   UNL     1      35.053 -16.457 -20.782  0.00  0.00    -0.287 OA
ATOM      6  C   UNL     1      33.514 -13.400 -24.292  0.00  0.00    +0.171 C 
ATOM      7  C   UNL     1      34.402 -14.359 -25.043  0.00  0.00    +0.221 C 
ATOM      8  C   UNL     1      34.605 -15.586 -24.207  0.00  0.00    +0.060 C 
ATOM      9  C   UNL     1      34.338 -14.093 -22.192  0.00  0.00    +0.141 C 
ATOM     10  C   UNL     1      34.597 -15.447 -22.867  0.00  0.00    +0.046 C 
ATOM     11  C   UNL     1      33.285 -12.361 -25.361  0.00  0.00    +0.143 C 
ATOM     12  C   UNL     1      33.170 -13.262 -26.570  0.00  0.00    +0.320 C 
ATOM     13  C   UNL     1      34.889 -16.881 -24.871  0.00  0.00    +0.195 C 
ATOM     14  C   UNL     1      34.910 -16.610 -21.989  0.00  0.00    +0.197 C 
ATOM     15  C   UNL     1      33.090 -14.099 -21.302  0.00  0.00    +0.037 C 
ATOM     16  C   UNL     1      35.055 -18.066 -24.009  0.00  0.00    +0.045 C 
ATOM     17  C   UNL     1      35.065 -17.934 -22.621  0.00  0.00    +0.075 C 
ATOM     18  C   UNL     1      35.235 -19.067 -21.815  0.00  0.00    +0.137 C 
ATOM     19  C   UNL     1      35.217 -19.327 -24.594  0.00  0.00    +0.003 C 
ATOM     20  C   UNL     1      35.393 -20.324 -22.400  0.00  0.00    +0.037 C 
ATOM     21  C   UNL     1      35.384 -20.453 -23.787  0.00  0.00    +0.003 C 
ENDROOT
BRANCH  18  22
ATOM     22  O   UNL     1      35.247 -19.010 -20.453  0.00  0.00    -0.505 OA
ATOM     23  H   UNL     1      35.962 -18.598 -20.008  0.00  0.00    +0.292 HD
ENDBRANCH  18  22
TORSDOF 1
ENDMDL
MODEL 6
REMARK VINA RESULT:     -10.5      1.826      4.540
REMARK  Name = 6323454
REMARK  1 active torsions:
REMARK  status: ('A' for Active; 'I' for Inactive)
REMARK    1  A    between atoms: C_18  and  O_22
REMARK                            x       y       z     vdW  Elec       q    Type
REMARK                         _______ _______ _______ _____ _____    ______ ____
ROOT
ATOM      1  O   UNL     1      33.090 -24.147 -13.189  0.00  0.00    -0.350 OA
ATOM      2  O   UNL     1      30.709 -24.412 -15.778  0.00  0.00    -0.445 OA
ATOM      3  O   UNL     1      31.658 -22.728 -17.791  0.00  0.00    -0.287 OA
ATOM      4  O   UNL     1      28.978 -25.726 -15.009  0.00  0.00    -0.250 OA
ATOM      5  O   UNL     1      36.427 -22.668 -15.408  0.00  0.00    -0.287 OA
ATOM      6  C   UNL     1      32.199 -24.772 -14.089  0.00  0.00    +0.171 C 
ATOM      7  C   UNL     1      31.765 -23.742 -15.101  0.00  0.00    +0.221 C 
ATOM      8  C   UNL     1      32.958 -23.315 -15.900  0.00  0.00    +0.060 C 
ATOM      9  C   UNL     1      34.340 -23.807 -13.847  0.00  0.00    +0.141 C 
ATOM     10  C   UNL     1      34.162 -23.326 -15.294  0.00  0.00    +0.046 C 
ATOM     11  C   UNL     1      30.856 -25.195 -13.551  0.00  0.00    +0.143 C 
ATOM     12  C   UNL     1      30.050 -25.170 -14.830  0.00  0.00    +0.320 C 
ATOM     13  C   UNL     1      32.770 -22.821 -17.285  0.00  0.00    +0.195 C 
ATOM     14  C   UNL     1      35.364 -22.802 -16.003  0.00  0.00    +0.197 C 
ATOM     15  C   UNL     1      35.268 -25.020 -13.731  0.00  0.00    +0.037 C 
ATOM     16  C   UNL     1      33.976 -22.437 -18.041  0.00  0.00    +0.045 C 
ATOM     17  C   UNL     1      35.225 -22.428 -17.422  0.00  0.00    +0.075 C 
ATOM     18  C   UNL     1      36.360 -22.051 -18.150  0.00  0.00    +0.137 C 
ATOM     19  C   UNL     1      33.857 -22.067 -19.386  0.00  0.00    +0.003 C 
ATOM     20  C   UNL     1      36.240 -21.686 -19.492  0.00  0.00    +0.037 C 
ATOM     21  C   UNL     1      34.991 -21.693 -20.108  0.00  0.00    +0.003 C 
ENDROOT
BRANCH  18  22
ATOM     22  O   UNL     1      37.611 -22.027 -17.610  0.00  0.00    -0.505 OA
ATOM     23  H   UNL     1      37.910 -21.264 -17.155  0.00  0.00    +0.292 HD
ENDBRANCH  18  22
TORSDOF 1
ENDMDL
MODEL 7
REMARK VINA RESULT:     -10.2      2.061      5.182
REMARK  Name = 6323454
REMARK  1 active torsions:
REMARK  status: ('A' for Active; 'I' for Inactive)
REMARK    1  A    between atoms: C_18  and  O_22
REMARK                            x       y       z     vdW  Elec       q    Type
REMARK                         _______ _______ _______ _____ _____    ______ ____
ROOT
ATOM      1  O   UNL     1      36.792 -23.884 -15.055  0.00  0.00    -0.350 OA
ATOM      2  O   UNL     1      35.488 -22.011 -17.744  0.00  0.00    -0.445 OA
ATOM      3  O   UNL     1      32.864 -22.917 -18.034  0.00  0.00    -0.287 OA
ATOM      4  O   UNL     1      37.202 -20.733 -18.607  0.00  0.00    -0.250 OA
ATOM      5  O   UNL     1      33.154 -25.122 -13.189  0.00  0.00    -0.287 OA
ATOM      6  C   UNL     1      36.521 -22.749 -15.848  0.00  0.00    +0.171 C 
ATOM      7  C   UNL     1      35.488 -23.138 -16.876  0.00  0.00    +0.221 C 
ATOM      8  C   UNL     1      34.213 -23.488 -16.173  0.00  0.00    +0.060 C 
ATOM      9  C   UNL     1      35.645 -24.230 -14.233  0.00  0.00    +0.141 C 
ATOM     10  C   UNL     1      34.297 -24.024 -14.939  0.00  0.00    +0.046 C 
ATOM     11  C   UNL     1      37.622 -22.258 -16.754  0.00  0.00    +0.143 C 
ATOM     12  C   UNL     1      36.793 -21.563 -17.810  0.00  0.00    +0.320 C 
ATOM     13  C   UNL     1      32.920 -23.317 -16.878  0.00  0.00    +0.195 C 
ATOM     14  C   UNL     1      33.070 -24.499 -14.241  0.00  0.00    +0.197 C 
ATOM     15  C   UNL     1      35.760 -23.441 -12.925  0.00  0.00    +0.037 C 
ATOM     16  C   UNL     1      31.690 -23.650 -16.136  0.00  0.00    +0.045 C 
ATOM     17  C   UNL     1      31.764 -24.219 -14.866  0.00  0.00    +0.075 C 
ATOM     18  C   UNL     1      30.587 -24.541 -14.178  0.00  0.00    +0.137 C 
ATOM     19  C   UNL     1      30.443 -23.402 -16.722  0.00  0.00    +0.003 C 
ATOM     20  C   UNL     1      29.345 -24.290 -14.763  0.00  0.00    +0.037 C 
ATOM     21  C   UNL     1      29.273 -23.722 -16.032  0.00  0.00    +0.003 C 
ENDROOT
BRANCH  18  22
ATOM     22  O   UNL     1      30.587 -25.092 -12.931  0.00  0.00    -0.505 OA
ATOM     23  H   UNL     1      29.811 -25.060 -12.406  0.00  0.00    +0.292 HD
ENDBRANCH  18  22
TORSDOF 1
ENDMDL
MODEL 8
REMARK VINA RESULT:      -9.9     12.104     15.131
REMARK  Name = 6323454
REMARK  1 active torsions:
REMARK  status: ('A' for Active; 'I' for Inactive)
REMARK    1  A    between atoms: C_18  and  O_22
REMARK                            x       y       z     vdW  Elec       q    Type
REMARK                         _______ _______ _______ _____ _____    ______ ____
ROOT
ATOM      1  O   UNL     1      32.936  -7.247 -23.242  0.00  0.00    -0.350 OA
ATOM      2  O   UNL     1      31.909  -8.003 -19.953  0.00  0.00    -0.445 OA
ATOM      3  O   UNL     1      31.253 -10.715 -20.019  0.00  0.00    -0.287 OA
ATOM      4  O   UNL     1      31.886  -6.034 -18.753  0.00  0.00    -0.250 OA
ATOM      5  O   UNL     1      33.874 -11.173 -24.639  0.00  0.00    -0.287 OA
ATOM      6  C   UNL     1      32.969  -7.258 -21.830  0.00  0.00    +0.171 C 
ATOM      7  C   UNL     1      31.952  -8.262 -21.351  0.00  0.00    +0.221 C 
ATOM      8  C   UNL     1      32.370  -9.628 -21.803  0.00  0.00    +0.060 C 
ATOM      9  C   UNL     1      33.447  -8.495 -23.783  0.00  0.00    +0.141 C 
ATOM     10  C   UNL     1      33.052  -9.730 -22.961  0.00  0.00    +0.046 C 
ATOM     11  C   UNL     1      32.477  -6.024 -21.117  0.00  0.00    +0.143 C 
ATOM     12  C   UNL     1      32.064  -6.639 -19.799  0.00  0.00    +0.320 C 
ATOM     13  C   UNL     1      31.952 -10.815 -21.019  0.00  0.00    +0.195 C 
ATOM     14  C   UNL     1      33.390 -11.070 -23.518  0.00  0.00    +0.197 C 
ATOM     15  C   UNL     1      34.964  -8.343 -23.940  0.00  0.00    +0.037 C 
ATOM     16  C   UNL     1      32.409 -12.136 -21.489  0.00  0.00    +0.045 C 
ATOM     17  C   UNL     1      33.102 -12.257 -22.692  0.00  0.00    +0.075 C 
ATOM     18  C   UNL     1      33.520 -13.520 -23.131  0.00  0.00    +0.137 C 
ATOM     19  C   UNL     1      32.131 -13.274 -20.722  0.00  0.00    +0.003 C 
ATOM     20  C   UNL     1      33.245 -14.653 -22.364  0.00  0.00    +0.037 C 
ATOM     21  C   UNL     1      32.551 -14.530 -21.162  0.00  0.00    +0.003 C 
ENDROOT
BRANCH  18  22
ATOM     22  O   UNL     1      34.207 -13.709 -24.293  0.00  0.00    -0.505 OA
ATOM     23  H   UNL     1      35.109 -13.961 -24.268  0.00  0.00    +0.292 HD
ENDBRANCH  18  22
TORSDOF 1
ENDMDL
MODEL 9
REMARK VINA RESULT:      -9.9      8.879     12.284
REMARK  Name = 6323454
REMARK  1 active torsions:
REMARK  status: ('A' for Active; 'I' for Inactive)
REMARK    1  A    between atoms: C_18  and  O_22
REMARK                            x       y       z     vdW  Elec       q    Type
REMARK                         _______ _______ _______ _____ _____    ______ ____
ROOT
ATOM      1  O   UNL     1      32.170 -10.968 -23.334  0.00  0.00    -0.350 OA
ATOM      2  O   UNL     1      32.154 -11.892 -19.929  0.00  0.00    -0.445 OA
ATOM      3  O   UNL     1      32.640 -14.640 -19.938  0.00  0.00    -0.287 OA
ATOM      4  O   UNL     1      31.563 -10.033 -18.699  0.00  0.00    -0.250 OA
ATOM      5  O   UNL     1      34.330 -14.265 -24.980  0.00  0.00    -0.287 OA
ATOM      6  C   UNL     1      32.462 -10.889 -21.955  0.00  0.00    +0.171 C 
ATOM      7  C   UNL     1      32.040 -12.188 -21.316  0.00  0.00    +0.221 C 
ATOM      8  C   UNL     1      32.880 -13.296 -21.873  0.00  0.00    +0.060 C 
ATOM      9  C   UNL     1      33.030 -11.936 -23.992  0.00  0.00    +0.141 C 
ATOM     10  C   UNL     1      33.321 -13.180 -23.141  0.00  0.00    +0.046 C 
ATOM     11  C   UNL     1      31.656  -9.916 -21.131  0.00  0.00    +0.143 C 
ATOM     12  C   UNL     1      31.773 -10.573 -19.774  0.00  0.00    +0.320 C 
ATOM     13  C   UNL     1      33.125 -14.507 -21.054  0.00  0.00    +0.195 C 
ATOM     14  C   UNL     1      34.060 -14.302 -23.785  0.00  0.00    +0.197 C 
ATOM     15  C   UNL     1      34.301 -11.201 -24.430  0.00  0.00    +0.037 C 
ATOM     16  C   UNL     1      33.979 -15.560 -21.634  0.00  0.00    +0.045 C 
ATOM     17  C   UNL     1      34.428 -15.460 -22.950  0.00  0.00    +0.075 C 
ATOM     18  C   UNL     1      35.230 -16.474 -23.490  0.00  0.00    +0.137 C 
ATOM     19  C   UNL     1      34.326 -16.672 -20.857  0.00  0.00    +0.003 C 
ATOM     20  C   UNL     1      35.578 -17.579 -22.713  0.00  0.00    +0.037 C 
ATOM     21  C   UNL     1      35.127 -17.678 -21.399  0.00  0.00    +0.003 C 
ENDROOT
BRANCH  18  22
ATOM     22  O   UNL     1      35.709 -16.435 -24.766  0.00  0.00    -0.505 OA
ATOM     23  H   UNL     1      35.266 -16.903 -25.447  0.00  0.00    +0.292 HD
ENDBRANCH  18  22
TORSDOF 1
ENDMDL
