MODEL 1
REMARK VINA RESULT:     -13.8      0.000      0.000
REMARK  Name = 11697676
REMARK  7 active torsions:
REMARK  status: ('A' for Active; 'I' for Inactive)
REMARK    1  A    between atoms: N_1  and  C_18
REMARK    2  A    between atoms: N_2  and  C_8
REMARK    3  A    between atoms: C_18  and  C_19
REMARK    4  A    between atoms: C_19  and  C_20
REMARK    5  A    between atoms: C_20  and  C_21
REMARK    6  A    between atoms: C_21  and  O_22
REMARK    7  A    between atoms: O_22  and  C_28
REMARK                            x       y       z     vdW  Elec       q    Type
REMARK                         _______ _______ _______ _____ _____    ______ ____
ROOT
ATOM      1  N   UNL     1      36.125 -20.650 -19.440  0.00  0.00    +0.389 N 
ATOM      2  N   UNL     1      35.454 -19.150 -21.777  0.00  0.00    -0.312 N 
ATOM      3  C   UNL     1      37.181 -20.144 -20.326  0.00  0.00    -0.055 C 
ATOM      4  C   UNL     1      34.934 -20.994 -20.228  0.00  0.00    -0.055 C 
ATOM      5  C   UNL     1      36.717 -18.892 -21.074  0.00  0.00    +0.068 C 
ATOM      6  C   UNL     1      34.396 -19.770 -20.973  0.00  0.00    +0.068 C 
ATOM      7  H   UNL     1      35.878 -19.921 -18.771  0.00  0.00    -0.080 HD
ENDROOT
BRANCH   2   8
ATOM      8  C   UNL     1      35.113 -18.314 -22.846  0.00  0.00    +0.048 C 
ATOM      9  C   UNL     1      34.844 -16.926 -22.682  0.00  0.00    +0.013 C 
ATOM     10  C   UNL     1      35.032 -18.862 -24.144  0.00  0.00    +0.015 C 
ATOM     11  C   UNL     1      34.504 -16.125 -23.797  0.00  0.00    +0.001 C 
ATOM     12  C   UNL     1      34.912 -16.338 -21.409  0.00  0.00    +0.001 C 
ATOM     13  C   UNL     1      34.698 -18.073 -25.242  0.00  0.00    +0.001 C 
ATOM     14  C   UNL     1      34.436 -16.714 -25.071  0.00  0.00    +0.000 C 
ATOM     15  C   UNL     1      34.242 -14.758 -23.607  0.00  0.00    +0.000 C 
ATOM     16  C   UNL     1      34.650 -14.978 -21.238  0.00  0.00    +0.000 C 
ATOM     17  C   UNL     1      34.315 -14.190 -22.335  0.00  0.00    +0.000 C 
ENDBRANCH   2   8
BRANCH   1  18
ATOM     18  C   UNL     1      36.598 -21.814 -18.691  0.00  0.00    -0.077 C 
BRANCH  18  19
ATOM     19  C   UNL     1      36.903 -21.426 -17.245  0.00  0.00    -0.019 C 
BRANCH  19  20
ATOM     20  C   UNL     1      37.772 -22.481 -16.562  0.00  0.00    +0.045 C 
BRANCH  20  21
ATOM     21  C   UNL     1      36.997 -23.246 -15.498  0.00  0.00    +0.208 C 
BRANCH  21  22
ATOM     22  O   UNL     1      36.028 -24.082 -16.115  0.00  0.00    -0.452 OA
BRANCH  22  28
ATOM     23  O   UNL     1      29.333 -22.495 -17.290  0.00  0.00    -0.275 OA
ATOM     24  N   UNL     1      31.515 -23.078 -16.873  0.00  0.00    -0.263 N 
ATOM     25  N   UNL     1      33.791 -23.588 -16.479  0.00  0.00    -0.357 NA
ATOM     26  C   UNL     1      32.188 -23.863 -14.691  0.00  0.00    +0.090 C 
ATOM     27  C   UNL     1      30.752 -23.865 -14.259  0.00  0.00    +0.022 C 
ATOM     28  C   UNL     1      34.750 -24.013 -15.626  0.00  0.00    +0.278 C 
ATOM     29  C   UNL     1      32.528 -23.510 -15.996  0.00  0.00    +0.170 C 
ATOM     30  C   UNL     1      29.965 -22.793 -14.996  0.00  0.00    +0.086 C 
ATOM     31  C   UNL     1      33.205 -24.311 -13.848  0.00  0.00    -0.012 C 
ATOM     32  C   UNL     1      34.511 -24.380 -14.314  0.00  0.00    +0.068 C 
ATOM     33  C   UNL     1      30.216 -22.805 -16.490  0.00  0.00    +0.228 C 
ATOM     34  H   UNL     1      31.747 -22.964 -17.823  0.00  0.00    +0.157 HD
ENDBRANCH  22  28
ENDBRANCH  21  22
ENDBRANCH  20  21
ENDBRANCH  19  20
ENDBRANCH  18  19
ENDBRANCH   1  18
TORSDOF 7
ENDMDL
MODEL 2
REMARK VINA RESULT:     -13.6      2.139      4.367
REMARK  Name = 11697676
REMARK  7 active torsions:
REMARK  status: ('A' for Active; 'I' for Inactive)
REMARK    1  A    between atoms: N_1  and  C_18
REMARK    2  A    between atoms: N_2  and  C_8
REMARK    3  A    between atoms: C_18  and  C_19
REMARK    4  A    between atoms: C_19  and  C_20
REMARK    5  A    between atoms: C_20  and  C_21
REMARK    6  A    between atoms: C_21  and  O_22
REMARK    7  A    between atoms: O_22  and  C_28
REMARK                            x       y       z     vdW  Elec       q    Type
REMARK                         _______ _______ _______ _____ _____    ______ ____
ROOT
ATOM      1  N   UNL     1      34.998 -21.083 -19.411  0.00  0.00    +0.389 N 
ATOM      2  N   UNL     1      34.896 -19.433 -21.741  0.00  0.00    -0.312 N 
ATOM      3  C   UNL     1      36.188 -20.917 -20.256  0.00  0.00    -0.055 C 
ATOM      4  C   UNL     1      33.787 -21.041 -20.240  0.00  0.00    -0.055 C 
ATOM      5  C   UNL     1      36.153 -19.578 -20.996  0.00  0.00    +0.068 C 
ATOM      6  C   UNL     1      33.673 -19.706 -20.980  0.00  0.00    +0.068 C 
ATOM      7  H   UNL     1      34.964 -20.318 -18.738  0.00  0.00    -0.080 HD
ENDROOT
BRANCH   2   8
ATOM      8  C   UNL     1      34.863 -18.525 -22.805  0.00  0.00    +0.048 C 
ATOM      9  C   UNL     1      34.796 -17.117 -22.614  0.00  0.00    +0.013 C 
ATOM     10  C   UNL     1      34.898 -19.019 -24.127  0.00  0.00    +0.015 C 
ATOM     11  C   UNL     1      34.765 -16.242 -23.726  0.00  0.00    +0.001 C 
ATOM     12  C   UNL     1      34.759 -16.580 -21.317  0.00  0.00    +0.001 C 
ATOM     13  C   UNL     1      34.868 -18.159 -25.221  0.00  0.00    +0.001 C 
ATOM     14  C   UNL     1      34.802 -16.780 -25.023  0.00  0.00    +0.000 C 
ATOM     15  C   UNL     1      34.698 -14.857 -23.508  0.00  0.00    +0.000 C 
ATOM     16  C   UNL     1      34.693 -15.200 -21.119  0.00  0.00    +0.000 C 
ATOM     17  C   UNL     1      34.662 -14.340 -22.213  0.00  0.00    +0.000 C 
ENDBRANCH   2   8
BRANCH   1  18
ATOM     18  C   UNL     1      35.068 -22.341 -18.668  0.00  0.00    -0.077 C 
BRANCH  18  19
ATOM     19  C   UNL     1      33.794 -23.156 -18.883  0.00  0.00    -0.019 C 
BRANCH  19  20
ATOM     20  C   UNL     1      33.002 -23.295 -17.585  0.00  0.00    +0.045 C 
BRANCH  20  21
ATOM     21  C   UNL     1      33.863 -22.996 -16.365  0.00  0.00    +0.208 C 
BRANCH  21  22
ATOM     22  O   UNL     1      33.918 -24.138 -15.522  0.00  0.00    -0.452 OA
BRANCH  22  28
ATOM     23  O   UNL     1      40.677 -25.877 -15.661  0.00  0.00    -0.275 OA
ATOM     24  N   UNL     1      38.469 -25.249 -15.574  0.00  0.00    -0.263 N 
ATOM     25  N   UNL     1      36.172 -24.688 -15.536  0.00  0.00    -0.357 NA
ATOM     26  C   UNL     1      37.415 -24.735 -13.463  0.00  0.00    +0.090 C 
ATOM     27  C   UNL     1      38.743 -24.863 -12.779  0.00  0.00    +0.022 C 
ATOM     28  C   UNL     1      35.079 -24.335 -14.822  0.00  0.00    +0.278 C 
ATOM     29  C   UNL     1      37.319 -24.892 -14.846  0.00  0.00    +0.170 C 
ATOM     30  C   UNL     1      39.630 -25.862 -13.505  0.00  0.00    +0.086 C 
ATOM     31  C   UNL     1      36.267 -24.357 -12.766  0.00  0.00    -0.012 C 
ATOM     32  C   UNL     1      35.074 -24.162 -13.450  0.00  0.00    +0.068 C 
ATOM     33  C   UNL     1      39.666 -25.636 -15.002  0.00  0.00    +0.228 C 
ATOM     34  H   UNL     1      38.418 -25.222 -16.557  0.00  0.00    +0.157 HD
ENDBRANCH  22  28
ENDBRANCH  21  22
ENDBRANCH  20  21
ENDBRANCH  19  20
ENDBRANCH  18  19
ENDBRANCH   1  18
TORSDOF 7
ENDMDL
MODEL 3
REMARK VINA RESULT:     -13.4      3.382     10.688
REMARK  Name = 11697676
REMARK  7 active torsions:
REMARK  status: ('A' for Active; 'I' for Inactive)
REMARK    1  A    between atoms: N_1  and  C_18
REMARK    2  A    between atoms: N_2  and  C_8
REMARK    3  A    between atoms: C_18  and  C_19
REMARK    4  A    between atoms: C_19  and  C_20
REMARK    5  A    between atoms: C_20  and  C_21
REMARK    6  A    between atoms: C_21  and  O_22
REMARK    7  A    between atoms: O_22  and  C_28
REMARK                            x       y       z     vdW  Elec       q    Type
REMARK                         _______ _______ _______ _____ _____    ______ ____
ROOT
ATOM      1  N   UNL     1      35.510 -21.627 -18.423  0.00  0.00    +0.389 N 
ATOM      2  N   UNL     1      36.090 -23.143 -16.072  0.00  0.00    -0.312 N 
ATOM      3  C   UNL     1      34.676 -22.780 -18.058  0.00  0.00    -0.055 C 
ATOM      4  C   UNL     1      36.900 -21.869 -18.018  0.00  0.00    -0.055 C 
ATOM      5  C   UNL     1      34.706 -23.023 -16.547  0.00  0.00    +0.068 C 
ATOM      6  C   UNL     1      37.004 -22.082 -16.506  0.00  0.00    +0.068 C 
ATOM      7  H   UNL     1      35.163 -20.802 -17.934  0.00  0.00    -0.080 HD
ENDROOT
BRANCH   2   8
ATOM      8  C   UNL     1      36.313 -23.796 -14.854  0.00  0.00    +0.048 C 
ATOM      9  C   UNL     1      37.540 -24.443 -14.541  0.00  0.00    +0.013 C 
ATOM     10  C   UNL     1      35.280 -23.817 -13.891  0.00  0.00    +0.015 C 
ATOM     11  C   UNL     1      37.713 -25.089 -13.294  0.00  0.00    +0.001 C 
ATOM     12  C   UNL     1      38.595 -24.447 -15.468  0.00  0.00    +0.001 C 
ATOM     13  C   UNL     1      35.450 -24.452 -12.664  0.00  0.00    +0.001 C 
ATOM     14  C   UNL     1      36.658 -25.084 -12.366  0.00  0.00    +0.000 C 
ATOM     15  C   UNL     1      38.934 -25.721 -13.010  0.00  0.00    +0.000 C 
ATOM     16  C   UNL     1      39.802 -25.080 -15.170  0.00  0.00    +0.000 C 
ATOM     17  C   UNL     1      39.972 -25.715 -13.943  0.00  0.00    +0.000 C 
ENDBRANCH   2   8
BRANCH   1  18
ATOM     18  C   UNL     1      35.431 -21.372 -19.860  0.00  0.00    -0.077 C 
BRANCH  18  19
ATOM     19  C   UNL     1      34.023 -20.917 -20.242  0.00  0.00    -0.019 C 
BRANCH  19  20
ATOM     20  C   UNL     1      34.055 -19.578 -20.977  0.00  0.00    +0.045 C 
BRANCH  20  21
ATOM     21  C   UNL     1      35.461 -19.227 -21.445  0.00  0.00    +0.208 C 
BRANCH  21  22
ATOM     22  O   UNL     1      35.790 -17.907 -21.036  0.00  0.00    -0.452 OA
BRANCH  22  28
ATOM     23  O   UNL     1      33.631 -15.103 -27.053  0.00  0.00    -0.275 OA
ATOM     24  N   UNL     1      34.276 -16.013 -25.045  0.00  0.00    -0.263 N 
ATOM     25  N   UNL     1      35.036 -16.960 -23.015  0.00  0.00    -0.357 NA
ATOM     26  C   UNL     1      33.839 -14.860 -22.970  0.00  0.00    +0.090 C 
ATOM     27  C   UNL     1      33.047 -13.832 -23.719  0.00  0.00    +0.022 C 
ATOM     28  C   UNL     1      35.136 -16.882 -21.669  0.00  0.00    +0.278 C 
ATOM     29  C   UNL     1      34.399 -15.944 -23.645  0.00  0.00    +0.170 C 
ATOM     30  C   UNL     1      33.577 -13.667 -25.134  0.00  0.00    +0.086 C 
ATOM     31  C   UNL     1      33.953 -14.825 -21.579  0.00  0.00    -0.012 C 
ATOM     32  C   UNL     1      34.619 -15.845 -20.913  0.00  0.00    +0.068 C 
ATOM     33  C   UNL     1      33.791 -14.991 -25.837  0.00  0.00    +0.228 C 
ATOM     34  H   UNL     1      34.554 -16.846 -25.491  0.00  0.00    +0.157 HD
ENDBRANCH  22  28
ENDBRANCH  21  22
ENDBRANCH  20  21
ENDBRANCH  19  20
ENDBRANCH  18  19
ENDBRANCH   1  18
TORSDOF 7
ENDMDL
MODEL 4
REMARK VINA RESULT:     -13.3      7.348     12.015
REMARK  Name = 11697676
REMARK  7 active torsions:
REMARK  status: ('A' for Active; 'I' for Inactive)
REMARK    1  A    between atoms: N_1  and  C_18
REMARK    2  A    between atoms: N_2  and  C_8
REMARK    3  A    between atoms: C_18  and  C_19
REMARK    4  A    between atoms: C_19  and  C_20
REMARK    5  A    between atoms: C_20  and  C_21
REMARK    6  A    between atoms: C_21  and  O_22
REMARK    7  A    between atoms: O_22  and  C_28
REMARK                            x       y       z     vdW  Elec       q    Type
REMARK                         _______ _______ _______ _____ _____    ______ ____
ROOT
ATOM      1  N   UNL     1      31.867  -8.853 -21.096  0.00  0.00    +0.389 N 
ATOM      2  N   UNL     1      32.141  -6.809 -23.072  0.00  0.00    -0.312 N 
ATOM      3  C   UNL     1      32.926  -7.842 -20.977  0.00  0.00    -0.055 C 
ATOM      4  C   UNL     1      31.616  -9.149 -22.512  0.00  0.00    -0.055 C 
ATOM      5  C   UNL     1      32.526  -6.543 -21.681  0.00  0.00    +0.068 C 
ATOM      6  C   UNL     1      31.174  -7.893 -23.267  0.00  0.00    +0.068 C 
ATOM      7  H   UNL     1      31.011  -8.484 -20.680  0.00  0.00    -0.080 HD
ENDROOT
BRANCH   2   8
ATOM      8  C   UNL     1      32.182  -5.745 -23.981  0.00  0.00    +0.048 C 
ATOM      9  C   UNL     1      33.267  -5.540 -24.878  0.00  0.00    +0.013 C 
ATOM     10  C   UNL     1      31.106  -4.832 -24.014  0.00  0.00    +0.015 C 
ATOM     11  C   UNL     1      33.259  -4.447 -25.776  0.00  0.00    +0.001 C 
ATOM     12  C   UNL     1      34.360  -6.422 -24.880  0.00  0.00    +0.001 C 
ATOM     13  C   UNL     1      31.097  -3.757 -24.898  0.00  0.00    +0.001 C 
ATOM     14  C   UNL     1      32.165  -3.565 -25.774  0.00  0.00    +0.000 C 
ATOM     15  C   UNL     1      34.343  -4.268 -26.650  0.00  0.00    +0.000 C 
ATOM     16  C   UNL     1      35.429  -6.229 -25.756  0.00  0.00    +0.000 C 
ATOM     17  C   UNL     1      35.420  -5.154 -26.639  0.00  0.00    +0.000 C 
ENDBRANCH   2   8
BRANCH   1  18
ATOM     18  C   UNL     1      32.236 -10.070 -20.374  0.00  0.00    -0.077 C 
BRANCH  18  19
ATOM     19  C   UNL     1      31.367 -11.241 -20.828  0.00  0.00    -0.019 C 
BRANCH  19  20
ATOM     20  C   UNL     1      32.191 -12.519 -20.970  0.00  0.00    +0.045 C 
BRANCH  20  21
ATOM     21  C   UNL     1      32.268 -12.980 -22.420  0.00  0.00    +0.208 C 
BRANCH  21  22
ATOM     22  O   UNL     1      33.627 -13.117 -22.811  0.00  0.00    -0.452 OA
BRANCH  22  28
ATOM     23  O   UNL     1      36.369 -19.132 -20.567  0.00  0.00    -0.275 OA
ATOM     24  N   UNL     1      35.418 -17.190 -21.342  0.00  0.00    -0.263 N 
ATOM     25  N   UNL     1      34.514 -15.138 -22.095  0.00  0.00    -0.357 NA
ATOM     26  C   UNL     1      34.923 -16.909 -23.689  0.00  0.00    +0.090 C 
ATOM     27  C   UNL     1      35.310 -18.336 -23.932  0.00  0.00    +0.022 C 
ATOM     28  C   UNL     1      34.057 -14.382 -23.118  0.00  0.00    +0.278 C 
ATOM     29  C   UNL     1      34.949 -16.384 -22.397  0.00  0.00    +0.170 C 
ATOM     30  C   UNL     1      36.371 -18.785 -22.940  0.00  0.00    +0.086 C 
ATOM     31  C   UNL     1      34.431 -16.100 -24.714  0.00  0.00    -0.012 C 
ATOM     32  C   UNL     1      33.999 -14.811 -24.432  0.00  0.00    +0.068 C 
ATOM     33  C   UNL     1      36.030 -18.417 -21.511  0.00  0.00    +0.228 C 
ATOM     34  H   UNL     1      35.302 -16.858 -20.423  0.00  0.00    +0.157 HD
ENDBRANCH  22  28
ENDBRANCH  21  22
ENDBRANCH  20  21
ENDBRANCH  19  20
ENDBRANCH  18  19
ENDBRANCH   1  18
TORSDOF 7
ENDMDL
MODEL 5
REMARK VINA RESULT:     -13.2      1.707      3.055
REMARK  Name = 11697676
REMARK  7 active torsions:
REMARK  status: ('A' for Active; 'I' for Inactive)
REMARK    1  A    between atoms: N_1  and  C_18
REMARK    2  A    between atoms: N_2  and  C_8
REMARK    3  A    between atoms: C_18  and  C_19
REMARK    4  A    between atoms: C_19  and  C_20
REMARK    5  A    between atoms: C_20  and  C_21
REMARK    6  A    between atoms: C_21  and  O_22
REMARK    7  A    between atoms: O_22  and  C_28
REMARK                            x       y       z     vdW  Elec       q    Type
REMARK                         _______ _______ _______ _____ _____    ______ ____
ROOT
ATOM      1  N   UNL     1      35.552 -18.890 -22.291  0.00  0.00    +0.389 N 
ATOM      2  N   UNL     1      34.471 -16.376 -23.108  0.00  0.00    -0.312 N 
ATOM      3  C   UNL     1      34.637 -18.813 -23.437  0.00  0.00    -0.055 C 
ATOM      4  C   UNL     1      35.189 -17.877 -21.292  0.00  0.00    -0.055 C 
ATOM      5  C   UNL     1      34.701 -17.434 -24.099  0.00  0.00    +0.068 C 
ATOM      6  C   UNL     1      35.271 -16.468 -21.884  0.00  0.00    +0.068 C 
ATOM      7  H   UNL     1      36.502 -18.708 -22.616  0.00  0.00    -0.080 HD
ENDROOT
BRANCH   2   8
ATOM      8  C   UNL     1      34.051 -15.123 -23.570  0.00  0.00    +0.048 C 
ATOM      9  C   UNL     1      33.356 -14.192 -22.748  0.00  0.00    +0.013 C 
ATOM     10  C   UNL     1      34.324 -14.761 -24.907  0.00  0.00    +0.015 C 
ATOM     11  C   UNL     1      32.953 -12.939 -23.266  0.00  0.00    +0.001 C 
ATOM     12  C   UNL     1      33.062 -14.510 -21.412  0.00  0.00    +0.001 C 
ATOM     13  C   UNL     1      33.928 -13.527 -25.417  0.00  0.00    +0.001 C 
ATOM     14  C   UNL     1      33.248 -12.621 -24.602  0.00  0.00    +0.000 C 
ATOM     15  C   UNL     1      32.269 -12.039 -22.433  0.00  0.00    +0.000 C 
ATOM     16  C   UNL     1      32.381 -13.604 -20.598  0.00  0.00    +0.000 C 
ATOM     17  C   UNL     1      31.985 -12.371 -21.108  0.00  0.00    +0.000 C 
ENDBRANCH   2   8
BRANCH   1  18
ATOM     18  C   UNL     1      35.522 -20.227 -21.700  0.00  0.00    -0.077 C 
BRANCH  18  19
ATOM     19  C   UNL     1      36.334 -20.255 -20.406  0.00  0.00    -0.019 C 
BRANCH  19  20
ATOM     20  C   UNL     1      36.222 -21.611 -19.712  0.00  0.00    +0.045 C 
BRANCH  20  21
ATOM     21  C   UNL     1      34.807 -21.875 -19.217  0.00  0.00    +0.208 C 
BRANCH  21  22
ATOM     22  O   UNL     1      34.790 -23.040 -18.405  0.00  0.00    -0.452 OA
BRANCH  22  28
ATOM     23  O   UNL     1      28.025 -22.307 -16.844  0.00  0.00    -0.275 OA
ATOM     24  N   UNL     1      30.251 -22.611 -17.323  0.00  0.00    -0.263 N 
ATOM     25  N   UNL     1      32.545 -22.830 -17.858  0.00  0.00    -0.357 NA
ATOM     26  C   UNL     1      31.807 -23.267 -15.598  0.00  0.00    +0.090 C 
ATOM     27  C   UNL     1      30.663 -23.436 -14.643  0.00  0.00    +0.022 C 
ATOM     28  C   UNL     1      33.803 -23.119 -17.456  0.00  0.00    +0.278 C 
ATOM     29  C   UNL     1      31.569 -22.898 -16.922  0.00  0.00    +0.170 C 
ATOM     30  C   UNL     1      29.530 -22.482 -14.985  0.00  0.00    +0.086 C 
ATOM     31  C   UNL     1      33.118 -23.571 -15.228  0.00  0.00    -0.012 C 
ATOM     32  C   UNL     1      34.139 -23.488 -16.167  0.00  0.00    +0.068 C 
ATOM     33  C   UNL     1      29.180 -22.491 -16.459  0.00  0.00    +0.228 C 
ATOM     34  H   UNL     1      30.080 -22.487 -18.285  0.00  0.00    +0.157 HD
ENDBRANCH  22  28
ENDBRANCH  21  22
ENDBRANCH  20  21
ENDBRANCH  19  20
ENDBRANCH  18  19
ENDBRANCH   1  18
TORSDOF 7
ENDMDL
MODEL 6
REMARK VINA RESULT:     -13.1      3.262     10.667
REMARK  Name = 11697676
REMARK  7 active torsions:
REMARK  status: ('A' for Active; 'I' for Inactive)
REMARK    1  A    between atoms: N_1  and  C_18
REMARK    2  A    between atoms: N_2  and  C_8
REMARK    3  A    between atoms: C_18  and  C_19
REMARK    4  A    between atoms: C_19  and  C_20
REMARK    5  A    between atoms: C_20  and  C_21
REMARK    6  A    between atoms: C_21  and  O_22
REMARK    7  A    between atoms: O_22  and  C_28
REMARK                            x       y       z     vdW  Elec       q    Type
REMARK                         _______ _______ _______ _____ _____    ______ ____
ROOT
ATOM      1  N   UNL     1      34.386 -22.399 -18.048  0.00  0.00    +0.389 N 
ATOM      2  N   UNL     1      35.422 -23.562 -15.654  0.00  0.00    -0.312 N 
ATOM      3  C   UNL     1      33.810 -23.641 -17.517  0.00  0.00    -0.055 C 
ATOM      4  C   UNL     1      35.826 -22.354 -17.761  0.00  0.00    -0.055 C 
ATOM      5  C   UNL     1      34.006 -23.732 -16.001  0.00  0.00    +0.068 C 
ATOM      6  C   UNL     1      36.088 -22.403 -16.254  0.00  0.00    +0.068 C 
ATOM      7  H   UNL     1      33.934 -21.606 -17.593  0.00  0.00    -0.080 HD
ENDROOT
BRANCH   2   8
ATOM      8  C   UNL     1      35.858 -24.049 -14.416  0.00  0.00    +0.048 C 
ATOM      9  C   UNL     1      37.160 -24.585 -14.214  0.00  0.00    +0.013 C 
ATOM     10  C   UNL     1      34.973 -24.011 -13.316  0.00  0.00    +0.015 C 
ATOM     11  C   UNL     1      37.550 -25.064 -12.941  0.00  0.00    +0.001 C 
ATOM     12  C   UNL     1      38.074 -24.643 -15.279  0.00  0.00    +0.001 C 
ATOM     13  C   UNL     1      35.357 -24.481 -12.063  0.00  0.00    +0.001 C 
ATOM     14  C   UNL     1      36.636 -25.004 -11.876  0.00  0.00    +0.000 C 
ATOM     15  C   UNL     1      38.841 -25.587 -12.770  0.00  0.00    +0.000 C 
ATOM     16  C   UNL     1      39.353 -25.166 -15.091  0.00  0.00    +0.000 C 
ATOM     17  C   UNL     1      39.737 -25.638 -13.839  0.00  0.00    +0.000 C 
ENDBRANCH   2   8
BRANCH   1  18
ATOM     18  C   UNL     1      34.146 -22.297 -19.487  0.00  0.00    -0.077 C 
BRANCH  18  19
ATOM     19  C   UNL     1      33.135 -21.190 -19.779  0.00  0.00    -0.019 C 
BRANCH  19  20
ATOM     20  C   UNL     1      33.757 -20.085 -20.630  0.00  0.00    +0.045 C 
BRANCH  20  21
ATOM     21  C   UNL     1      35.246 -20.314 -20.850  0.00  0.00    +0.208 C 
BRANCH  21  22
ATOM     22  O   UNL     1      35.897 -19.072 -21.078  0.00  0.00    -0.452 OA
BRANCH  22  28
ATOM     23  O   UNL     1      34.115 -12.882 -23.769  0.00  0.00    -0.275 OA
ATOM     24  N   UNL     1      34.743 -14.930 -22.940  0.00  0.00    -0.263 N 
ATOM     25  N   UNL     1      35.323 -17.026 -22.010  0.00  0.00    -0.357 NA
ATOM     26  C   UNL     1      34.705 -16.894 -24.343  0.00  0.00    +0.090 C 
ATOM     27  C   UNL     1      34.374 -16.032 -25.524  0.00  0.00    +0.022 C 
ATOM     28  C   UNL     1      35.498 -18.356 -22.177  0.00  0.00    +0.278 C 
ATOM     29  C   UNL     1      34.920 -16.318 -23.091  0.00  0.00    +0.170 C 
ATOM     30  C   UNL     1      33.583 -14.807 -25.094  0.00  0.00    +0.086 C 
ATOM     31  C   UNL     1      34.910 -18.268 -24.476  0.00  0.00    -0.012 C 
ATOM     32  C   UNL     1      35.304 -19.019 -23.375  0.00  0.00    +0.068 C 
ATOM     33  C   UNL     1      34.195 -14.103 -23.901  0.00  0.00    +0.228 C 
ATOM     34  H   UNL     1      35.030 -14.520 -22.092  0.00  0.00    +0.157 HD
ENDBRANCH  22  28
ENDBRANCH  21  22
ENDBRANCH  20  21
ENDBRANCH  19  20
ENDBRANCH  18  19
ENDBRANCH   1  18
TORSDOF 7
ENDMDL
MODEL 7
REMARK VINA RESULT:     -13.0      5.092     10.661
REMARK  Name = 11697676
REMARK  7 active torsions:
REMARK  status: ('A' for Active; 'I' for Inactive)
REMARK    1  A    between atoms: N_1  and  C_18
REMARK    2  A    between atoms: N_2  and  C_8
REMARK    3  A    between atoms: C_18  and  C_19
REMARK    4  A    between atoms: C_19  and  C_20
REMARK    5  A    between atoms: C_20  and  C_21
REMARK    6  A    between atoms: C_21  and  O_22
REMARK    7  A    between atoms: O_22  and  C_28
REMARK                            x       y       z     vdW  Elec       q    Type
REMARK                         _______ _______ _______ _____ _____    ______ ____
ROOT
ATOM      1  N   UNL     1      34.164 -16.691 -24.705  0.00  0.00    +0.389 N 
ATOM      2  N   UNL     1      35.311 -18.340 -22.675  0.00  0.00    -0.312 N 
ATOM      3  C   UNL     1      34.624 -18.049 -25.024  0.00  0.00    -0.055 C 
ATOM      4  C   UNL     1      35.020 -16.104 -23.667  0.00  0.00    -0.055 C 
ATOM      5  C   UNL     1      34.573 -18.949 -23.787  0.00  0.00    +0.068 C 
ATOM      6  C   UNL     1      34.982 -16.941 -22.386  0.00  0.00    +0.068 C 
ATOM      7  H   UNL     1      33.207 -16.741 -24.355  0.00  0.00    -0.080 HD
ENDROOT
BRANCH   2   8
ATOM      8  C   UNL     1      35.755 -19.176 -21.644  0.00  0.00    +0.048 C 
ATOM      9  C   UNL     1      34.881 -20.033 -20.917  0.00  0.00    +0.013 C 
ATOM     10  C   UNL     1      37.125 -19.175 -21.304  0.00  0.00    +0.015 C 
ATOM     11  C   UNL     1      35.382 -20.858 -19.883  0.00  0.00    +0.001 C 
ATOM     12  C   UNL     1      33.511 -20.067 -21.220  0.00  0.00    +0.001 C 
ATOM     13  C   UNL     1      37.618 -19.988 -20.287  0.00  0.00    +0.001 C 
ATOM     14  C   UNL     1      36.754 -20.824 -19.581  0.00  0.00    +0.000 C 
ATOM     15  C   UNL     1      34.498 -21.694 -19.182  0.00  0.00    +0.000 C 
ATOM     16  C   UNL     1      32.646 -20.903 -20.514  0.00  0.00    +0.000 C 
ATOM     17  C   UNL     1      33.139 -21.715 -19.496  0.00  0.00    +0.000 C 
ENDBRANCH   2   8
BRANCH   1  18
ATOM     18  C   UNL     1      34.166 -15.854 -25.905  0.00  0.00    -0.077 C 
BRANCH  18  19
ATOM     19  C   UNL     1      33.003 -14.864 -25.864  0.00  0.00    -0.019 C 
BRANCH  19  20
ATOM     20  C   UNL     1      33.481 -13.439 -26.135  0.00  0.00    +0.045 C 
BRANCH  20  21
ATOM     21  C   UNL     1      33.778 -12.690 -24.842  0.00  0.00    +0.208 C 
BRANCH  21  22
ATOM     22  O   UNL     1      33.148 -13.344 -23.750  0.00  0.00    -0.452 OA
BRANCH  22  28
ATOM     23  O   UNL     1      31.733  -6.912 -21.435  0.00  0.00    -0.275 OA
ATOM     24  N   UNL     1      32.137  -9.051 -22.169  0.00  0.00    -0.263 N 
ATOM     25  N   UNL     1      32.645 -11.223 -22.956  0.00  0.00    -0.357 NA
ATOM     26  C   UNL     1      31.875 -10.936 -20.683  0.00  0.00    +0.090 C 
ATOM     27  C   UNL     1      31.315 -10.021 -19.636  0.00  0.00    +0.022 C 
ATOM     28  C   UNL     1      32.722 -12.551 -22.716  0.00  0.00    +0.278 C 
ATOM     29  C   UNL     1      32.233 -10.435 -21.935  0.00  0.00    +0.170 C 
ATOM     30  C   UNL     1      31.905  -8.626 -19.767  0.00  0.00    +0.086 C 
ATOM     31  C   UNL     1      31.955 -12.314 -20.482  0.00  0.00    -0.012 C 
ATOM     32  C   UNL     1      32.394 -13.140 -21.509  0.00  0.00    +0.068 C 
ATOM     33  C   UNL     1      31.880  -8.110 -21.190  0.00  0.00    +0.228 C 
ATOM     34  H   UNL     1      32.261  -8.731 -23.092  0.00  0.00    +0.157 HD
ENDBRANCH  22  28
ENDBRANCH  21  22
ENDBRANCH  20  21
ENDBRANCH  19  20
ENDBRANCH  18  19
ENDBRANCH   1  18
TORSDOF 7
ENDMDL
MODEL 8
REMARK VINA RESULT:     -13.0      7.303     11.922
REMARK  Name = 11697676
REMARK  7 active torsions:
REMARK  status: ('A' for Active; 'I' for Inactive)
REMARK    1  A    between atoms: N_1  and  C_18
REMARK    2  A    between atoms: N_2  and  C_8
REMARK    3  A    between atoms: C_18  and  C_19
REMARK    4  A    between atoms: C_19  and  C_20
REMARK    5  A    between atoms: C_20  and  C_21
REMARK    6  A    between atoms: C_21  and  O_22
REMARK    7  A    between atoms: O_22  and  C_28
REMARK                            x       y       z     vdW  Elec       q    Type
REMARK                         _______ _______ _______ _____ _____    ______ ____
ROOT
ATOM      1  N   UNL     1      32.341  -9.232 -21.334  0.00  0.00    +0.389 N 
ATOM      2  N   UNL     1      33.077  -7.288 -23.292  0.00  0.00    -0.312 N 
ATOM      3  C   UNL     1      31.551  -9.080 -22.563  0.00  0.00    -0.055 C 
ATOM      4  C   UNL     1      32.880  -7.930 -20.923  0.00  0.00    -0.055 C 
ATOM      5  C   UNL     1      32.411  -8.529 -23.703  0.00  0.00    +0.068 C 
ATOM      6  C   UNL     1      33.783  -7.341 -22.009  0.00  0.00    +0.068 C 
ATOM      7  H   UNL     1      33.117  -9.867 -21.518  0.00  0.00    -0.080 HD
ENDROOT
BRANCH   2   8
ATOM      8  C   UNL     1      33.524  -6.419 -24.295  0.00  0.00    +0.048 C 
ATOM      9  C   UNL     1      32.774  -5.289 -24.725  0.00  0.00    +0.013 C 
ATOM     10  C   UNL     1      34.770  -6.668 -24.910  0.00  0.00    +0.015 C 
ATOM     11  C   UNL     1      33.272  -4.443 -25.743  0.00  0.00    +0.001 C 
ATOM     12  C   UNL     1      31.529  -5.003 -24.142  0.00  0.00    +0.001 C 
ATOM     13  C   UNL     1      35.261  -5.834 -25.911  0.00  0.00    +0.001 C 
ATOM     14  C   UNL     1      34.518  -4.729 -26.326  0.00  0.00    +0.000 C 
ATOM     15  C   UNL     1      32.511  -3.334 -26.149  0.00  0.00    +0.000 C 
ATOM     16  C   UNL     1      30.786  -3.897 -24.557  0.00  0.00    +0.000 C 
ATOM     17  C   UNL     1      31.276  -3.064 -25.559  0.00  0.00    +0.000 C 
ENDBRANCH   2   8
BRANCH   1  18
ATOM     18  C   UNL     1      31.523  -9.809 -20.267  0.00  0.00    -0.077 C 
BRANCH  18  19
ATOM     19  C   UNL     1      31.061 -11.213 -20.653  0.00  0.00    -0.019 C 
BRANCH  19  20
ATOM     20  C   UNL     1      32.243 -12.176 -20.750  0.00  0.00    +0.045 C 
BRANCH  20  21
ATOM     21  C   UNL     1      32.159 -13.046 -21.997  0.00  0.00    +0.208 C 
BRANCH  21  22
ATOM     22  O   UNL     1      33.422 -13.080 -22.647  0.00  0.00    -0.452 OA
BRANCH  22  28
ATOM     23  O   UNL     1      36.321 -19.077 -20.561  0.00  0.00    -0.275 OA
ATOM     24  N   UNL     1      35.321 -17.141 -21.287  0.00  0.00    -0.263 N 
ATOM     25  N   UNL     1      34.363 -15.094 -21.985  0.00  0.00    -0.357 NA
ATOM     26  C   UNL     1      34.884 -16.783 -23.634  0.00  0.00    +0.090 C 
ATOM     27  C   UNL     1      35.330 -18.185 -23.922  0.00  0.00    +0.022 C 
ATOM     28  C   UNL     1      33.908 -14.314 -22.991  0.00  0.00    +0.278 C 
ATOM     29  C   UNL     1      34.853 -16.310 -22.323  0.00  0.00    +0.170 C 
ATOM     30  C   UNL     1      36.378 -18.634 -22.917  0.00  0.00    +0.086 C 
ATOM     31  C   UNL     1      34.392 -15.952 -24.641  0.00  0.00    -0.012 C 
ATOM     32  C   UNL     1      33.903 -14.691 -24.322  0.00  0.00    +0.068 C 
ATOM     33  C   UNL     1      35.983 -18.337 -21.485  0.00  0.00    +0.228 C 
ATOM     34  H   UNL     1      35.167 -16.850 -20.359  0.00  0.00    +0.157 HD
ENDBRANCH  22  28
ENDBRANCH  21  22
ENDBRANCH  20  21
ENDBRANCH  19  20
ENDBRANCH  18  19
ENDBRANCH   1  18
TORSDOF 7
ENDMDL
MODEL 9
REMARK VINA RESULT:     -12.9      8.039     12.664
REMARK  Name = 11697676
REMARK  7 active torsions:
REMARK  status: ('A' for Active; 'I' for Inactive)
REMARK    1  A    between atoms: N_1  and  C_18
REMARK    2  A    between atoms: N_2  and  C_8
REMARK    3  A    between atoms: C_18  and  C_19
REMARK    4  A    between atoms: C_19  and  C_20
REMARK    5  A    between atoms: C_20  and  C_21
REMARK    6  A    between atoms: C_21  and  O_22
REMARK    7  A    between atoms: O_22  and  C_28
REMARK                            x       y       z     vdW  Elec       q    Type
REMARK                         _______ _______ _______ _____ _____    ______ ____
ROOT
ATOM      1  N   UNL     1      31.895  -8.097 -20.995  0.00  0.00    +0.389 N 
ATOM      2  N   UNL     1      32.148  -6.213 -23.127  0.00  0.00    -0.312 N 
ATOM      3  C   UNL     1      32.858  -6.992 -20.899  0.00  0.00    -0.055 C 
ATOM      4  C   UNL     1      31.772  -8.533 -22.392  0.00  0.00    -0.055 C 
ATOM      5  C   UNL     1      32.408  -5.797 -21.744  0.00  0.00    +0.068 C 
ATOM      6  C   UNL     1      31.287  -7.389 -23.285  0.00  0.00    +0.068 C 
ATOM      7  H   UNL     1      30.984  -7.769 -20.672  0.00  0.00    -0.080 HD
ENDROOT
BRANCH   2   8
ATOM      8  C   UNL     1      32.170  -5.230 -24.124  0.00  0.00    +0.048 C 
ATOM      9  C   UNL     1      33.224  -5.120 -25.073  0.00  0.00    +0.013 C 
ATOM     10  C   UNL     1      31.105  -4.306 -24.196  0.00  0.00    +0.015 C 
ATOM     11  C   UNL     1      33.197  -4.107 -26.061  0.00  0.00    +0.001 C 
ATOM     12  C   UNL     1      34.303  -6.017 -25.039  0.00  0.00    +0.001 C 
ATOM     13  C   UNL     1      31.078  -3.309 -25.168  0.00  0.00    +0.001 C 
ATOM     14  C   UNL     1      32.116  -3.210 -26.095  0.00  0.00    +0.000 C 
ATOM     15  C   UNL     1      34.250  -4.021 -26.985  0.00  0.00    +0.000 C 
ATOM     16  C   UNL     1      35.341  -5.917 -25.966  0.00  0.00    +0.000 C 
ATOM     17  C   UNL     1      35.315  -4.921 -26.937  0.00  0.00    +0.000 C 
ENDBRANCH   2   8
BRANCH   1  18
ATOM     18  C   UNL     1      32.307  -9.212 -20.143  0.00  0.00    -0.077 C 
BRANCH  18  19
ATOM     19  C   UNL     1      31.085  -9.994 -19.665  0.00  0.00    -0.019 C 
BRANCH  19  20
ATOM     20  C   UNL     1      30.811 -11.196 -20.567  0.00  0.00    +0.045 C 
BRANCH  20  21
ATOM     21  C   UNL     1      32.099 -11.778 -21.136  0.00  0.00    +0.208 C 
BRANCH  21  22
ATOM     22  O   UNL     1      32.338 -13.060 -20.573  0.00  0.00    -0.452 OA
BRANCH  22  28
ATOM     23  O   UNL     1      33.799 -15.486 -26.953  0.00  0.00    -0.275 OA
ATOM     24  N   UNL     1      33.388 -14.687 -24.839  0.00  0.00    -0.263 N 
ATOM     25  N   UNL     1      32.865 -13.874 -22.680  0.00  0.00    -0.357 NA
ATOM     26  C   UNL     1      34.418 -15.712 -22.911  0.00  0.00    +0.090 C 
ATOM     27  C   UNL     1      35.231 -16.583 -23.820  0.00  0.00    +0.022 C 
ATOM     28  C   UNL     1      33.038 -13.953 -21.342  0.00  0.00    +0.278 C 
ATOM     29  C   UNL     1      33.548 -14.760 -23.443  0.00  0.00    +0.170 C 
ATOM     30  C   UNL     1      34.482 -16.862 -25.113  0.00  0.00    +0.086 C 
ATOM     31  C   UNL     1      34.579 -15.750 -21.525  0.00  0.00    -0.012 C 
ATOM     32  C   UNL     1      33.873 -14.864 -20.722  0.00  0.00    +0.068 C 
ATOM     33  C   UNL     1      33.896 -15.611 -25.732  0.00  0.00    +0.228 C 
ATOM     34  H   UNL     1      32.881 -13.926 -25.205  0.00  0.00    +0.157 HD
ENDBRANCH  22  28
ENDBRANCH  21  22
ENDBRANCH  20  21
ENDBRANCH  19  20
ENDBRANCH  18  19
ENDBRANCH   1  18
TORSDOF 7
ENDMDL
