MODEL 1
REMARK VINA RESULT:     -13.2      0.000      0.000
REMARK  Name = 11978813
REMARK  7 active torsions:
REMARK  status: ('A' for Active; 'I' for Inactive)
REMARK    1  A    between atoms: C_1  and  N_2
REMARK    2  A    between atoms: C_1  and  C_18
REMARK    3  A    between atoms: N_3  and  C_10
REMARK    4  A    between atoms: C_18  and  C_19
REMARK    5  A    between atoms: C_19  and  C_20
REMARK    6  A    between atoms: C_20  and  O_21
REMARK    7  A    between atoms: O_21  and  C_24
REMARK                            x       y       z     vdW  Elec       q    Type
REMARK                         _______ _______ _______ _____ _____    ______ ____
ROOT
ATOM      1  C   UNL     1      36.668 -21.725 -18.796  0.00  0.00    -0.077 C 
ENDROOT
BRANCH   1   2
ATOM      2  N   UNL     1      36.167 -20.564 -19.529  0.00  0.00    +0.389 N 
ATOM      3  N   UNL     1      35.473 -19.041 -21.845  0.00  0.00    -0.312 N 
ATOM      4  C   UNL     1      37.215 -20.009 -20.394  0.00  0.00    -0.055 C 
ATOM      5  C   UNL     1      34.996 -20.929 -20.335  0.00  0.00    -0.055 C 
ATOM      6  C   UNL     1      36.720 -18.758 -21.123  0.00  0.00    +0.068 C 
ATOM      7  C   UNL     1      34.427 -19.709 -21.064  0.00  0.00    +0.068 C 
ATOM      8  H   UNL     1      35.890 -19.855 -18.850  0.00  0.00    -0.080 HD
BRANCH   3  10
ATOM      9  S   UNL     1      34.196 -14.383 -23.346  0.00  0.00    -0.086 S 
ATOM     10  C   UNL     1      35.117 -18.196 -22.902  0.00  0.00    +0.048 C 
ATOM     11  C   UNL     1      34.838 -16.805 -22.708  0.00  0.00    +0.020 C 
ATOM     12  C   UNL     1      35.027 -18.720 -24.210  0.00  0.00    +0.015 C 
ATOM     13  C   UNL     1      34.487 -16.018 -23.810  0.00  0.00    +0.031 C 
ATOM     14  C   UNL     1      34.856 -16.029 -21.501  0.00  0.00    +0.009 C 
ATOM     15  C   UNL     1      34.677 -17.919 -25.288  0.00  0.00    +0.002 C 
ATOM     16  C   UNL     1      34.403 -16.562 -25.106  0.00  0.00    +0.007 C 
ATOM     17  C   UNL     1      34.529 -14.710 -21.708  0.00  0.00    +0.035 C 
ENDBRANCH   3  10
ENDBRANCH   1   2
BRANCH   1  18
ATOM     18  C   UNL     1      36.957 -21.352 -17.343  0.00  0.00    -0.019 C 
BRANCH  18  19
ATOM     19  C   UNL     1      37.748 -22.452 -16.637  0.00  0.00    +0.045 C 
BRANCH  19  20
ATOM     20  C   UNL     1      36.924 -23.124 -15.547  0.00  0.00    +0.205 C 
BRANCH  20  21
ATOM     21  O   UNL     1      35.971 -24.001 -16.134  0.00  0.00    -0.475 OA
BRANCH  21  24
ATOM     22  O   UNL     1      29.154 -22.389 -17.374  0.00  0.00    -0.270 OA
ATOM     23  N   UNL     1      31.364 -22.904 -16.989  0.00  0.00    -0.280 N 
ATOM     24  C   UNL     1      34.677 -23.891 -15.696  0.00  0.00    +0.140 C 
ATOM     25  C   UNL     1      33.691 -23.453 -16.572  0.00  0.00    +0.052 C 
ATOM     26  C   UNL     1      32.375 -23.346 -16.116  0.00  0.00    +0.054 C 
ATOM     27  C   UNL     1      34.368 -24.220 -14.380  0.00  0.00    +0.037 C 
ATOM     28  C   UNL     1      32.048 -23.672 -14.795  0.00  0.00    +0.014 C 
ATOM     29  C   UNL     1      33.051 -24.111 -13.926  0.00  0.00    +0.004 C 
ATOM     30  C   UNL     1      30.659 -23.546 -14.359  0.00  0.00    +0.006 C 
ATOM     31  C   UNL     1      30.042 -22.772 -16.615  0.00  0.00    +0.250 C 
ATOM     32  C   UNL     1      29.714 -23.124 -15.207  0.00  0.00    +0.058 C 
ATOM     33  H   UNL     1      31.613 -22.678 -17.916  0.00  0.00    +0.155 HD
ENDBRANCH  21  24
ENDBRANCH  20  21
ENDBRANCH  19  20
ENDBRANCH  18  19
ENDBRANCH   1  18
TORSDOF 7
ENDMDL
MODEL 2
REMARK VINA RESULT:     -12.8      2.341      4.607
REMARK  Name = 11978813
REMARK  7 active torsions:
REMARK  status: ('A' for Active; 'I' for Inactive)
REMARK    1  A    between atoms: C_1  and  N_2
REMARK    2  A    between atoms: C_1  and  C_18
REMARK    3  A    between atoms: N_3  and  C_10
REMARK    4  A    between atoms: C_18  and  C_19
REMARK    5  A    between atoms: C_19  and  C_20
REMARK    6  A    between atoms: C_20  and  O_21
REMARK    7  A    between atoms: O_21  and  C_24
REMARK                            x       y       z     vdW  Elec       q    Type
REMARK                         _______ _______ _______ _____ _____    ______ ____
ROOT
ATOM      1  C   UNL     1      34.966 -22.408 -18.561  0.00  0.00    -0.077 C 
ENDROOT
BRANCH   1   2
ATOM      2  N   UNL     1      34.934 -21.162 -19.325  0.00  0.00    +0.389 N 
ATOM      3  N   UNL     1      34.857 -19.548 -21.681  0.00  0.00    -0.312 N 
ATOM      4  C   UNL     1      36.112 -21.060 -20.194  0.00  0.00    -0.055 C 
ATOM      5  C   UNL     1      33.710 -21.083 -20.131  0.00  0.00    -0.055 C 
ATOM      6  C   UNL     1      36.120 -19.733 -20.956  0.00  0.00    +0.068 C 
ATOM      7  C   UNL     1      33.637 -19.757 -20.893  0.00  0.00    +0.068 C 
ATOM      8  H   UNL     1      34.944 -20.384 -18.665  0.00  0.00    -0.080 HD
BRANCH   3  10
ATOM      9  S   UNL     1      34.702 -14.743 -23.254  0.00  0.00    -0.086 S 
ATOM     10  C   UNL     1      34.841 -18.658 -22.760  0.00  0.00    +0.048 C 
ATOM     11  C   UNL     1      34.785 -17.238 -22.580  0.00  0.00    +0.020 C 
ATOM     12  C   UNL     1      34.882 -19.163 -24.078  0.00  0.00    +0.015 C 
ATOM     13  C   UNL     1      34.771 -16.405 -23.704  0.00  0.00    +0.031 C 
ATOM     14  C   UNL     1      34.735 -16.472 -21.367  0.00  0.00    +0.009 C 
ATOM     15  C   UNL     1      34.868 -18.317 -25.179  0.00  0.00    +0.002 C 
ATOM     16  C   UNL     1      34.813 -16.932 -25.010  0.00  0.00    +0.007 C 
ATOM     17  C   UNL     1      34.688 -15.117 -21.591  0.00  0.00    +0.035 C 
ENDBRANCH   3  10
ENDBRANCH   1   2
BRANCH   1  18
ATOM     18  C   UNL     1      33.604 -23.100 -18.615  0.00  0.00    -0.019 C 
BRANCH  18  19
ATOM     19  C   UNL     1      33.195 -23.623 -17.240  0.00  0.00    +0.045 C 
BRANCH  19  20
ATOM     20  C   UNL     1      33.996 -22.961 -16.126  0.00  0.00    +0.205 C 
BRANCH  20  21
ATOM     21  O   UNL     1      33.965 -23.775 -14.961  0.00  0.00    -0.475 OA
BRANCH  21  24
ATOM     22  O   UNL     1      40.674 -25.964 -15.867  0.00  0.00    -0.270 OA
ATOM     23  N   UNL     1      38.500 -25.257 -15.592  0.00  0.00    -0.280 N 
ATOM     24  C   UNL     1      35.175 -24.149 -14.436  0.00  0.00    +0.140 C 
ATOM     25  C   UNL     1      36.211 -24.511 -15.288  0.00  0.00    +0.052 C 
ATOM     26  C   UNL     1      37.441 -24.889 -14.743  0.00  0.00    +0.054 C 
ATOM     27  C   UNL     1      35.350 -24.160 -13.056  0.00  0.00    +0.037 C 
ATOM     28  C   UNL     1      37.632 -24.906 -13.357  0.00  0.00    +0.014 C 
ATOM     29  C   UNL     1      36.580 -24.538 -12.513  0.00  0.00    +0.004 C 
ATOM     30  C   UNL     1      38.933 -25.307 -12.828  0.00  0.00    +0.006 C 
ATOM     31  C   UNL     1      39.743 -25.642 -15.131  0.00  0.00    +0.250 C 
ATOM     32  C   UNL     1      39.928 -25.654 -13.655  0.00  0.00    +0.058 C 
ATOM     33  H   UNL     1      38.347 -25.240 -16.565  0.00  0.00    +0.155 HD
ENDBRANCH  21  24
ENDBRANCH  20  21
ENDBRANCH  19  20
ENDBRANCH  18  19
ENDBRANCH   1  18
TORSDOF 7
ENDMDL
MODEL 3
REMARK VINA RESULT:     -12.5      7.413     11.667
REMARK  Name = 11978813
REMARK  7 active torsions:
REMARK  status: ('A' for Active; 'I' for Inactive)
REMARK    1  A    between atoms: C_1  and  N_2
REMARK    2  A    between atoms: C_1  and  C_18
REMARK    3  A    between atoms: N_3  and  C_10
REMARK    4  A    between atoms: C_18  and  C_19
REMARK    5  A    between atoms: C_19  and  C_20
REMARK    6  A    between atoms: C_20  and  O_21
REMARK    7  A    between atoms: O_21  and  C_24
REMARK                            x       y       z     vdW  Elec       q    Type
REMARK                         _______ _______ _______ _____ _____    ______ ____
ROOT
ATOM      1  C   UNL     1      31.812 -10.105 -20.368  0.00  0.00    -0.077 C 
ENDROOT
BRANCH   1   2
ATOM      2  N   UNL     1      31.862  -8.959 -21.274  0.00  0.00    +0.389 N 
ATOM      3  N   UNL     1      32.950  -7.312 -23.339  0.00  0.00    -0.312 N 
ATOM      4  C   UNL     1      33.068  -8.159 -21.028  0.00  0.00    -0.055 C 
ATOM      5  C   UNL     1      31.836  -9.405 -22.672  0.00  0.00    -0.055 C 
ATOM      6  C   UNL     1      33.102  -6.925 -21.931  0.00  0.00    +0.068 C 
ATOM      7  C   UNL     1      31.831  -8.213 -23.632  0.00  0.00    +0.068 C 
ATOM      8  H   UNL     1      31.041  -8.379 -21.099  0.00  0.00    -0.080 HD
BRANCH   3  10
ATOM      9  S   UNL     1      32.039  -3.139 -26.049  0.00  0.00    -0.086 S 
ATOM     10  C   UNL     1      33.396  -6.419 -24.319  0.00  0.00    +0.048 C 
ATOM     11  C   UNL     1      32.624  -5.284 -24.729  0.00  0.00    +0.020 C 
ATOM     12  C   UNL     1      34.649  -6.631 -24.935  0.00  0.00    +0.015 C 
ATOM     13  C   UNL     1      33.130  -4.431 -25.715  0.00  0.00    +0.031 C 
ATOM     14  C   UNL     1      31.337  -4.842 -24.273  0.00  0.00    +0.009 C 
ATOM     15  C   UNL     1      35.131  -5.771 -25.912  0.00  0.00    +0.002 C 
ATOM     16  C   UNL     1      34.383  -4.663 -26.316  0.00  0.00    +0.007 C 
ATOM     17  C   UNL     1      30.909  -3.699 -24.903  0.00  0.00    +0.035 C 
ENDBRANCH   3  10
ENDBRANCH   1   2
BRANCH   1  18
ATOM     18  C   UNL     1      31.205 -11.316 -21.075  0.00  0.00    -0.019 C 
BRANCH  18  19
ATOM     19  C   UNL     1      32.126 -12.530 -20.981  0.00  0.00    +0.045 C 
BRANCH  19  20
ATOM     20  C   UNL     1      32.442 -13.104 -22.356  0.00  0.00    +0.205 C 
BRANCH  20  21
ATOM     21  O   UNL     1      33.842 -13.321 -22.478  0.00  0.00    -0.475 OA
BRANCH  21  24
ATOM     22  O   UNL     1      36.232 -19.697 -20.416  0.00  0.00    -0.270 OA
ATOM     23  N   UNL     1      35.461 -17.627 -21.066  0.00  0.00    -0.280 N 
ATOM     24  C   UNL     1      34.246 -14.595 -22.783  0.00  0.00    +0.140 C 
ATOM     25  C   UNL     1      34.645 -15.451 -21.764  0.00  0.00    +0.052 C 
ATOM     26  C   UNL     1      35.054 -16.748 -22.086  0.00  0.00    +0.054 C 
ATOM     27  C   UNL     1      34.251 -15.013 -24.110  0.00  0.00    +0.037 C 
ATOM     28  C   UNL     1      35.066 -17.183 -23.415  0.00  0.00    +0.014 C 
ATOM     29  C   UNL     1      34.661 -16.310 -24.429  0.00  0.00    +0.004 C 
ATOM     30  C   UNL     1      35.500 -18.547 -23.708  0.00  0.00    +0.006 C 
ATOM     31  C   UNL     1      35.877 -18.922 -21.302  0.00  0.00    +0.250 C 
ATOM     32  C   UNL     1      35.883 -19.367 -22.722  0.00  0.00    +0.058 C 
ATOM     33  H   UNL     1      35.447 -17.303 -20.136  0.00  0.00    +0.155 HD
ENDBRANCH  21  24
ENDBRANCH  20  21
ENDBRANCH  19  20
ENDBRANCH  18  19
ENDBRANCH   1  18
TORSDOF 7
ENDMDL
MODEL 4
REMARK VINA RESULT:     -12.5      0.886      2.095
REMARK  Name = 11978813
REMARK  7 active torsions:
REMARK  status: ('A' for Active; 'I' for Inactive)
REMARK    1  A    between atoms: C_1  and  N_2
REMARK    2  A    between atoms: C_1  and  C_18
REMARK    3  A    between atoms: N_3  and  C_10
REMARK    4  A    between atoms: C_18  and  C_19
REMARK    5  A    between atoms: C_19  and  C_20
REMARK    6  A    between atoms: C_20  and  O_21
REMARK    7  A    between atoms: O_21  and  C_24
REMARK                            x       y       z     vdW  Elec       q    Type
REMARK                         _______ _______ _______ _____ _____    ______ ____
ROOT
ATOM      1  C   UNL     1      36.838 -21.735 -19.911  0.00  0.00    -0.077 C 
ENDROOT
BRANCH   1   2
ATOM      2  N   UNL     1      36.374 -20.653 -20.778  0.00  0.00    +0.389 N 
ATOM      3  N   UNL     1      35.400 -18.039 -21.393  0.00  0.00    -0.312 N 
ATOM      4  C   UNL     1      34.997 -20.275 -20.438  0.00  0.00    -0.055 C 
ATOM      5  C   UNL     1      37.256 -19.486 -20.663  0.00  0.00    -0.055 C 
ATOM      6  C   UNL     1      34.480 -19.183 -21.376  0.00  0.00    +0.068 C 
ATOM      7  C   UNL     1      36.814 -18.366 -21.607  0.00  0.00    +0.068 C 
ATOM      8  H   UNL     1      36.395 -20.987 -21.742  0.00  0.00    -0.080 HD
BRANCH   3  10
ATOM      9  S   UNL     1      33.826 -15.144 -25.231  0.00  0.00    -0.086 S 
ATOM     10  C   UNL     1      34.903 -16.800 -21.812  0.00  0.00    +0.048 C 
ATOM     11  C   UNL     1      34.606 -16.520 -23.185  0.00  0.00    +0.020 C 
ATOM     12  C   UNL     1      34.682 -15.782 -20.859  0.00  0.00    +0.015 C 
ATOM     13  C   UNL     1      34.112 -15.259 -23.534  0.00  0.00    +0.031 C 
ATOM     14  C   UNL     1      34.736 -17.363 -24.339  0.00  0.00    +0.009 C 
ATOM     15  C   UNL     1      34.191 -14.537 -21.230  0.00  0.00    +0.002 C 
ATOM     16  C   UNL     1      33.899 -14.257 -22.567  0.00  0.00    +0.007 C 
ATOM     17  C   UNL     1      34.349 -16.743 -25.502  0.00  0.00    +0.035 C 
ENDBRANCH   3  10
ENDBRANCH   1   2
BRANCH   1  18
ATOM     18  C   UNL     1      36.075 -21.720 -18.587  0.00  0.00    -0.019 C 
BRANCH  18  19
ATOM     19  C   UNL     1      37.033 -21.777 -17.398  0.00  0.00    +0.045 C 
BRANCH  19  20
ATOM     20  C   UNL     1      36.459 -22.602 -16.254  0.00  0.00    +0.205 C 
BRANCH  20  21
ATOM     21  O   UNL     1      35.532 -23.552 -16.763  0.00  0.00    -0.475 OA
BRANCH  21  24
ATOM     22  O   UNL     1      28.538 -22.410 -17.400  0.00  0.00    -0.270 OA
ATOM     23  N   UNL     1      30.804 -22.773 -17.211  0.00  0.00    -0.280 N 
ATOM     24  C   UNL     1      34.274 -23.543 -16.218  0.00  0.00    +0.140 C 
ATOM     25  C   UNL     1      33.190 -23.161 -16.999  0.00  0.00    +0.052 C 
ATOM     26  C   UNL     1      31.912 -23.156 -16.434  0.00  0.00    +0.054 C 
ATOM     27  C   UNL     1      34.100 -23.915 -14.889  0.00  0.00    +0.037 C 
ATOM     28  C   UNL     1      31.720 -23.528 -15.099  0.00  0.00    +0.014 C 
ATOM     29  C   UNL     1      32.821 -23.909 -14.326  0.00  0.00    +0.004 C 
ATOM     30  C   UNL     1      30.368 -23.509 -14.547  0.00  0.00    +0.006 C 
ATOM     31  C   UNL     1      29.511 -22.742 -16.727  0.00  0.00    +0.250 C 
ATOM     32  C   UNL     1      29.327 -23.141 -15.305  0.00  0.00    +0.058 C 
ATOM     33  H   UNL     1      30.958 -22.513 -18.149  0.00  0.00    +0.155 HD
ENDBRANCH  21  24
ENDBRANCH  20  21
ENDBRANCH  19  20
ENDBRANCH  18  19
ENDBRANCH   1  18
TORSDOF 7
ENDMDL
MODEL 5
REMARK VINA RESULT:     -12.3      5.644      9.175
REMARK  Name = 11978813
REMARK  7 active torsions:
REMARK  status: ('A' for Active; 'I' for Inactive)
REMARK    1  A    between atoms: C_1  and  N_2
REMARK    2  A    between atoms: C_1  and  C_18
REMARK    3  A    between atoms: N_3  and  C_10
REMARK    4  A    between atoms: C_18  and  C_19
REMARK    5  A    between atoms: C_19  and  C_20
REMARK    6  A    between atoms: C_20  and  O_21
REMARK    7  A    between atoms: O_21  and  C_24
REMARK                            x       y       z     vdW  Elec       q    Type
REMARK                         _______ _______ _______ _____ _____    ______ ____
ROOT
ATOM      1  C   UNL     1      32.873 -13.985 -22.974  0.00  0.00    -0.077 C 
ENDROOT
BRANCH   1   2
ATOM      2  N   UNL     1      32.356 -12.620 -22.879  0.00  0.00    +0.389 N 
ATOM      3  N   UNL     1      32.230  -9.942 -21.894  0.00  0.00    -0.312 N 
ATOM      4  C   UNL     1      31.862 -12.350 -21.523  0.00  0.00    -0.055 C 
ATOM      5  C   UNL     1      33.397 -11.648 -23.234  0.00  0.00    -0.055 C 
ATOM      6  C   UNL     1      31.265 -10.944 -21.426  0.00  0.00    +0.068 C 
ATOM      7  C   UNL     1      32.853 -10.219 -23.193  0.00  0.00    +0.068 C 
ATOM      8  H   UNL     1      31.581 -12.528 -23.536  0.00  0.00    -0.080 HD
BRANCH   3  10
ATOM      9  S   UNL     1      31.328  -5.134 -23.184  0.00  0.00    -0.086 S 
ATOM     10  C   UNL     1      32.058  -8.618 -21.475  0.00  0.00    +0.048 C 
ATOM     11  C   UNL     1      31.795  -7.552 -22.396  0.00  0.00    +0.020 C 
ATOM     12  C   UNL     1      32.146  -8.307 -20.100  0.00  0.00    +0.015 C 
ATOM     13  C   UNL     1      31.635  -6.251 -21.907  0.00  0.00    +0.031 C 
ATOM     14  C   UNL     1      31.659  -7.590 -23.823  0.00  0.00    +0.009 C 
ATOM     15  C   UNL     1      31.983  -7.008 -19.639  0.00  0.00    +0.002 C 
ATOM     16  C   UNL     1      31.726  -5.964 -20.531  0.00  0.00    +0.007 C 
ATOM     17  C   UNL     1      31.406  -6.356 -24.370  0.00  0.00    +0.035 C 
ENDBRANCH   3  10
ENDBRANCH   1   2
BRANCH   1  18
ATOM     18  C   UNL     1      34.309 -13.973 -23.498  0.00  0.00    -0.019 C 
BRANCH  18  19
ATOM     19  C   UNL     1      34.740 -15.365 -23.959  0.00  0.00    +0.045 C 
BRANCH  19  20
ATOM     20  C   UNL     1      35.116 -16.254 -22.781  0.00  0.00    +0.205 C 
BRANCH  20  21
ATOM     21  O   UNL     1      35.308 -17.590 -23.229  0.00  0.00    -0.475 OA
BRANCH  21  24
ATOM     22  O   UNL     1      32.964 -22.685 -18.851  0.00  0.00    -0.270 OA
ATOM     23  N   UNL     1      33.705 -21.032 -20.272  0.00  0.00    -0.280 N 
ATOM     24  C   UNL     1      35.551 -18.536 -22.266  0.00  0.00    +0.140 C 
ATOM     25  C   UNL     1      34.500 -19.294 -21.767  0.00  0.00    +0.052 C 
ATOM     26  C   UNL     1      34.758 -20.256 -20.788  0.00  0.00    +0.054 C 
ATOM     27  C   UNL     1      36.849 -18.723 -21.802  0.00  0.00    +0.037 C 
ATOM     28  C   UNL     1      36.058 -20.456 -20.310  0.00  0.00    +0.014 C 
ATOM     29  C   UNL     1      37.106 -19.686 -20.823  0.00  0.00    +0.004 C 
ATOM     30  C   UNL     1      36.286 -21.472 -19.286  0.00  0.00    +0.006 C 
ATOM     31  C   UNL     1      33.879 -22.002 -19.305  0.00  0.00    +0.250 C 
ATOM     32  C   UNL     1      35.268 -22.200 -18.809  0.00  0.00    +0.058 C 
ATOM     33  H   UNL     1      32.796 -20.876 -20.619  0.00  0.00    +0.155 HD
ENDBRANCH  21  24
ENDBRANCH  20  21
ENDBRANCH  19  20
ENDBRANCH  18  19
ENDBRANCH   1  18
TORSDOF 7
ENDMDL
MODEL 6
REMARK VINA RESULT:     -12.2      1.879      3.132
REMARK  Name = 11978813
REMARK  7 active torsions:
REMARK  status: ('A' for Active; 'I' for Inactive)
REMARK    1  A    between atoms: C_1  and  N_2
REMARK    2  A    between atoms: C_1  and  C_18
REMARK    3  A    between atoms: N_3  and  C_10
REMARK    4  A    between atoms: C_18  and  C_19
REMARK    5  A    between atoms: C_19  and  C_20
REMARK    6  A    between atoms: C_20  and  O_21
REMARK    7  A    between atoms: O_21  and  C_24
REMARK                            x       y       z     vdW  Elec       q    Type
REMARK                         _______ _______ _______ _____ _____    ______ ____
ROOT
ATOM      1  C   UNL     1      35.421 -20.150 -22.103  0.00  0.00    -0.077 C 
ENDROOT
BRANCH   1   2
ATOM      2  N   UNL     1      35.491 -18.752 -22.526  0.00  0.00    +0.389 N 
ATOM      3  N   UNL     1      34.466 -16.154 -23.128  0.00  0.00    -0.312 N 
ATOM      4  C   UNL     1      34.674 -18.536 -23.727  0.00  0.00    -0.055 C 
ATOM      5  C   UNL     1      35.039 -17.864 -21.449  0.00  0.00    -0.055 C 
ATOM      6  C   UNL     1      34.786 -17.089 -24.214  0.00  0.00    +0.068 C 
ATOM      7  C   UNL     1      35.161 -16.394 -21.859  0.00  0.00    +0.068 C 
ATOM      8  H   UNL     1      36.463 -18.535 -22.746  0.00  0.00    -0.080 HD
BRANCH   3  10
ATOM      9  S   UNL     1      32.055 -11.917 -21.777  0.00  0.00    -0.086 S 
ATOM     10  C   UNL     1      34.078 -14.855 -23.472  0.00  0.00    +0.048 C 
ATOM     11  C   UNL     1      33.317 -14.024 -22.586  0.00  0.00    +0.020 C 
ATOM     12  C   UNL     1      34.441 -14.331 -24.732  0.00  0.00    +0.015 C 
ATOM     13  C   UNL     1      32.963 -12.734 -22.994  0.00  0.00    +0.031 C 
ATOM     14  C   UNL     1      32.825 -14.304 -21.268  0.00  0.00    +0.009 C 
ATOM     15  C   UNL     1      34.077 -13.048 -25.115  0.00  0.00    +0.002 C 
ATOM     16  C   UNL     1      33.336 -12.232 -24.257  0.00  0.00    +0.007 C 
ATOM     17  C   UNL     1      32.129 -13.253 -20.722  0.00  0.00    +0.035 C 
ENDBRANCH   3  10
ENDBRANCH   1   2
BRANCH   1  18
ATOM     18  C   UNL     1      35.395 -20.242 -20.578  0.00  0.00    -0.019 C 
BRANCH  18  19
ATOM     19  C   UNL     1      36.504 -21.157 -20.061  0.00  0.00    +0.045 C 
BRANCH  19  20
ATOM     20  C   UNL     1      36.150 -21.762 -18.709  0.00  0.00    +0.205 C 
BRANCH  20  21
ATOM     21  O   UNL     1      35.093 -22.700 -18.863  0.00  0.00    -0.475 OA
BRANCH  21  24
ATOM     22  O   UNL     1      28.512 -22.862 -16.164  0.00  0.00    -0.270 OA
ATOM     23  N   UNL     1      30.635 -22.804 -17.054  0.00  0.00    -0.280 N 
ATOM     24  C   UNL     1      34.250 -22.863 -17.795  0.00  0.00    +0.140 C 
ATOM     25  C   UNL     1      32.878 -22.748 -17.979  0.00  0.00    +0.052 C 
ATOM     26  C   UNL     1      32.027 -22.917 -16.884  0.00  0.00    +0.054 C 
ATOM     27  C   UNL     1      34.780 -23.142 -16.539  0.00  0.00    +0.037 C 
ATOM     28  C   UNL     1      32.544 -23.198 -15.615  0.00  0.00    +0.014 C 
ATOM     29  C   UNL     1      33.928 -23.311 -15.445  0.00  0.00    +0.004 C 
ATOM     30  C   UNL     1      31.620 -23.368 -14.496  0.00  0.00    +0.006 C 
ATOM     31  C   UNL     1      29.730 -22.958 -16.023  0.00  0.00    +0.250 C 
ATOM     32  C   UNL     1      30.299 -23.256 -14.681  0.00  0.00    +0.058 C 
ATOM     33  H   UNL     1      30.289 -22.605 -17.955  0.00  0.00    +0.155 HD
ENDBRANCH  21  24
ENDBRANCH  20  21
ENDBRANCH  19  20
ENDBRANCH  18  19
ENDBRANCH   1  18
TORSDOF 7
ENDMDL
MODEL 7
REMARK VINA RESULT:     -12.1      1.449      2.119
REMARK  Name = 11978813
REMARK  7 active torsions:
REMARK  status: ('A' for Active; 'I' for Inactive)
REMARK    1  A    between atoms: C_1  and  N_2
REMARK    2  A    between atoms: C_1  and  C_18
REMARK    3  A    between atoms: N_3  and  C_10
REMARK    4  A    between atoms: C_18  and  C_19
REMARK    5  A    between atoms: C_19  and  C_20
REMARK    6  A    between atoms: C_20  and  O_21
REMARK    7  A    between atoms: O_21  and  C_24
REMARK                            x       y       z     vdW  Elec       q    Type
REMARK                         _______ _______ _______ _____ _____    ______ ____
ROOT
ATOM      1  C   UNL     1      36.409 -21.385 -19.509  0.00  0.00    -0.077 C 
ENDROOT
BRANCH   1   2
ATOM      2  N   UNL     1      36.217 -20.628 -20.745  0.00  0.00    +0.389 N 
ATOM      3  N   UNL     1      35.389 -18.409 -22.342  0.00  0.00    -0.312 N 
ATOM      4  C   UNL     1      34.790 -20.369 -20.973  0.00  0.00    -0.055 C 
ATOM      5  C   UNL     1      36.953 -19.360 -20.692  0.00  0.00    -0.055 C 
ATOM      6  C   UNL     1      34.571 -19.627 -22.293  0.00  0.00    +0.068 C 
ATOM      7  C   UNL     1      36.806 -18.583 -22.003  0.00  0.00    +0.068 C 
ATOM      8  H   UNL     1      36.578 -21.187 -21.519  0.00  0.00    -0.080 HD
BRANCH   3  10
ATOM      9  S   UNL     1      33.953 -13.599 -22.961  0.00  0.00    -0.086 S 
ATOM     10  C   UNL     1      35.007 -17.394 -23.226  0.00  0.00    +0.048 C 
ATOM     11  C   UNL     1      34.678 -16.074 -22.779  0.00  0.00    +0.020 C 
ATOM     12  C   UNL     1      34.939 -17.668 -24.610  0.00  0.00    +0.015 C 
ATOM     13  C   UNL     1      34.303 -15.107 -23.718  0.00  0.00    +0.031 C 
ATOM     14  C   UNL     1      34.665 -15.536 -21.449  0.00  0.00    +0.009 C 
ATOM     15  C   UNL     1      34.564 -16.692 -25.523  0.00  0.00    +0.002 C 
ATOM     16  C   UNL     1      34.242 -15.403 -25.094  0.00  0.00    +0.007 C 
ATOM     17  C   UNL     1      34.293 -14.215 -21.409  0.00  0.00    +0.035 C 
ENDBRANCH   3  10
ENDBRANCH   1   2
BRANCH   1  18
ATOM     18  C   UNL     1      35.143 -22.166 -19.161  0.00  0.00    -0.019 C 
BRANCH  18  19
ATOM     19  C   UNL     1      35.046 -22.420 -17.657  0.00  0.00    +0.045 C 
BRANCH  19  20
ATOM     20  C   UNL     1      34.105 -23.576 -17.342  0.00  0.00    +0.205 C 
BRANCH  20  21
ATOM     21  O   UNL     1      33.705 -23.513 -15.980  0.00  0.00    -0.475 OA
BRANCH  21  24
ATOM     22  O   UNL     1      26.990 -22.954 -18.264  0.00  0.00    -0.270 OA
ATOM     23  N   UNL     1      29.169 -23.138 -17.542  0.00  0.00    -0.280 N 
ATOM     24  C   UNL     1      32.385 -23.232 -15.735  0.00  0.00    +0.140 C 
ATOM     25  C   UNL     1      31.460 -23.330 -16.768  0.00  0.00    +0.052 C 
ATOM     26  C   UNL     1      30.118 -23.043 -16.508  0.00  0.00    +0.054 C 
ATOM     27  C   UNL     1      31.990 -22.853 -14.457  0.00  0.00    +0.037 C 
ATOM     28  C   UNL     1      29.704 -22.660 -15.228  0.00  0.00    +0.014 C 
ATOM     29  C   UNL     1      30.647 -22.566 -14.200  0.00  0.00    +0.004 C 
ATOM     30  C   UNL     1      28.291 -22.368 -14.999  0.00  0.00    +0.006 C 
ATOM     31  C   UNL     1      27.825 -22.872 -17.366  0.00  0.00    +0.250 C 
ATOM     32  C   UNL     1      27.405 -22.465 -15.997  0.00  0.00    +0.058 C 
ATOM     33  H   UNL     1      29.478 -23.408 -18.438  0.00  0.00    +0.155 HD
ENDBRANCH  21  24
ENDBRANCH  20  21
ENDBRANCH  19  20
ENDBRANCH  18  19
ENDBRANCH   1  18
TORSDOF 7
ENDMDL
MODEL 8
REMARK VINA RESULT:     -12.1      7.613     12.043
REMARK  Name = 11978813
REMARK  7 active torsions:
REMARK  status: ('A' for Active; 'I' for Inactive)
REMARK    1  A    between atoms: C_1  and  N_2
REMARK    2  A    between atoms: C_1  and  C_18
REMARK    3  A    between atoms: N_3  and  C_10
REMARK    4  A    between atoms: C_18  and  C_19
REMARK    5  A    between atoms: C_19  and  C_20
REMARK    6  A    between atoms: C_20  and  O_21
REMARK    7  A    between atoms: O_21  and  C_24
REMARK                            x       y       z     vdW  Elec       q    Type
REMARK                         _______ _______ _______ _____ _____    ______ ____
ROOT
ATOM      1  C   UNL     1      32.226 -10.010 -20.579  0.00  0.00    -0.077 C 
ENDROOT
BRANCH   1   2
ATOM      2  N   UNL     1      31.904  -8.772 -21.288  0.00  0.00    +0.389 N 
ATOM      3  N   UNL     1      32.225  -6.745 -23.275  0.00  0.00    -0.312 N 
ATOM      4  C   UNL     1      33.024  -7.827 -21.210  0.00  0.00    -0.055 C 
ATOM      5  C   UNL     1      31.583  -9.051 -22.693  0.00  0.00    -0.055 C 
ATOM      6  C   UNL     1      32.677  -6.505 -21.899  0.00  0.00    +0.068 C 
ATOM      7  C   UNL     1      31.188  -7.771 -23.433  0.00  0.00    +0.068 C 
ATOM      8  H   UNL     1      31.088  -8.354 -20.841  0.00  0.00    -0.080 HD
BRANCH   3  10
ATOM      9  S   UNL     1      34.830  -4.422 -26.936  0.00  0.00    -0.086 S 
ATOM     10  C   UNL     1      32.295  -5.684 -24.185  0.00  0.00    +0.048 C 
ATOM     11  C   UNL     1      33.403  -5.514 -25.077  0.00  0.00    +0.020 C 
ATOM     12  C   UNL     1      31.245  -4.741 -24.236  0.00  0.00    +0.015 C 
ATOM     13  C   UNL     1      33.409  -4.430 -25.961  0.00  0.00    +0.031 C 
ATOM     14  C   UNL     1      34.584  -6.314 -25.231  0.00  0.00    +0.009 C 
ATOM     15  C   UNL     1      31.273  -3.673 -25.122  0.00  0.00    +0.002 C 
ATOM     16  C   UNL     1      32.350  -3.501 -25.994  0.00  0.00    +0.007 C 
ATOM     17  C   UNL     1      35.433  -5.835 -26.199  0.00  0.00    +0.035 C 
ENDBRANCH   3  10
ENDBRANCH   1   2
BRANCH   1  18
ATOM     18  C   UNL     1      31.336 -11.151 -21.071  0.00  0.00    -0.019 C 
BRANCH  18  19
ATOM     19  C   UNL     1      32.135 -12.442 -21.238  0.00  0.00    +0.045 C 
BRANCH  19  20
ATOM     20  C   UNL     1      32.342 -12.788 -22.707  0.00  0.00    +0.205 C 
BRANCH  20  21
ATOM     21  O   UNL     1      33.720 -13.035 -22.955  0.00  0.00    -0.475 OA
BRANCH  21  24
ATOM     22  O   UNL     1      36.221 -19.411 -21.031  0.00  0.00    -0.270 OA
ATOM     23  N   UNL     1      35.415 -17.341 -21.637  0.00  0.00    -0.280 N 
ATOM     24  C   UNL     1      34.070 -14.321 -23.276  0.00  0.00    +0.140 C 
ATOM     25  C   UNL     1      34.563 -15.164 -22.288  0.00  0.00    +0.052 C 
ATOM     26  C   UNL     1      34.915 -16.474 -22.625  0.00  0.00    +0.054 C 
ATOM     27  C   UNL     1      33.927 -14.763 -24.587  0.00  0.00    +0.037 C 
ATOM     28  C   UNL     1      34.778 -16.934 -23.939  0.00  0.00    +0.014 C 
ATOM     29  C   UNL     1      34.281 -16.073 -24.921  0.00  0.00    +0.004 C 
ATOM     30  C   UNL     1      35.158 -18.310 -24.249  0.00  0.00    +0.006 C 
ATOM     31  C   UNL     1      35.785 -18.647 -21.890  0.00  0.00    +0.250 C 
ATOM     32  C   UNL     1      35.632 -19.119 -23.293  0.00  0.00    +0.058 C 
ATOM     33  H   UNL     1      35.506 -16.999 -20.717  0.00  0.00    +0.155 HD
ENDBRANCH  21  24
ENDBRANCH  20  21
ENDBRANCH  19  20
ENDBRANCH  18  19
ENDBRANCH   1  18
TORSDOF 7
ENDMDL
MODEL 9
REMARK VINA RESULT:     -12.1      8.074     13.948
REMARK  Name = 11978813
REMARK  7 active torsions:
REMARK  status: ('A' for Active; 'I' for Inactive)
REMARK    1  A    between atoms: C_1  and  N_2
REMARK    2  A    between atoms: C_1  and  C_18
REMARK    3  A    between atoms: N_3  and  C_10
REMARK    4  A    between atoms: C_18  and  C_19
REMARK    5  A    between atoms: C_19  and  C_20
REMARK    6  A    between atoms: C_20  and  O_21
REMARK    7  A    between atoms: O_21  and  C_24
REMARK                            x       y       z     vdW  Elec       q    Type
REMARK                         _______ _______ _______ _____ _____    ______ ____
ROOT
ATOM      1  C   UNL     1      32.263 -10.404 -22.088  0.00  0.00    -0.077 C 
ENDROOT
BRANCH   1   2
ATOM      2  N   UNL     1      32.351 -11.717 -22.726  0.00  0.00    +0.389 N 
ATOM      3  N   UNL     1      33.564 -14.214 -23.398  0.00  0.00    -0.312 N 
ATOM      4  C   UNL     1      33.489 -11.764 -23.652  0.00  0.00    -0.055 C 
ATOM      5  C   UNL     1      32.485 -12.773 -21.716  0.00  0.00    -0.055 C 
ATOM      6  C   UNL     1      33.557 -13.114 -24.370  0.00  0.00    +0.068 C 
ATOM      7  C   UNL     1      32.521 -14.157 -22.368  0.00  0.00    +0.068 C 
ATOM      8  H   UNL     1      31.491 -11.872 -23.252  0.00  0.00    -0.080 HD
BRANCH   3  10
ATOM      9  S   UNL     1      35.834 -18.548 -22.113  0.00  0.00    -0.086 S 
ATOM     10  C   UNL     1      34.064 -15.454 -23.811  0.00  0.00    +0.048 C 
ATOM     11  C   UNL     1      34.669 -16.377 -22.898  0.00  0.00    +0.020 C 
ATOM     12  C   UNL     1      33.975 -15.821 -25.171  0.00  0.00    +0.015 C 
ATOM     13  C   UNL     1      35.149 -17.600 -23.379  0.00  0.00    +0.031 C 
ATOM     14  C   UNL     1      34.883 -16.257 -21.484  0.00  0.00    +0.009 C 
ATOM     15  C   UNL     1      34.459 -17.040 -25.626  0.00  0.00    +0.002 C 
ATOM     16  C   UNL     1      35.050 -17.945 -24.741  0.00  0.00    +0.007 C 
ATOM     17  C   UNL     1      35.501 -17.357 -20.941  0.00  0.00    +0.035 C 
ENDBRANCH   3  10
ENDBRANCH   1   2
BRANCH   1  18
ATOM     18  C   UNL     1      31.933 -10.556 -20.603  0.00  0.00    -0.019 C 
BRANCH  18  19
ATOM     19  C   UNL     1      31.767  -9.193 -19.933  0.00  0.00    +0.045 C 
BRANCH  19  20
ATOM     20  C   UNL     1      32.865  -8.224 -20.349  0.00  0.00    +0.205 C 
BRANCH  20  21
ATOM     21  O   UNL     1      32.308  -7.163 -21.113  0.00  0.00    -0.475 OA
BRANCH  21  24
ATOM     22  O   UNL     1      32.457  -3.650 -27.298  0.00  0.00    -0.270 OA
ATOM     23  N   UNL     1      32.392  -4.782 -25.294  0.00  0.00    -0.280 N 
ATOM     24  C   UNL     1      32.947  -6.841 -22.282  0.00  0.00    +0.140 C 
ATOM     25  C   UNL     1      32.336  -5.978 -23.183  0.00  0.00    +0.052 C 
ATOM     26  C   UNL     1      32.997  -5.654 -24.371  0.00  0.00    +0.054 C 
ATOM     27  C   UNL     1      34.200  -7.382 -22.550  0.00  0.00    +0.037 C 
ATOM     28  C   UNL     1      34.257  -6.191 -24.656  0.00  0.00    +0.014 C 
ATOM     29  C   UNL     1      34.859  -7.058 -23.739  0.00  0.00    +0.004 C 
ATOM     30  C   UNL     1      34.913  -5.827 -25.909  0.00  0.00    +0.006 C 
ATOM     31  C   UNL     1      32.980  -4.414 -26.488  0.00  0.00    +0.250 C 
ATOM     32  C   UNL     1      34.319  -4.994 -26.773  0.00  0.00    +0.058 C 
ATOM     33  H   UNL     1      31.504  -4.414 -25.077  0.00  0.00    +0.155 HD
ENDBRANCH  21  24
ENDBRANCH  20  21
ENDBRANCH  19  20
ENDBRANCH  18  19
ENDBRANCH   1  18
TORSDOF 7
ENDMDL
