MODEL 1
REMARK VINA RESULT:     -14.6      0.000      0.000
REMARK  Name = 25049750
REMARK  7 active torsions:
REMARK  status: ('A' for Active; 'I' for Inactive)
REMARK    1  A    between atoms: C_1  and  C_14
REMARK    2  A    between atoms: C_6  and  O_20
REMARK    3  A    between atoms: C_10  and  C_17
REMARK    4  A    between atoms: C_17  and  O_18
REMARK    5  A    between atoms: O_20  and  C_21
REMARK    6  A    between atoms: C_21  and  C_23
REMARK    7  A    between atoms: C_27  and  C_32
REMARK                            x       y       z     vdW  Elec       q    Type
REMARK                         _______ _______ _______ _____ _____    ______ ____
ROOT
ATOM      1  C   UNL     1      35.185 -19.933 -21.699  0.00  0.00    -0.004 C 
ATOM      2  C   UNL     1      33.803 -19.827 -21.541  0.00  0.00    +0.000 C 
ATOM      3  C   UNL     1      35.929 -20.713 -20.814  0.00  0.00    +0.000 C 
ATOM      4  C   UNL     1      33.166 -20.500 -20.498  0.00  0.00    +0.037 C 
ATOM      5  C   UNL     1      35.292 -21.386 -19.772  0.00  0.00    +0.037 C 
ATOM      6  C   UNL     1      33.911 -21.281 -19.614  0.00  0.00    +0.139 C 
ENDROOT
BRANCH   1  14
ATOM      7  O   UNL     1      33.918 -17.734 -25.406  0.00  0.00    -0.275 OA
ATOM      8  N   UNL     1      35.092 -19.242 -24.055  0.00  0.00    -0.302 N 
ATOM      9  C   UNL     1      35.140 -17.045 -23.484  0.00  0.00    +0.081 C 
ATOM     10  C   UNL     1      34.230 -15.994 -22.949  0.00  0.00    +0.108 C 
ATOM     11  C   UNL     1      35.364 -15.626 -23.869  0.00  0.00    +0.021 C 
ATOM     12  C   UNL     1      36.096 -17.701 -22.557  0.00  0.00    +0.033 C 
ATOM     13  C   UNL     1      34.624 -18.003 -24.447  0.00  0.00    +0.222 C 
ATOM     14  C   UNL     1      35.875 -19.204 -22.830  0.00  0.00    +0.095 C 
ATOM     15  H   UNL     1      34.914 -20.070 -24.556  0.00  0.00    +0.150 HD
BRANCH  10  17
ATOM     16  O   UNL     1      34.573 -16.246 -20.644  0.00  0.00    -0.250 OA
ATOM     17  C   UNL     1      34.387 -15.504 -21.597  0.00  0.00    +0.314 C 
BRANCH  17  18
ATOM     18  O   UNL     1      34.307 -14.153 -21.518  0.00  0.00    -0.480 OA
ATOM     19  H   UNL     1      34.657 -13.706 -20.774  0.00  0.00    +0.295 HD
ENDBRANCH  17  18
ENDBRANCH  10  17
ENDBRANCH   1  14
BRANCH   6  20
ATOM     20  O   UNL     1      33.285 -21.942 -18.589  0.00  0.00    -0.471 OA
BRANCH  20  21
ATOM     21  C   UNL     1      33.770 -23.239 -18.273  0.00  0.00    +0.229 C 
BRANCH  21  23
ATOM     22  N   UNL     1      33.820 -23.782 -14.029  0.00  0.00    -0.406 NA
ATOM     23  C   UNL     1      33.750 -23.424 -16.788  0.00  0.00    +0.012 C 
ATOM     24  C   UNL     1      32.565 -23.361 -16.043  0.00  0.00    +0.096 C 
ATOM     25  C   UNL     1      34.961 -23.665 -16.155  0.00  0.00    +0.028 C 
ATOM     26  C   UNL     1      32.647 -23.548 -14.647  0.00  0.00    +0.117 C 
ATOM     27  C   UNL     1      34.941 -23.835 -14.784  0.00  0.00    +0.130 C 
ATOM     28  C   UNL     1      31.323 -23.120 -16.656  0.00  0.00    -0.015 C 
ATOM     29  C   UNL     1      31.469 -23.485 -13.909  0.00  0.00    +0.028 C 
ATOM     30  C   UNL     1      30.161 -23.061 -15.892  0.00  0.00    -0.004 C 
ATOM     31  C   UNL     1      30.234 -23.245 -14.517  0.00  0.00    +0.002 C 
BRANCH  27  32
ATOM     32  C   UNL     1      36.157 -24.088 -14.049  0.00  0.00    +0.030 C 
ATOM     33  C   UNL     1      36.422 -23.383 -12.875  0.00  0.00    +0.003 C 
ATOM     34  C   UNL     1      37.067 -25.039 -14.511  0.00  0.00    +0.003 C 
ATOM     35  C   UNL     1      37.596 -23.628 -12.163  0.00  0.00    +0.000 C 
ATOM     36  C   UNL     1      38.241 -25.284 -13.800  0.00  0.00    +0.000 C 
ATOM     37  C   UNL     1      38.506 -24.578 -12.626  0.00  0.00    +0.000 C 
ENDBRANCH  27  32
ENDBRANCH  21  23
ENDBRANCH  20  21
ENDBRANCH   6  20
TORSDOF 7
ENDMDL
MODEL 2
REMARK VINA RESULT:     -14.1      1.038      4.092
REMARK  Name = 25049750
REMARK  7 active torsions:
REMARK  status: ('A' for Active; 'I' for Inactive)
REMARK    1  A    between atoms: C_1  and  C_14
REMARK    2  A    between atoms: C_6  and  O_20
REMARK    3  A    between atoms: C_10  and  C_17
REMARK    4  A    between atoms: C_17  and  O_18
REMARK    5  A    between atoms: O_20  and  C_21
REMARK    6  A    between atoms: C_21  and  C_23
REMARK    7  A    between atoms: C_27  and  C_32
REMARK                            x       y       z     vdW  Elec       q    Type
REMARK                         _______ _______ _______ _____ _____    ______ ____
ROOT
ATOM      1  C   UNL     1      35.633 -19.454 -21.947  0.00  0.00    -0.004 C 
ATOM      2  C   UNL     1      34.264 -19.667 -21.775  0.00  0.00    +0.000 C 
ATOM      3  C   UNL     1      36.546 -20.067 -21.090  0.00  0.00    +0.000 C 
ATOM      4  C   UNL     1      33.811 -20.492 -20.746  0.00  0.00    +0.037 C 
ATOM      5  C   UNL     1      36.093 -20.892 -20.062  0.00  0.00    +0.037 C 
ATOM      6  C   UNL     1      34.725 -21.106 -19.890  0.00  0.00    +0.139 C 
ENDROOT
BRANCH   1  14
ATOM      7  O   UNL     1      33.799 -17.303 -25.440  0.00  0.00    -0.275 OA
ATOM      8  N   UNL     1      35.285 -18.662 -24.247  0.00  0.00    -0.302 N 
ATOM      9  C   UNL     1      35.004 -16.522 -23.543  0.00  0.00    +0.081 C 
ATOM     10  C   UNL     1      33.967 -15.670 -22.898  0.00  0.00    +0.108 C 
ATOM     11  C   UNL     1      34.968 -15.068 -23.848  0.00  0.00    +0.021 C 
ATOM     12  C   UNL     1      36.110 -17.057 -22.708  0.00  0.00    +0.033 C 
ATOM     13  C   UNL     1      34.596 -17.500 -24.537  0.00  0.00    +0.222 C 
ATOM     14  C   UNL     1      36.123 -18.560 -23.063  0.00  0.00    +0.095 C 
ATOM     15  H   UNL     1      35.216 -19.481 -24.790  0.00  0.00    +0.150 HD
BRANCH  10  17
ATOM     16  O   UNL     1      34.592 -15.951 -20.655  0.00  0.00    -0.250 OA
ATOM     17  C   UNL     1      34.123 -15.233 -21.526  0.00  0.00    +0.314 C 
BRANCH  17  18
ATOM     18  O   UNL     1      33.696 -13.962 -21.331  0.00  0.00    -0.480 OA
ATOM     19  H   UNL     1      34.207 -13.370 -20.816  0.00  0.00    +0.295 HD
ENDBRANCH  17  18
ENDBRANCH  10  17
ENDBRANCH   1  14
BRANCH   6  20
ATOM     20  O   UNL     1      34.280 -21.917 -18.878  0.00  0.00    -0.471 OA
BRANCH  20  21
ATOM     21  C   UNL     1      35.257 -22.398 -17.965  0.00  0.00    +0.229 C 
BRANCH  21  23
ATOM     22  N   UNL     1      33.197 -24.055 -14.601  0.00  0.00    -0.406 NA
ATOM     23  C   UNL     1      34.569 -22.980 -16.770  0.00  0.00    +0.012 C 
ATOM     24  C   UNL     1      35.265 -23.338 -15.608  0.00  0.00    +0.096 C 
ATOM     25  C   UNL     1      33.195 -23.160 -16.844  0.00  0.00    +0.028 C 
ATOM     26  C   UNL     1      34.529 -23.879 -14.533  0.00  0.00    +0.117 C 
ATOM     27  C   UNL     1      32.562 -23.697 -15.741  0.00  0.00    +0.130 C 
ATOM     28  C   UNL     1      36.657 -23.168 -15.502  0.00  0.00    -0.015 C 
ATOM     29  C   UNL     1      35.222 -24.235 -13.379  0.00  0.00    +0.028 C 
ATOM     30  C   UNL     1      37.323 -23.532 -14.337  0.00  0.00    -0.004 C 
ATOM     31  C   UNL     1      36.605 -24.066 -13.274  0.00  0.00    +0.002 C 
BRANCH  27  32
ATOM     32  C   UNL     1      31.135 -23.917 -15.736  0.00  0.00    +0.030 C 
ATOM     33  C   UNL     1      30.297 -23.074 -16.466  0.00  0.00    +0.003 C 
ATOM     34  C   UNL     1      30.594 -24.972 -15.002  0.00  0.00    +0.003 C 
ATOM     35  C   UNL     1      28.918 -23.286 -16.462  0.00  0.00    +0.000 C 
ATOM     36  C   UNL     1      29.215 -25.185 -14.998  0.00  0.00    +0.000 C 
ATOM     37  C   UNL     1      28.378 -24.341 -15.727  0.00  0.00    +0.000 C 
ENDBRANCH  27  32
ENDBRANCH  21  23
ENDBRANCH  20  21
ENDBRANCH   6  20
TORSDOF 7
ENDMDL
MODEL 3
REMARK VINA RESULT:     -14.1      5.037      9.763
REMARK  Name = 25049750
REMARK  7 active torsions:
REMARK  status: ('A' for Active; 'I' for Inactive)
REMARK    1  A    between atoms: C_1  and  C_14
REMARK    2  A    between atoms: C_6  and  O_20
REMARK    3  A    between atoms: C_10  and  C_17
REMARK    4  A    between atoms: C_17  and  O_18
REMARK    5  A    between atoms: O_20  and  C_21
REMARK    6  A    between atoms: C_21  and  C_23
REMARK    7  A    between atoms: C_27  and  C_32
REMARK                            x       y       z     vdW  Elec       q    Type
REMARK                         _______ _______ _______ _____ _____    ______ ____
ROOT
ATOM      1  C   UNL     1      31.776 -10.631 -21.358  0.00  0.00    -0.004 C 
ATOM      2  C   UNL     1      32.002 -11.161 -20.087  0.00  0.00    +0.000 C 
ATOM      3  C   UNL     1      31.979 -11.422 -22.489  0.00  0.00    +0.000 C 
ATOM      4  C   UNL     1      32.432 -12.481 -19.949  0.00  0.00    +0.037 C 
ATOM      5  C   UNL     1      32.409 -12.741 -22.350  0.00  0.00    +0.037 C 
ATOM      6  C   UNL     1      32.635 -13.272 -21.080  0.00  0.00    +0.139 C 
ENDROOT
BRANCH   1  14
ATOM      7  O   UNL     1      33.061  -6.608 -19.824  0.00  0.00    -0.275 OA
ATOM      8  N   UNL     1      31.643  -8.397 -20.343  0.00  0.00    -0.302 N 
ATOM      9  C   UNL     1      32.862  -7.484 -22.027  0.00  0.00    +0.081 C 
ATOM     10  C   UNL     1      34.278  -7.395 -22.481  0.00  0.00    +0.108 C 
ATOM     11  C   UNL     1      33.309  -6.281 -22.778  0.00  0.00    +0.021 C 
ATOM     12  C   UNL     1      31.958  -8.455 -22.693  0.00  0.00    +0.033 C 
ATOM     13  C   UNL     1      32.569  -7.406 -20.606  0.00  0.00    +0.222 C 
ATOM     14  C   UNL     1      31.308  -9.201 -21.508  0.00  0.00    +0.095 C 
ATOM     15  H   UNL     1      31.248  -8.545 -19.454  0.00  0.00    +0.150 HD
BRANCH  10  17
ATOM     16  O   UNL     1      34.829  -9.334 -23.678  0.00  0.00    -0.250 OA
ATOM     17  C   UNL     1      34.721  -8.117 -23.654  0.00  0.00    +0.314 C 
BRANCH  17  18
ATOM     18  O   UNL     1      34.993  -7.299 -24.700  0.00  0.00    -0.480 OA
ATOM     19  H   UNL     1      34.961  -6.369 -24.588  0.00  0.00    +0.295 HD
ENDBRANCH  17  18
ENDBRANCH  10  17
ENDBRANCH   1  14
BRANCH   6  20
ATOM     20  O   UNL     1      33.058 -14.568 -20.944  0.00  0.00    -0.471 OA
BRANCH  20  21
ATOM     21  C   UNL     1      34.439 -14.817 -21.159  0.00  0.00    +0.229 C 
BRANCH  21  23
ATOM     22  N   UNL     1      34.916 -18.663 -22.974  0.00  0.00    -0.406 NA
ATOM     23  C   UNL     1      34.601 -16.147 -21.828  0.00  0.00    +0.012 C 
ATOM     24  C   UNL     1      34.526 -16.297 -23.219  0.00  0.00    +0.096 C 
ATOM     25  C   UNL     1      34.834 -17.249 -21.018  0.00  0.00    +0.028 C 
ATOM     26  C   UNL     1      34.692 -17.591 -23.757  0.00  0.00    +0.117 C 
ATOM     27  C   UNL     1      34.982 -18.475 -21.636  0.00  0.00    +0.130 C 
ATOM     28  C   UNL     1      34.292 -15.200 -24.066  0.00  0.00    -0.015 C 
ATOM     29  C   UNL     1      34.616 -17.739 -25.139  0.00  0.00    +0.028 C 
ATOM     30  C   UNL     1      34.221 -15.377 -25.444  0.00  0.00    -0.004 C 
ATOM     31  C   UNL     1      34.384 -16.649 -25.981  0.00  0.00    +0.002 C 
BRANCH  27  32
ATOM     32  C   UNL     1      35.226 -19.671 -20.867  0.00  0.00    +0.030 C 
ATOM     33  C   UNL     1      34.156 -20.468 -20.458  0.00  0.00    +0.003 C 
ATOM     34  C   UNL     1      36.531 -20.032 -20.531  0.00  0.00    +0.003 C 
ATOM     35  C   UNL     1      34.391 -21.625 -19.715  0.00  0.00    +0.000 C 
ATOM     36  C   UNL     1      36.766 -21.189 -19.788  0.00  0.00    +0.000 C 
ATOM     37  C   UNL     1      35.695 -21.984 -19.379  0.00  0.00    +0.000 C 
ENDBRANCH  27  32
ENDBRANCH  21  23
ENDBRANCH  20  21
ENDBRANCH   6  20
TORSDOF 7
ENDMDL
MODEL 4
REMARK VINA RESULT:     -14.1      5.037      9.759
REMARK  Name = 25049750
REMARK  7 active torsions:
REMARK  status: ('A' for Active; 'I' for Inactive)
REMARK    1  A    between atoms: C_1  and  C_14
REMARK    2  A    between atoms: C_6  and  O_20
REMARK    3  A    between atoms: C_10  and  C_17
REMARK    4  A    between atoms: C_17  and  O_18
REMARK    5  A    between atoms: O_20  and  C_21
REMARK    6  A    between atoms: C_21  and  C_23
REMARK    7  A    between atoms: C_27  and  C_32
REMARK                            x       y       z     vdW  Elec       q    Type
REMARK                         _______ _______ _______ _____ _____    ______ ____
ROOT
ATOM      1  C   UNL     1      31.776 -10.630 -21.350  0.00  0.00    -0.004 C 
ATOM      2  C   UNL     1      31.991 -11.420 -22.481  0.00  0.00    +0.000 C 
ATOM      3  C   UNL     1      31.996 -11.159 -20.079  0.00  0.00    +0.000 C 
ATOM      4  C   UNL     1      32.424 -12.738 -22.338  0.00  0.00    +0.037 C 
ATOM      5  C   UNL     1      32.430 -12.477 -19.937  0.00  0.00    +0.037 C 
ATOM      6  C   UNL     1      32.645 -13.266 -21.066  0.00  0.00    +0.139 C 
ENDROOT
BRANCH   1  14
ATOM      7  O   UNL     1      33.056  -6.600 -19.830  0.00  0.00    -0.275 OA
ATOM      8  N   UNL     1      31.640  -8.393 -20.344  0.00  0.00    -0.302 N 
ATOM      9  C   UNL     1      32.858  -7.483 -22.030  0.00  0.00    +0.081 C 
ATOM     10  C   UNL     1      34.274  -7.394 -22.484  0.00  0.00    +0.108 C 
ATOM     11  C   UNL     1      33.303  -6.283 -22.785  0.00  0.00    +0.021 C 
ATOM     12  C   UNL     1      31.956  -8.459 -22.693  0.00  0.00    +0.033 C 
ATOM     13  C   UNL     1      32.565  -7.401 -20.610  0.00  0.00    +0.222 C 
ATOM     14  C   UNL     1      31.307  -9.201 -21.505  0.00  0.00    +0.095 C 
ATOM     15  H   UNL     1      31.245  -8.537 -19.453  0.00  0.00    +0.150 HD
BRANCH  10  17
ATOM     16  O   UNL     1      34.821  -9.338 -23.676  0.00  0.00    -0.250 OA
ATOM     17  C   UNL     1      34.718  -8.120 -23.655  0.00  0.00    +0.314 C 
BRANCH  17  18
ATOM     18  O   UNL     1      34.997  -7.305 -24.701  0.00  0.00    -0.480 OA
ATOM     19  H   UNL     1      34.896  -7.616 -25.578  0.00  0.00    +0.295 HD
ENDBRANCH  17  18
ENDBRANCH  10  17
ENDBRANCH   1  14
BRANCH   6  20
ATOM     20  O   UNL     1      33.071 -14.561 -20.927  0.00  0.00    -0.471 OA
BRANCH  20  21
ATOM     21  C   UNL     1      34.451 -14.810 -21.155  0.00  0.00    +0.229 C 
BRANCH  21  23
ATOM     22  N   UNL     1      34.913 -18.658 -22.969  0.00  0.00    -0.406 NA
ATOM     23  C   UNL     1      34.608 -16.141 -21.823  0.00  0.00    +0.012 C 
ATOM     24  C   UNL     1      34.528 -16.292 -23.214  0.00  0.00    +0.096 C 
ATOM     25  C   UNL     1      34.839 -17.243 -21.013  0.00  0.00    +0.028 C 
ATOM     26  C   UNL     1      34.689 -17.586 -23.752  0.00  0.00    +0.117 C 
ATOM     27  C   UNL     1      34.983 -18.469 -21.631  0.00  0.00    +0.130 C 
ATOM     28  C   UNL     1      34.295 -15.194 -24.061  0.00  0.00    -0.015 C 
ATOM     29  C   UNL     1      34.609 -17.735 -25.133  0.00  0.00    +0.028 C 
ATOM     30  C   UNL     1      34.220 -15.373 -25.439  0.00  0.00    -0.004 C 
ATOM     31  C   UNL     1      34.378 -16.645 -25.976  0.00  0.00    +0.002 C 
BRANCH  27  32
ATOM     32  C   UNL     1      35.225 -19.666 -20.861  0.00  0.00    +0.030 C 
ATOM     33  C   UNL     1      36.530 -20.023 -20.520  0.00  0.00    +0.003 C 
ATOM     34  C   UNL     1      34.156 -20.466 -20.459  0.00  0.00    +0.003 C 
ATOM     35  C   UNL     1      36.764 -21.180 -19.775  0.00  0.00    +0.000 C 
ATOM     36  C   UNL     1      34.390 -21.622 -19.715  0.00  0.00    +0.000 C 
ATOM     37  C   UNL     1      35.695 -21.979 -19.374  0.00  0.00    +0.000 C 
ENDBRANCH  27  32
ENDBRANCH  21  23
ENDBRANCH  20  21
ENDBRANCH   6  20
TORSDOF 7
ENDMDL
MODEL 5
REMARK VINA RESULT:     -13.9      1.099      4.230
REMARK  Name = 25049750
REMARK  7 active torsions:
REMARK  status: ('A' for Active; 'I' for Inactive)
REMARK    1  A    between atoms: C_1  and  C_14
REMARK    2  A    between atoms: C_6  and  O_20
REMARK    3  A    between atoms: C_10  and  C_17
REMARK    4  A    between atoms: C_17  and  O_18
REMARK    5  A    between atoms: O_20  and  C_21
REMARK    6  A    between atoms: C_21  and  C_23
REMARK    7  A    between atoms: C_27  and  C_32
REMARK                            x       y       z     vdW  Elec       q    Type
REMARK                         _______ _______ _______ _____ _____    ______ ____
ROOT
ATOM      1  C   UNL     1      35.606 -19.267 -21.907  0.00  0.00    -0.004 C 
ATOM      2  C   UNL     1      36.503 -19.951 -21.083  0.00  0.00    +0.000 C 
ATOM      3  C   UNL     1      34.234 -19.474 -21.766  0.00  0.00    +0.000 C 
ATOM      4  C   UNL     1      36.026 -20.841 -20.122  0.00  0.00    +0.037 C 
ATOM      5  C   UNL     1      33.758 -20.365 -20.804  0.00  0.00    +0.037 C 
ATOM      6  C   UNL     1      34.653 -21.047 -19.981  0.00  0.00    +0.139 C 
ENDROOT
BRANCH   1  14
ATOM      7  O   UNL     1      33.902 -17.054 -25.426  0.00  0.00    -0.275 OA
ATOM      8  N   UNL     1      35.374 -18.392 -24.190  0.00  0.00    -0.302 N 
ATOM      9  C   UNL     1      34.936 -16.301 -23.420  0.00  0.00    +0.081 C 
ATOM     10  C   UNL     1      33.815 -15.530 -22.813  0.00  0.00    +0.108 C 
ATOM     11  C   UNL     1      34.845 -14.838 -23.667  0.00  0.00    +0.021 C 
ATOM     12  C   UNL     1      36.009 -16.818 -22.533  0.00  0.00    +0.033 C 
ATOM     13  C   UNL     1      34.646 -17.253 -24.479  0.00  0.00    +0.222 C 
ATOM     14  C   UNL     1      36.124 -18.301 -22.948  0.00  0.00    +0.095 C 
ATOM     15  H   UNL     1      35.384 -19.187 -24.771  0.00  0.00    +0.150 HD
BRANCH  10  17
ATOM     16  O   UNL     1      33.482 -14.054 -21.022  0.00  0.00    -0.250 OA
ATOM     17  C   UNL     1      33.855 -15.149 -21.418  0.00  0.00    +0.314 C 
BRANCH  17  18
ATOM     18  O   UNL     1      34.343 -16.131 -20.621  0.00  0.00    -0.480 OA
ATOM     19  H   UNL     1      33.889 -16.947 -20.551  0.00  0.00    +0.295 HD
ENDBRANCH  17  18
ENDBRANCH  10  17
ENDBRANCH   1  14
BRANCH   6  20
ATOM     20  O   UNL     1      34.185 -21.923 -19.036  0.00  0.00    -0.471 OA
BRANCH  20  21
ATOM     21  C   UNL     1      35.152 -22.536 -18.195  0.00  0.00    +0.229 C 
BRANCH  21  23
ATOM     22  N   UNL     1      33.161 -23.848 -14.642  0.00  0.00    -0.406 NA
ATOM     23  C   UNL     1      34.488 -22.995 -16.934  0.00  0.00    +0.012 C 
ATOM     24  C   UNL     1      35.204 -23.206 -15.748  0.00  0.00    +0.096 C 
ATOM     25  C   UNL     1      33.118 -23.210 -16.971  0.00  0.00    +0.028 C 
ATOM     26  C   UNL     1      34.491 -23.638 -14.610  0.00  0.00    +0.117 C 
ATOM     27  C   UNL     1      32.508 -23.633 -15.807  0.00  0.00    +0.130 C 
ATOM     28  C   UNL     1      36.592 -22.996 -15.679  0.00  0.00    -0.015 C 
ATOM     29  C   UNL     1      35.202 -23.847 -13.432  0.00  0.00    +0.028 C 
ATOM     30  C   UNL     1      37.278 -23.213 -14.488  0.00  0.00    -0.004 C 
ATOM     31  C   UNL     1      36.582 -23.639 -13.363  0.00  0.00    +0.002 C 
BRANCH  27  32
ATOM     32  C   UNL     1      31.086 -23.880 -15.760  0.00  0.00    +0.030 C 
ATOM     33  C   UNL     1      30.597 -25.017 -15.117  0.00  0.00    +0.003 C 
ATOM     34  C   UNL     1      30.202 -22.982 -16.357  0.00  0.00    +0.003 C 
ATOM     35  C   UNL     1      29.223 -25.256 -15.071  0.00  0.00    +0.000 C 
ATOM     36  C   UNL     1      28.828 -23.221 -16.311  0.00  0.00    +0.000 C 
ATOM     37  C   UNL     1      28.339 -24.358 -15.669  0.00  0.00    +0.000 C 
ENDBRANCH  27  32
ENDBRANCH  21  23
ENDBRANCH  20  21
ENDBRANCH   6  20
TORSDOF 7
ENDMDL
MODEL 6
REMARK VINA RESULT:     -13.3      6.534     13.299
REMARK  Name = 25049750
REMARK  7 active torsions:
REMARK  status: ('A' for Active; 'I' for Inactive)
REMARK    1  A    between atoms: C_1  and  C_14
REMARK    2  A    between atoms: C_6  and  O_20
REMARK    3  A    between atoms: C_10  and  C_17
REMARK    4  A    between atoms: C_17  and  O_18
REMARK    5  A    between atoms: O_20  and  C_21
REMARK    6  A    between atoms: C_21  and  C_23
REMARK    7  A    between atoms: C_27  and  C_32
REMARK                            x       y       z     vdW  Elec       q    Type
REMARK                         _______ _______ _______ _____ _____    ______ ____
ROOT
ATOM      1  C   UNL     1      34.454 -15.454 -21.679  0.00  0.00    -0.004 C 
ATOM      2  C   UNL     1      34.528 -14.539 -22.731  0.00  0.00    +0.000 C 
ATOM      3  C   UNL     1      33.515 -15.275 -20.665  0.00  0.00    +0.000 C 
ATOM      4  C   UNL     1      33.662 -13.447 -22.767  0.00  0.00    +0.037 C 
ATOM      5  C   UNL     1      32.649 -14.182 -20.701  0.00  0.00    +0.037 C 
ATOM      6  C   UNL     1      32.721 -13.268 -21.752  0.00  0.00    +0.139 C 
ENDROOT
BRANCH   1  14
ATOM      7  O   UNL     1      34.047 -19.924 -21.468  0.00  0.00    -0.275 OA
ATOM      8  N   UNL     1      34.806 -17.772 -20.945  0.00  0.00    -0.302 N 
ATOM      9  C   UNL     1      35.040 -18.489 -23.086  0.00  0.00    +0.081 C 
ATOM     10  C   UNL     1      34.198 -18.800 -24.275  0.00  0.00    +0.108 C 
ATOM     11  C   UNL     1      35.495 -19.529 -24.046  0.00  0.00    +0.021 C 
ATOM     12  C   UNL     1      35.756 -17.189 -23.038  0.00  0.00    +0.033 C 
ATOM     13  C   UNL     1      34.561 -18.856 -21.765  0.00  0.00    +0.222 C 
ATOM     14  C   UNL     1      35.393 -16.639 -21.642  0.00  0.00    +0.095 C 
ATOM     15  H   UNL     1      34.604 -17.767 -19.981  0.00  0.00    +0.150 HD
BRANCH  10  17
ATOM     16  O   UNL     1      35.241 -17.571 -25.977  0.00  0.00    -0.250 OA
ATOM     17  C   UNL     1      34.208 -17.930 -25.431  0.00  0.00    +0.314 C 
BRANCH  17  18
ATOM     18  O   UNL     1      32.962 -17.572 -25.827  0.00  0.00    -0.480 OA
ATOM     19  H   UNL     1      32.620 -16.732 -25.594  0.00  0.00    +0.295 HD
ENDBRANCH  17  18
ENDBRANCH  10  17
ENDBRANCH   1  14
BRANCH   6  20
ATOM     20  O   UNL     1      31.871 -12.194 -21.787  0.00  0.00    -0.471 OA
BRANCH  20  21
ATOM     21  C   UNL     1      31.894 -11.396 -22.962  0.00  0.00    +0.229 C 
BRANCH  21  23
ATOM     22  N   UNL     1      32.756  -7.319 -21.990  0.00  0.00    -0.406 NA
ATOM     23  C   UNL     1      32.185  -9.976 -22.587  0.00  0.00    +0.012 C 
ATOM     24  C   UNL     1      31.981  -9.490 -21.288  0.00  0.00    +0.096 C 
ATOM     25  C   UNL     1      32.671  -9.136 -23.579  0.00  0.00    +0.028 C 
ATOM     26  C   UNL     1      32.285  -8.137 -21.031  0.00  0.00    +0.117 C 
ATOM     27  C   UNL     1      32.939  -7.827 -23.231  0.00  0.00    +0.130 C 
ATOM     28  C   UNL     1      31.491 -10.316 -20.262  0.00  0.00    -0.015 C 
ATOM     29  C   UNL     1      32.082  -7.655 -19.741  0.00  0.00    +0.028 C 
ATOM     30  C   UNL     1      31.297  -9.808 -18.981  0.00  0.00    -0.004 C 
ATOM     31  C   UNL     1      31.594  -8.476 -18.720  0.00  0.00    +0.002 C 
BRANCH  27  32
ATOM     32  C   UNL     1      33.446  -6.889 -24.203  0.00  0.00    +0.030 C 
ATOM     33  C   UNL     1      32.586  -5.963 -24.794  0.00  0.00    +0.003 C 
ATOM     34  C   UNL     1      34.797  -6.906 -24.551  0.00  0.00    +0.003 C 
ATOM     35  C   UNL     1      33.077  -5.055 -25.733  0.00  0.00    +0.000 C 
ATOM     36  C   UNL     1      35.287  -5.998 -25.490  0.00  0.00    +0.000 C 
ATOM     37  C   UNL     1      34.427  -5.074 -26.081  0.00  0.00    +0.000 C 
ENDBRANCH  27  32
ENDBRANCH  21  23
ENDBRANCH  20  21
ENDBRANCH   6  20
TORSDOF 7
ENDMDL
MODEL 7
REMARK VINA RESULT:     -13.0      4.743      9.230
REMARK  Name = 25049750
REMARK  7 active torsions:
REMARK  status: ('A' for Active; 'I' for Inactive)
REMARK    1  A    between atoms: C_1  and  C_14
REMARK    2  A    between atoms: C_6  and  O_20
REMARK    3  A    between atoms: C_10  and  C_17
REMARK    4  A    between atoms: C_17  and  O_18
REMARK    5  A    between atoms: O_20  and  C_21
REMARK    6  A    between atoms: C_21  and  C_23
REMARK    7  A    between atoms: C_27  and  C_32
REMARK                            x       y       z     vdW  Elec       q    Type
REMARK                         _______ _______ _______ _____ _____    ______ ____
ROOT
ATOM      1  C   UNL     1      32.318 -11.404 -22.357  0.00  0.00    -0.004 C 
ATOM      2  C   UNL     1      33.220 -11.611 -23.402  0.00  0.00    +0.000 C 
ATOM      3  C   UNL     1      32.245 -12.321 -21.309  0.00  0.00    +0.000 C 
ATOM      4  C   UNL     1      34.046 -12.734 -23.398  0.00  0.00    +0.037 C 
ATOM      5  C   UNL     1      33.071 -13.444 -21.305  0.00  0.00    +0.037 C 
ATOM      6  C   UNL     1      33.973 -13.651 -22.349  0.00  0.00    +0.139 C 
ENDROOT
BRANCH   1  14
ATOM      7  O   UNL     1      32.000  -7.591 -20.001  0.00  0.00    -0.275 OA
ATOM      8  N   UNL     1      31.330  -9.577 -21.043  0.00  0.00    -0.302 N 
ATOM      9  C   UNL     1      32.369  -8.008 -22.314  0.00  0.00    +0.081 C 
ATOM     10  C   UNL     1      33.718  -7.401 -22.485  0.00  0.00    +0.108 C 
ATOM     11  C   UNL     1      32.477  -6.598 -22.773  0.00  0.00    +0.021 C 
ATOM     12  C   UNL     1      31.926  -9.048 -23.277  0.00  0.00    +0.033 C 
ATOM     13  C   UNL     1      31.899  -8.320 -20.975  0.00  0.00    +0.222 C 
ATOM     14  C   UNL     1      31.424 -10.185 -22.361  0.00  0.00    +0.095 C 
ATOM     15  H   UNL     1      30.903 -10.019 -20.274  0.00  0.00    +0.150 HD
BRANCH  10  17
ATOM     16  O   UNL     1      34.678  -6.889 -24.562  0.00  0.00    -0.250 OA
ATOM     17  C   UNL     1      34.513  -7.695 -23.658  0.00  0.00    +0.314 C 
BRANCH  17  18
ATOM     18  O   UNL     1      35.043  -8.942 -23.631  0.00  0.00    -0.480 OA
ATOM     19  H   UNL     1      35.333  -9.311 -22.821  0.00  0.00    +0.295 HD
ENDBRANCH  17  18
ENDBRANCH  10  17
ENDBRANCH   1  14
BRANCH   6  20
ATOM     20  O   UNL     1      34.784 -14.755 -22.346  0.00  0.00    -0.471 OA
BRANCH  20  21
ATOM     21  C   UNL     1      34.659 -15.639 -21.241  0.00  0.00    +0.229 C 
BRANCH  21  23
ATOM     22  N   UNL     1      34.753 -19.712 -22.550  0.00  0.00    -0.406 NA
ATOM     23  C   UNL     1      34.693 -17.052 -21.734  0.00  0.00    +0.012 C 
ATOM     24  C   UNL     1      34.751 -17.365 -23.099  0.00  0.00    +0.096 C 
ATOM     25  C   UNL     1      34.665 -18.065 -20.786  0.00  0.00    +0.028 C 
ATOM     26  C   UNL     1      34.780 -18.727 -23.468  0.00  0.00    +0.117 C 
ATOM     27  C   UNL     1      34.697 -19.367 -21.243  0.00  0.00    +0.130 C 
ATOM     28  C   UNL     1      34.781 -16.362 -24.083  0.00  0.00    -0.015 C 
ATOM     29  C   UNL     1      34.838 -19.036 -24.823  0.00  0.00    +0.028 C 
ATOM     30  C   UNL     1      34.839 -16.701 -25.432  0.00  0.00    -0.004 C 
ATOM     31  C   UNL     1      34.868 -18.040 -25.802  0.00  0.00    +0.002 C 
BRANCH  27  32
ATOM     32  C   UNL     1      34.670 -20.479 -20.323  0.00  0.00    +0.030 C 
ATOM     33  C   UNL     1      33.453 -21.055 -19.959  0.00  0.00    +0.003 C 
ATOM     34  C   UNL     1      35.862 -20.978 -19.798  0.00  0.00    +0.003 C 
ATOM     35  C   UNL     1      33.427 -22.130 -19.070  0.00  0.00    +0.000 C 
ATOM     36  C   UNL     1      35.836 -22.053 -18.909  0.00  0.00    +0.000 C 
ATOM     37  C   UNL     1      34.619 -22.628 -18.545  0.00  0.00    +0.000 C 
ENDBRANCH  27  32
ENDBRANCH  21  23
ENDBRANCH  20  21
ENDBRANCH   6  20
TORSDOF 7
ENDMDL
MODEL 8
REMARK VINA RESULT:     -12.7      4.943      9.478
REMARK  Name = 25049750
REMARK  7 active torsions:
REMARK  status: ('A' for Active; 'I' for Inactive)
REMARK    1  A    between atoms: C_1  and  C_14
REMARK    2  A    between atoms: C_6  and  O_20
REMARK    3  A    between atoms: C_10  and  C_17
REMARK    4  A    between atoms: C_17  and  O_18
REMARK    5  A    between atoms: O_20  and  C_21
REMARK    6  A    between atoms: C_21  and  C_23
REMARK    7  A    between atoms: C_27  and  C_32
REMARK                            x       y       z     vdW  Elec       q    Type
REMARK                         _______ _______ _______ _____ _____    ______ ____
ROOT
ATOM      1  C   UNL     1      33.110 -10.830 -23.129  0.00  0.00    -0.004 C 
ATOM      2  C   UNL     1      32.263 -11.159 -22.069  0.00  0.00    +0.000 C 
ATOM      3  C   UNL     1      33.991 -11.784 -23.639  0.00  0.00    +0.000 C 
ATOM      4  C   UNL     1      32.299 -12.441 -21.521  0.00  0.00    +0.037 C 
ATOM      5  C   UNL     1      34.026 -13.066 -23.090  0.00  0.00    +0.037 C 
ATOM      6  C   UNL     1      33.179 -13.395 -22.031  0.00  0.00    +0.139 C 
ENDROOT
BRANCH   1  14
ATOM      7  O   UNL     1      30.090  -7.521 -23.475  0.00  0.00    -0.275 OA
ATOM      8  N   UNL     1      31.726  -9.063 -24.129  0.00  0.00    -0.302 N 
ATOM      9  C   UNL     1      32.237  -7.619 -22.453  0.00  0.00    +0.081 C 
ATOM     10  C   UNL     1      31.871  -7.357 -21.033  0.00  0.00    +0.108 C 
ATOM     11  C   UNL     1      32.292  -6.226 -21.935  0.00  0.00    +0.021 C 
ATOM     12  C   UNL     1      33.507  -8.331 -22.743  0.00  0.00    +0.033 C 
ATOM     13  C   UNL     1      31.200  -8.023 -23.387  0.00  0.00    +0.222 C 
ATOM     14  C   UNL     1      33.071  -9.441 -23.724  0.00  0.00    +0.095 C 
ATOM     15  H   UNL     1      31.238  -9.506 -24.861  0.00  0.00    +0.150 HD
BRANCH  10  17
ATOM     16  O   UNL     1      33.536  -6.784 -19.485  0.00  0.00    -0.250 OA
ATOM     17  C   UNL     1      32.808  -7.640 -19.968  0.00  0.00    +0.314 C 
BRANCH  17  18
ATOM     18  O   UNL     1      32.780  -8.937 -19.577  0.00  0.00    -0.480 OA
ATOM     19  H   UNL     1      33.579  -9.392 -19.403  0.00  0.00    +0.295 HD
ENDBRANCH  17  18
ENDBRANCH  10  17
ENDBRANCH   1  14
BRANCH   6  20
ATOM     20  O   UNL     1      33.214 -14.654 -21.492  0.00  0.00    -0.471 OA
BRANCH  20  21
ATOM     21  C   UNL     1      34.497 -15.198 -21.215  0.00  0.00    +0.229 C 
BRANCH  21  23
ATOM     22  N   UNL     1      34.749 -19.171 -22.782  0.00  0.00    -0.406 NA
ATOM     23  C   UNL     1      34.585 -16.574 -21.798  0.00  0.00    +0.012 C 
ATOM     24  C   UNL     1      34.634 -16.797 -23.181  0.00  0.00    +0.096 C 
ATOM     25  C   UNL     1      34.619 -17.644 -20.916  0.00  0.00    +0.028 C 
ATOM     26  C   UNL     1      34.717 -18.130 -23.635  0.00  0.00    +0.117 C 
ATOM     27  C   UNL     1      34.700 -18.913 -21.455  0.00  0.00    +0.130 C 
ATOM     28  C   UNL     1      34.602 -15.734 -24.099  0.00  0.00    -0.015 C 
ATOM     29  C   UNL     1      34.764 -18.351 -25.009  0.00  0.00    +0.028 C 
ATOM     30  C   UNL     1      34.651 -15.984 -25.467  0.00  0.00    -0.004 C 
ATOM     31  C   UNL     1      34.733 -17.295 -25.922  0.00  0.00    +0.002 C 
BRANCH  27  32
ATOM     32  C   UNL     1      34.739 -20.080 -20.608  0.00  0.00    +0.030 C 
ATOM     33  C   UNL     1      35.965 -20.580 -20.165  0.00  0.00    +0.003 C 
ATOM     34  C   UNL     1      33.553 -20.709 -20.230  0.00  0.00    +0.003 C 
ATOM     35  C   UNL     1      36.003 -21.708 -19.345  0.00  0.00    +0.000 C 
ATOM     36  C   UNL     1      33.591 -21.837 -19.410  0.00  0.00    +0.000 C 
ATOM     37  C   UNL     1      34.816 -22.337 -18.969  0.00  0.00    +0.000 C 
ENDBRANCH  27  32
ENDBRANCH  21  23
ENDBRANCH  20  21
ENDBRANCH   6  20
TORSDOF 7
ENDMDL
MODEL 9
REMARK VINA RESULT:     -12.4      5.834     10.648
REMARK  Name = 25049750
REMARK  7 active torsions:
REMARK  status: ('A' for Active; 'I' for Inactive)
REMARK    1  A    between atoms: C_1  and  C_14
REMARK    2  A    between atoms: C_6  and  O_20
REMARK    3  A    between atoms: C_10  and  C_17
REMARK    4  A    between atoms: C_17  and  O_18
REMARK    5  A    between atoms: O_20  and  C_21
REMARK    6  A    between atoms: C_21  and  C_23
REMARK    7  A    between atoms: C_27  and  C_32
REMARK                            x       y       z     vdW  Elec       q    Type
REMARK                         _______ _______ _______ _____ _____    ______ ____
ROOT
ATOM      1  C   UNL     1      33.149  -9.421 -23.181  0.00  0.00    -0.004 C 
ATOM      2  C   UNL     1      33.946 -10.386 -23.799  0.00  0.00    +0.000 C 
ATOM      3  C   UNL     1      32.218  -9.801 -22.215  0.00  0.00    +0.000 C 
ATOM      4  C   UNL     1      33.812 -11.729 -23.449  0.00  0.00    +0.037 C 
ATOM      5  C   UNL     1      32.084 -11.144 -21.865  0.00  0.00    +0.037 C 
ATOM      6  C   UNL     1      32.881 -12.109 -22.481  0.00  0.00    +0.139 C 
ENDROOT
BRANCH   1  14
ATOM      7  O   UNL     1      30.398  -5.919 -23.782  0.00  0.00    -0.275 OA
ATOM      8  N   UNL     1      32.108  -7.456 -24.226  0.00  0.00    -0.302 N 
ATOM      9  C   UNL     1      32.211  -6.282 -22.285  0.00  0.00    +0.081 C 
ATOM     10  C   UNL     1      31.503  -6.191 -20.978  0.00  0.00    +0.108 C 
ATOM     11  C   UNL     1      32.167  -4.977 -21.574  0.00  0.00    +0.021 C 
ATOM     12  C   UNL     1      33.495  -7.025 -22.352  0.00  0.00    +0.033 C 
ATOM     13  C   UNL     1      31.436  -6.495 -23.495  0.00  0.00    +0.222 C 
ATOM     14  C   UNL     1      33.296  -7.964 -23.560  0.00  0.00    +0.095 C 
ATOM     15  H   UNL     1      31.810  -7.766 -25.112  0.00  0.00    +0.150 HD
BRANCH  10  17
ATOM     16  O   UNL     1      32.843  -5.962 -19.067  0.00  0.00    -0.250 OA
ATOM     17  C   UNL     1      32.133  -6.670 -19.766  0.00  0.00    +0.314 C 
BRANCH  17  18
ATOM     18  O   UNL     1      31.843  -7.968 -19.505  0.00  0.00    -0.480 OA
ATOM     19  H   UNL     1      31.605  -8.545 -20.203  0.00  0.00    +0.295 HD
ENDBRANCH  17  18
ENDBRANCH  10  17
ENDBRANCH   1  14
BRANCH   6  20
ATOM     20  O   UNL     1      32.749 -13.429 -22.137  0.00  0.00    -0.471 OA
BRANCH  20  21
ATOM     21  C   UNL     1      33.871 -14.047 -21.523  0.00  0.00    +0.229 C 
BRANCH  21  23
ATOM     22  N   UNL     1      34.755 -17.772 -23.433  0.00  0.00    -0.406 NA
ATOM     23  C   UNL     1      34.169 -15.335 -22.223  0.00  0.00    +0.012 C 
ATOM     24  C   UNL     1      33.951 -15.506 -23.597  0.00  0.00    +0.096 C 
ATOM     25  C   UNL     1      34.678 -16.378 -21.462  0.00  0.00    +0.028 C 
ATOM     26  C   UNL     1      34.262 -16.758 -24.168  0.00  0.00    +0.117 C 
ATOM     27  C   UNL     1      34.951 -17.566 -22.110  0.00  0.00    +0.130 C 
ATOM     28  C   UNL     1      33.438 -14.469 -24.395  0.00  0.00    -0.015 C 
ATOM     29  C   UNL     1      34.045 -16.927 -25.533  0.00  0.00    +0.028 C 
ATOM     30  C   UNL     1      33.230 -14.666 -25.757  0.00  0.00    -0.004 C 
ATOM     31  C   UNL     1      33.534 -15.896 -26.326  0.00  0.00    +0.002 C 
BRANCH  27  32
ATOM     32  C   UNL     1      35.482 -18.700 -21.392  0.00  0.00    +0.030 C 
ATOM     33  C   UNL     1      36.841 -18.757 -21.083  0.00  0.00    +0.003 C 
ATOM     34  C   UNL     1      34.636 -19.739 -21.005  0.00  0.00    +0.003 C 
ATOM     35  C   UNL     1      37.354 -19.852 -20.388  0.00  0.00    +0.000 C 
ATOM     36  C   UNL     1      35.149 -20.835 -20.310  0.00  0.00    +0.000 C 
ATOM     37  C   UNL     1      36.508 -20.891 -20.002  0.00  0.00    +0.000 C 
ENDBRANCH  27  32
ENDBRANCH  21  23
ENDBRANCH  20  21
ENDBRANCH   6  20
TORSDOF 7
ENDMDL
