MODEL 1
REMARK VINA RESULT:     -12.7      0.000      0.000
REMARK  Name = 11659487
REMARK  5 active torsions:
REMARK  status: ('A' for Active; 'I' for Inactive)
REMARK    1  A    between atoms: C_1  and  C_15
REMARK    2  A    between atoms: C_2  and  C_7
REMARK    3  A    between atoms: C_10  and  O_13
REMARK    4  A    between atoms: C_15  and  C_16
REMARK    5  A    between atoms: C_16  and  C_18
REMARK                            x       y       z     vdW  Elec       q    Type
REMARK                         _______ _______ _______ _____ _____    ______ ____
ROOT
ATOM      1  C   UNL     1      34.947 -16.711 -23.547  0.00  0.00    -0.022 C 
ATOM      2  C   UNL     1      34.933 -18.950 -22.638  0.00  0.00    -0.000 C 
ATOM      3  C   UNL     1      35.065 -17.572 -22.457  0.00  0.00    -0.004 C 
ATOM      4  C   UNL     1      34.700 -17.227 -24.820  0.00  0.00    -0.004 C 
ATOM      5  C   UNL     1      34.686 -19.466 -23.910  0.00  0.00    -0.000 C 
ATOM      6  C   UNL     1      34.570 -18.604 -25.001  0.00  0.00    -0.000 C 
ENDROOT
BRANCH   2   7
ATOM      7  C   UNL     1      35.053 -19.843 -21.507  0.00  0.00    +0.003 C 
ATOM      8  C   UNL     1      33.912 -20.414 -20.944  0.00  0.00    +0.037 C 
ATOM      9  C   UNL     1      36.311 -20.135 -20.979  0.00  0.00    +0.000 C 
ATOM     10  C   UNL     1      34.028 -21.276 -19.853  0.00  0.00    +0.139 C 
ATOM     11  C   UNL     1      36.428 -20.996 -19.888  0.00  0.00    +0.003 C 
ATOM     12  C   UNL     1      35.286 -21.567 -19.325  0.00  0.00    +0.037 C 
BRANCH  10  13
ATOM     13  O   UNL     1      32.914 -21.833 -19.304  0.00  0.00    -0.471 OA
ATOM     14  C   UNL     1      33.106 -22.718 -18.202  0.00  0.00    +0.252 C 
ENDBRANCH  10  13
ENDBRANCH   2   7
BRANCH   1  15
ATOM     15  C   UNL     1      35.087 -15.239 -23.355  0.00  0.00    +0.034 C 
BRANCH  15  16
ATOM     16  C   UNL     1      33.915 -14.417 -23.926  0.00  0.00    +0.064 C 
BRANCH  16  18
ATOM     17  N   UNL     1      32.886 -12.342 -23.217  0.00  0.00    -0.396 NA
ATOM     18  C   UNL     1      33.190 -13.607 -22.878  0.00  0.00    +0.110 C 
ATOM     19  C   UNL     1      32.895 -14.200 -21.670  0.00  0.00    +0.023 C 
ATOM     20  C   UNL     1      32.227 -13.427 -20.727  0.00  0.00    -0.015 C 
ATOM     21  C   UNL     1      32.239 -11.622 -22.276  0.00  0.00    +0.158 C 
ATOM     22  C   UNL     1      31.889 -12.113 -21.027  0.00  0.00    +0.100 C 
ATOM     23  N   UNL     1      31.886 -10.280 -22.566  0.00  0.00    -0.336 N 
ATOM     24  H   UNL     1      32.115  -9.890 -23.440  0.00  0.00    +0.144 HD
ATOM     25  H   UNL     1      31.414  -9.738 -21.893  0.00  0.00    +0.144 HD
ENDBRANCH  16  18
ENDBRANCH  15  16
ENDBRANCH   1  15
TORSDOF 5
ENDMDL
MODEL 2
REMARK VINA RESULT:     -12.6      2.397      3.600
REMARK  Name = 11659487
REMARK  5 active torsions:
REMARK  status: ('A' for Active; 'I' for Inactive)
REMARK    1  A    between atoms: C_1  and  C_15
REMARK    2  A    between atoms: C_2  and  C_7
REMARK    3  A    between atoms: C_10  and  O_13
REMARK    4  A    between atoms: C_15  and  C_16
REMARK    5  A    between atoms: C_16  and  C_18
REMARK                            x       y       z     vdW  Elec       q    Type
REMARK                         _______ _______ _______ _____ _____    ______ ____
ROOT
ATOM      1  C   UNL     1      35.194 -18.944 -23.098  0.00  0.00    -0.022 C 
ATOM      2  C   UNL     1      35.556 -20.120 -21.018  0.00  0.00    -0.000 C 
ATOM      3  C   UNL     1      34.729 -19.794 -22.095  0.00  0.00    -0.004 C 
ATOM      4  C   UNL     1      36.484 -18.418 -23.024  0.00  0.00    -0.004 C 
ATOM      5  C   UNL     1      36.845 -19.594 -20.945  0.00  0.00    -0.000 C 
ATOM      6  C   UNL     1      37.310 -18.743 -21.948  0.00  0.00    -0.000 C 
ENDROOT
BRANCH   2   7
ATOM      7  C   UNL     1      35.075 -21.003 -19.978  0.00  0.00    +0.003 C 
ATOM      8  C   UNL     1      35.960 -21.508 -19.027  0.00  0.00    +0.037 C 
ATOM      9  C   UNL     1      33.725 -21.348 -19.927  0.00  0.00    +0.000 C 
ATOM     10  C   UNL     1      35.496 -22.359 -18.024  0.00  0.00    +0.139 C 
ATOM     11  C   UNL     1      33.260 -22.199 -18.924  0.00  0.00    +0.003 C 
ATOM     12  C   UNL     1      34.146 -22.704 -17.972  0.00  0.00    +0.037 C 
BRANCH  10  13
ATOM     13  O   UNL     1      36.361 -22.852 -17.095  0.00  0.00    -0.471 OA
ATOM     14  C   UNL     1      37.381 -21.974 -16.626  0.00  0.00    +0.252 C 
ENDBRANCH  10  13
ENDBRANCH   2   7
BRANCH   1  15
ATOM     15  C   UNL     1      34.312 -18.596 -24.249  0.00  0.00    +0.034 C 
BRANCH  15  16
ATOM     16  C   UNL     1      34.938 -17.594 -25.239  0.00  0.00    +0.064 C 
BRANCH  16  18
ATOM     17  N   UNL     1      34.100 -15.569 -26.271  0.00  0.00    -0.396 NA
ATOM     18  C   UNL     1      34.369 -16.201 -25.114  0.00  0.00    +0.110 C 
ATOM     19  C   UNL     1      34.167 -15.678 -23.856  0.00  0.00    +0.023 C 
ATOM     20  C   UNL     1      33.641 -14.393 -23.776  0.00  0.00    -0.015 C 
ATOM     21  C   UNL     1      33.592 -14.323 -26.154  0.00  0.00    +0.158 C 
ATOM     22  C   UNL     1      33.345 -13.696 -24.942  0.00  0.00    +0.100 C 
ATOM     23  N   UNL     1      33.284 -13.599 -27.332  0.00  0.00    -0.336 N 
ATOM     24  H   UNL     1      33.443 -14.005 -28.214  0.00  0.00    +0.144 HD
ATOM     25  H   UNL     1      32.912 -12.689 -27.268  0.00  0.00    +0.144 HD
ENDBRANCH  16  18
ENDBRANCH  15  16
ENDBRANCH   1  15
TORSDOF 5
ENDMDL
MODEL 3
REMARK VINA RESULT:     -12.5      4.384      8.476
REMARK  Name = 11659487
REMARK  5 active torsions:
REMARK  status: ('A' for Active; 'I' for Inactive)
REMARK    1  A    between atoms: C_1  and  C_15
REMARK    2  A    between atoms: C_2  and  C_7
REMARK    3  A    between atoms: C_10  and  O_13
REMARK    4  A    between atoms: C_15  and  C_16
REMARK    5  A    between atoms: C_16  and  C_18
REMARK                            x       y       z     vdW  Elec       q    Type
REMARK                         _______ _______ _______ _____ _____    ______ ____
ROOT
ATOM      1  C   UNL     1      34.489 -20.979 -20.081  0.00  0.00    -0.022 C 
ATOM      2  C   UNL     1      35.338 -19.401 -21.702  0.00  0.00    -0.000 C 
ATOM      3  C   UNL     1      34.268 -20.100 -21.141  0.00  0.00    -0.004 C 
ATOM      4  C   UNL     1      35.780 -21.161 -19.583  0.00  0.00    -0.004 C 
ATOM      5  C   UNL     1      36.628 -19.582 -21.203  0.00  0.00    -0.000 C 
ATOM      6  C   UNL     1      36.849 -20.462 -20.144  0.00  0.00    -0.000 C 
ENDROOT
BRANCH   2   7
ATOM      7  C   UNL     1      35.109 -18.488 -22.800  0.00  0.00    +0.003 C 
ATOM      8  C   UNL     1      35.290 -17.117 -22.618  0.00  0.00    +0.037 C 
ATOM      9  C   UNL     1      34.707 -18.978 -24.042  0.00  0.00    +0.000 C 
ATOM     10  C   UNL     1      35.069 -16.237 -23.677  0.00  0.00    +0.139 C 
ATOM     11  C   UNL     1      34.486 -18.099 -25.102  0.00  0.00    +0.003 C 
ATOM     12  C   UNL     1      34.668 -16.727 -24.920  0.00  0.00    +0.037 C 
BRANCH  10  13
ATOM     13  O   UNL     1      35.247 -14.899 -23.499  0.00  0.00    -0.471 OA
ATOM     14  C   UNL     1      34.081 -14.078 -23.535  0.00  0.00    +0.252 C 
ENDBRANCH  10  13
ENDBRANCH   2   7
BRANCH   1  15
ATOM     15  C   UNL     1      33.347 -21.727 -19.481  0.00  0.00    +0.034 C 
BRANCH  15  16
ATOM     16  C   UNL     1      33.769 -22.809 -18.467  0.00  0.00    +0.064 C 
BRANCH  16  18
ATOM     17  N   UNL     1      31.493 -22.743 -17.642  0.00  0.00    -0.396 NA
ATOM     18  C   UNL     1      32.781 -22.983 -17.339  0.00  0.00    +0.110 C 
ATOM     19  C   UNL     1      33.250 -23.366 -16.101  0.00  0.00    +0.023 C 
ATOM     20  C   UNL     1      32.314 -23.518 -15.084  0.00  0.00    -0.015 C 
ATOM     21  C   UNL     1      30.613 -22.900 -16.629  0.00  0.00    +0.158 C 
ATOM     22  C   UNL     1      30.968 -23.283 -15.344  0.00  0.00    +0.100 C 
ATOM     23  N   UNL     1      29.238 -22.665 -16.878  0.00  0.00    -0.336 N 
ATOM     24  H   UNL     1      28.940 -22.391 -17.775  0.00  0.00    +0.144 HD
ATOM     25  H   UNL     1      28.580 -22.774 -16.152  0.00  0.00    +0.144 HD
ENDBRANCH  16  18
ENDBRANCH  15  16
ENDBRANCH   1  15
TORSDOF 5
ENDMDL
MODEL 4
REMARK VINA RESULT:     -12.3      4.667      8.685
REMARK  Name = 11659487
REMARK  5 active torsions:
REMARK  status: ('A' for Active; 'I' for Inactive)
REMARK    1  A    between atoms: C_1  and  C_15
REMARK    2  A    between atoms: C_2  and  C_7
REMARK    3  A    between atoms: C_10  and  O_13
REMARK    4  A    between atoms: C_15  and  C_16
REMARK    5  A    between atoms: C_16  and  C_18
REMARK                            x       y       z     vdW  Elec       q    Type
REMARK                         _______ _______ _______ _____ _____    ______ ____
ROOT
ATOM      1  C   UNL     1      34.557 -20.848 -20.232  0.00  0.00    -0.022 C 
ATOM      2  C   UNL     1      35.383 -19.210 -21.805  0.00  0.00    -0.000 C 
ATOM      3  C   UNL     1      34.324 -19.943 -21.268  0.00  0.00    -0.004 C 
ATOM      4  C   UNL     1      35.849 -21.021 -19.734  0.00  0.00    -0.004 C 
ATOM      5  C   UNL     1      36.674 -19.383 -21.307  0.00  0.00    -0.000 C 
ATOM      6  C   UNL     1      36.907 -20.288 -20.272  0.00  0.00    -0.000 C 
ENDROOT
BRANCH   2   7
ATOM      7  C   UNL     1      35.141 -18.271 -22.878  0.00  0.00    +0.003 C 
ATOM      8  C   UNL     1      35.244 -16.900 -22.642  0.00  0.00    +0.037 C 
ATOM      9  C   UNL     1      34.807 -18.736 -24.150  0.00  0.00    +0.000 C 
ATOM     10  C   UNL     1      35.011 -15.995 -23.677  0.00  0.00    +0.139 C 
ATOM     11  C   UNL     1      34.574 -17.831 -25.185  0.00  0.00    +0.003 C 
ATOM     12  C   UNL     1      34.677 -16.460 -24.949  0.00  0.00    +0.037 C 
BRANCH  10  13
ATOM     13  O   UNL     1      35.111 -14.656 -23.447  0.00  0.00    -0.471 OA
ATOM     14  C   UNL     1      34.097 -13.823 -24.005  0.00  0.00    +0.252 C 
ENDBRANCH  10  13
ENDBRANCH   2   7
BRANCH   1  15
ATOM     15  C   UNL     1      33.426 -21.632 -19.657  0.00  0.00    +0.034 C 
BRANCH  15  16
ATOM     16  C   UNL     1      33.847 -22.981 -19.040  0.00  0.00    +0.064 C 
BRANCH  16  18
ATOM     17  N   UNL     1      34.586 -23.123 -16.738  0.00  0.00    -0.396 NA
ATOM     18  C   UNL     1      33.529 -23.086 -17.568  0.00  0.00    +0.110 C 
ATOM     19  C   UNL     1      32.208 -23.137 -17.178  0.00  0.00    +0.023 C 
ATOM     20  C   UNL     1      31.950 -23.233 -15.815  0.00  0.00    -0.015 C 
ATOM     21  C   UNL     1      34.296 -23.218 -15.422  0.00  0.00    +0.158 C 
ATOM     22  C   UNL     1      33.008 -23.275 -14.914  0.00  0.00    +0.100 C 
ATOM     23  N   UNL     1      35.363 -23.260 -14.491  0.00  0.00    -0.336 N 
ATOM     24  H   UNL     1      36.294 -23.222 -14.807  0.00  0.00    +0.144 HD
ATOM     25  H   UNL     1      35.173 -23.329 -13.527  0.00  0.00    +0.144 HD
ENDBRANCH  16  18
ENDBRANCH  15  16
ENDBRANCH   1  15
TORSDOF 5
ENDMDL
MODEL 5
REMARK VINA RESULT:     -12.2      3.690      7.661
REMARK  Name = 11659487
REMARK  5 active torsions:
REMARK  status: ('A' for Active; 'I' for Inactive)
REMARK    1  A    between atoms: C_1  and  C_15
REMARK    2  A    between atoms: C_2  and  C_7
REMARK    3  A    between atoms: C_10  and  O_13
REMARK    4  A    between atoms: C_15  and  C_16
REMARK    5  A    between atoms: C_16  and  C_18
REMARK                            x       y       z     vdW  Elec       q    Type
REMARK                         _______ _______ _______ _____ _____    ______ ____
ROOT
ATOM      1  C   UNL     1      35.093 -17.157 -23.909  0.00  0.00    -0.022 C 
ATOM      2  C   UNL     1      33.783 -15.160 -23.546  0.00  0.00    -0.000 C 
ATOM      3  C   UNL     1      34.542 -16.216 -23.040  0.00  0.00    -0.004 C 
ATOM      4  C   UNL     1      34.884 -17.044 -25.283  0.00  0.00    -0.004 C 
ATOM      5  C   UNL     1      33.574 -15.046 -24.919  0.00  0.00    -0.000 C 
ATOM      6  C   UNL     1      34.124 -15.989 -25.789  0.00  0.00    -0.000 C 
ENDROOT
BRANCH   2   7
ATOM      7  C   UNL     1      33.213 -14.183 -22.644  0.00  0.00    +0.003 C 
ATOM      8  C   UNL     1      32.882 -12.911 -23.112  0.00  0.00    +0.037 C 
ATOM      9  C   UNL     1      32.992 -14.512 -21.307  0.00  0.00    +0.000 C 
ATOM     10  C   UNL     1      32.332 -11.969 -22.242  0.00  0.00    +0.139 C 
ATOM     11  C   UNL     1      32.442 -13.571 -20.437  0.00  0.00    +0.003 C 
ATOM     12  C   UNL     1      32.111 -12.299 -20.905  0.00  0.00    +0.037 C 
BRANCH  10  13
ATOM     13  O   UNL     1      32.009 -10.728 -22.699  0.00  0.00    -0.471 OA
ATOM     14  C   UNL     1      31.799  -9.710 -21.722  0.00  0.00    +0.252 C 
ENDBRANCH  10  13
ENDBRANCH   2   7
BRANCH   1  15
ATOM     15  C   UNL     1      35.905 -18.287 -23.369  0.00  0.00    +0.034 C 
BRANCH  15  16
ATOM     16  C   UNL     1      36.183 -18.192 -21.856  0.00  0.00    +0.064 C 
BRANCH  16  18
ATOM     17  N   UNL     1      34.385 -19.588 -21.027  0.00  0.00    -0.396 NA
ATOM     18  C   UNL     1      35.716 -19.406 -21.089  0.00  0.00    +0.110 C 
ATOM     19  C   UNL     1      36.660 -20.229 -20.514  0.00  0.00    +0.023 C 
ATOM     20  C   UNL     1      36.196 -21.339 -19.815  0.00  0.00    -0.015 C 
ATOM     21  C   UNL     1      33.973 -20.675 -20.339  0.00  0.00    +0.158 C 
ATOM     22  C   UNL     1      34.829 -21.573 -19.721  0.00  0.00    +0.100 C 
ATOM     23  N   UNL     1      32.582 -20.928 -20.235  0.00  0.00    -0.336 N 
ATOM     24  H   UNL     1      31.938 -20.317 -20.658  0.00  0.00    +0.144 HD
ATOM     25  H   UNL     1      32.261 -21.715 -19.738  0.00  0.00    +0.144 HD
ENDBRANCH  16  18
ENDBRANCH  15  16
ENDBRANCH   1  15
TORSDOF 5
ENDMDL
MODEL 6
REMARK VINA RESULT:     -11.9      4.762      8.701
REMARK  Name = 11659487
REMARK  5 active torsions:
REMARK  status: ('A' for Active; 'I' for Inactive)
REMARK    1  A    between atoms: C_1  and  C_15
REMARK    2  A    between atoms: C_2  and  C_7
REMARK    3  A    between atoms: C_10  and  O_13
REMARK    4  A    between atoms: C_15  and  C_16
REMARK    5  A    between atoms: C_16  and  C_18
REMARK                            x       y       z     vdW  Elec       q    Type
REMARK                         _______ _______ _______ _____ _____    ______ ____
ROOT
ATOM      1  C   UNL     1      34.645 -20.529 -20.396  0.00  0.00    -0.022 C 
ATOM      2  C   UNL     1      35.376 -18.548 -21.570  0.00  0.00    -0.000 C 
ATOM      3  C   UNL     1      34.346 -19.371 -21.112  0.00  0.00    -0.004 C 
ATOM      4  C   UNL     1      35.974 -20.867 -20.140  0.00  0.00    -0.004 C 
ATOM      5  C   UNL     1      36.704 -18.885 -21.313  0.00  0.00    -0.000 C 
ATOM      6  C   UNL     1      37.004 -20.045 -20.598  0.00  0.00    -0.000 C 
ENDROOT
BRANCH   2   7
ATOM      7  C   UNL     1      35.066 -17.345 -22.311  0.00  0.00    +0.003 C 
ATOM      8  C   UNL     1      34.912 -17.398 -23.696  0.00  0.00    +0.037 C 
ATOM      9  C   UNL     1      34.918 -16.131 -21.640  0.00  0.00    +0.000 C 
ATOM     10  C   UNL     1      34.612 -16.238 -24.410  0.00  0.00    +0.139 C 
ATOM     11  C   UNL     1      34.618 -14.971 -22.353  0.00  0.00    +0.003 C 
ATOM     12  C   UNL     1      34.464 -15.025 -23.739  0.00  0.00    +0.037 C 
BRANCH  10  13
ATOM     13  O   UNL     1      34.462 -16.291 -25.763  0.00  0.00    -0.471 OA
ATOM     14  C   UNL     1      33.438 -15.481 -26.335  0.00  0.00    +0.252 C 
ENDBRANCH  10  13
ENDBRANCH   2   7
BRANCH   1  15
ATOM     15  C   UNL     1      33.545 -21.409 -19.906  0.00  0.00    +0.034 C 
BRANCH  15  16
ATOM     16  C   UNL     1      34.023 -22.778 -19.382  0.00  0.00    +0.064 C 
BRANCH  16  18
ATOM     17  N   UNL     1      34.593 -23.511 -17.145  0.00  0.00    -0.396 NA
ATOM     18  C   UNL     1      33.625 -23.037 -17.948  0.00  0.00    +0.110 C 
ATOM     19  C   UNL     1      32.327 -22.778 -17.565  0.00  0.00    +0.023 C 
ATOM     20  C   UNL     1      31.993 -23.026 -16.238  0.00  0.00    -0.015 C 
ATOM     21  C   UNL     1      34.231 -23.742 -15.864  0.00  0.00    +0.158 C 
ATOM     22  C   UNL     1      32.957 -23.518 -15.365  0.00  0.00    +0.100 C 
ATOM     23  N   UNL     1      35.203 -24.241 -14.961  0.00  0.00    -0.336 N 
ATOM     24  H   UNL     1      36.120 -24.415 -15.272  0.00  0.00    +0.144 HD
ATOM     25  H   UNL     1      34.959 -24.416 -14.023  0.00  0.00    +0.144 HD
ENDBRANCH  16  18
ENDBRANCH  15  16
ENDBRANCH   1  15
TORSDOF 5
ENDMDL
MODEL 7
REMARK VINA RESULT:     -11.7      5.382      9.386
REMARK  Name = 11659487
REMARK  5 active torsions:
REMARK  status: ('A' for Active; 'I' for Inactive)
REMARK    1  A    between atoms: C_1  and  C_15
REMARK    2  A    between atoms: C_2  and  C_7
REMARK    3  A    between atoms: C_10  and  O_13
REMARK    4  A    between atoms: C_15  and  C_16
REMARK    5  A    between atoms: C_16  and  C_18
REMARK                            x       y       z     vdW  Elec       q    Type
REMARK                         _______ _______ _______ _____ _____    ______ ____
ROOT
ATOM      1  C   UNL     1      35.738 -21.479 -19.285  0.00  0.00    -0.022 C 
ATOM      2  C   UNL     1      34.718 -20.043 -20.939  0.00  0.00    -0.000 C 
ATOM      3  C   UNL     1      35.856 -20.508 -20.279  0.00  0.00    -0.004 C 
ATOM      4  C   UNL     1      34.482 -21.984 -18.950  0.00  0.00    -0.004 C 
ATOM      5  C   UNL     1      33.462 -20.548 -20.604  0.00  0.00    -0.000 C 
ATOM      6  C   UNL     1      33.344 -21.519 -19.609  0.00  0.00    -0.000 C 
ENDROOT
BRANCH   2   7
ATOM      7  C   UNL     1      34.841 -19.037 -21.971  0.00  0.00    +0.003 C 
ATOM      8  C   UNL     1      34.911 -17.688 -21.626  0.00  0.00    +0.037 C 
ATOM      9  C   UNL     1      34.890 -19.416 -23.313  0.00  0.00    +0.000 C 
ATOM     10  C   UNL     1      35.030 -16.718 -22.622  0.00  0.00    +0.139 C 
ATOM     11  C   UNL     1      35.009 -18.448 -24.308  0.00  0.00    +0.003 C 
ATOM     12  C   UNL     1      35.080 -17.097 -23.963  0.00  0.00    +0.037 C 
BRANCH  10  13
ATOM     13  O   UNL     1      35.099 -15.400 -22.284  0.00  0.00    -0.471 OA
ATOM     14  C   UNL     1      34.487 -15.011 -21.056  0.00  0.00    +0.252 C 
ENDBRANCH  10  13
ENDBRANCH   2   7
BRANCH   1  15
ATOM     15  C   UNL     1      36.954 -21.976 -18.579  0.00  0.00    +0.034 C 
BRANCH  15  16
ATOM     16  C   UNL     1      37.044 -21.543 -17.102  0.00  0.00    +0.064 C 
BRANCH  16  18
ATOM     17  N   UNL     1      38.073 -23.272 -15.755  0.00  0.00    -0.396 NA
ATOM     18  C   UNL     1      36.919 -22.696 -16.136  0.00  0.00    +0.110 C 
ATOM     19  C   UNL     1      35.663 -23.077 -15.718  0.00  0.00    +0.023 C 
ATOM     20  C   UNL     1      35.583 -24.142 -14.828  0.00  0.00    -0.015 C 
ATOM     21  C   UNL     1      37.956 -24.304 -14.891  0.00  0.00    +0.158 C 
ATOM     22  C   UNL     1      36.747 -24.773 -14.401  0.00  0.00    +0.100 C 
ATOM     23  N   UNL     1      39.132 -24.957 -14.446  0.00  0.00    -0.336 N 
ATOM     24  H   UNL     1      40.012 -24.658 -14.768  0.00  0.00    +0.144 HD
ATOM     25  H   UNL     1      39.068 -25.712 -13.816  0.00  0.00    +0.144 HD
ENDBRANCH  16  18
ENDBRANCH  15  16
ENDBRANCH   1  15
TORSDOF 5
ENDMDL
MODEL 8
REMARK VINA RESULT:     -11.7      4.193      9.305
REMARK  Name = 11659487
REMARK  5 active torsions:
REMARK  status: ('A' for Active; 'I' for Inactive)
REMARK    1  A    between atoms: C_1  and  C_15
REMARK    2  A    between atoms: C_2  and  C_7
REMARK    3  A    between atoms: C_10  and  O_13
REMARK    4  A    between atoms: C_15  and  C_16
REMARK    5  A    between atoms: C_16  and  C_18
REMARK                            x       y       z     vdW  Elec       q    Type
REMARK                         _______ _______ _______ _____ _____    ______ ____
ROOT
ATOM      1  C   UNL     1      33.014 -13.778 -22.952  0.00  0.00    -0.022 C 
ATOM      2  C   UNL     1      32.361 -11.734 -21.841  0.00  0.00    -0.000 C 
ATOM      3  C   UNL     1      32.802 -12.399 -22.986  0.00  0.00    -0.004 C 
ATOM      4  C   UNL     1      32.786 -14.490 -21.775  0.00  0.00    -0.004 C 
ATOM      5  C   UNL     1      32.133 -12.445 -20.664  0.00  0.00    -0.000 C 
ATOM      6  C   UNL     1      32.346 -13.824 -20.630  0.00  0.00    -0.000 C 
ENDROOT
BRANCH   2   7
ATOM      7  C   UNL     1      32.141 -10.304 -21.876  0.00  0.00    +0.003 C 
ATOM      8  C   UNL     1      32.157  -9.566 -20.693  0.00  0.00    +0.037 C 
ATOM      9  C   UNL     1      31.912  -9.664 -23.094  0.00  0.00    +0.000 C 
ATOM     10  C   UNL     1      31.945  -8.188 -20.728  0.00  0.00    +0.139 C 
ATOM     11  C   UNL     1      31.700  -8.286 -23.129  0.00  0.00    +0.003 C 
ATOM     12  C   UNL     1      31.717  -7.547 -21.945  0.00  0.00    +0.037 C 
BRANCH  10  13
ATOM     13  O   UNL     1      31.961  -7.467 -19.572  0.00  0.00    -0.471 OA
ATOM     14  C   UNL     1      32.352  -6.099 -19.666  0.00  0.00    +0.252 C 
ENDBRANCH  10  13
ENDBRANCH   2   7
BRANCH   1  15
ATOM     15  C   UNL     1      33.485 -14.490 -24.175  0.00  0.00    +0.034 C 
BRANCH  15  16
ATOM     16  C   UNL     1      34.897 -15.096 -24.043  0.00  0.00    +0.064 C 
BRANCH  16  18
ATOM     17  N   UNL     1      35.211 -17.006 -22.588  0.00  0.00    -0.396 NA
ATOM     18  C   UNL     1      34.884 -16.590 -23.824  0.00  0.00    +0.110 C 
ATOM     19  C   UNL     1      34.548 -17.411 -24.878  0.00  0.00    +0.023 C 
ATOM     20  C   UNL     1      34.546 -18.781 -24.643  0.00  0.00    -0.015 C 
ATOM     21  C   UNL     1      35.199 -18.344 -22.397  0.00  0.00    +0.158 C 
ATOM     22  C   UNL     1      34.877 -19.265 -23.382  0.00  0.00    +0.100 C 
ATOM     23  N   UNL     1      35.532 -18.853 -21.118  0.00  0.00    -0.336 N 
ATOM     24  H   UNL     1      35.768 -18.235 -20.389  0.00  0.00    +0.144 HD
ATOM     25  H   UNL     1      35.530 -19.825 -20.958  0.00  0.00    +0.144 HD
ENDBRANCH  16  18
ENDBRANCH  15  16
ENDBRANCH   1  15
TORSDOF 5
ENDMDL
MODEL 9
REMARK VINA RESULT:     -11.6      2.434      4.033
REMARK  Name = 11659487
REMARK  5 active torsions:
REMARK  status: ('A' for Active; 'I' for Inactive)
REMARK    1  A    between atoms: C_1  and  C_15
REMARK    2  A    between atoms: C_2  and  C_7
REMARK    3  A    between atoms: C_10  and  O_13
REMARK    4  A    between atoms: C_15  and  C_16
REMARK    5  A    between atoms: C_16  and  C_18
REMARK                            x       y       z     vdW  Elec       q    Type
REMARK                         _______ _______ _______ _____ _____    ______ ____
ROOT
ATOM      1  C   UNL     1      33.529 -13.320 -24.354  0.00  0.00    -0.022 C 
ATOM      2  C   UNL     1      34.135 -15.641 -24.640  0.00  0.00    -0.000 C 
ATOM      3  C   UNL     1      33.952 -14.533 -23.811  0.00  0.00    -0.004 C 
ATOM      4  C   UNL     1      33.292 -13.214 -25.724  0.00  0.00    -0.004 C 
ATOM      5  C   UNL     1      33.897 -15.535 -26.010  0.00  0.00    -0.000 C 
ATOM      6  C   UNL     1      33.476 -14.321 -26.552  0.00  0.00    -0.000 C 
ENDROOT
BRANCH   2   7
ATOM      7  C   UNL     1      34.572 -16.900 -24.077  0.00  0.00    +0.003 C 
ATOM      8  C   UNL     1      35.119 -16.939 -22.795  0.00  0.00    +0.037 C 
ATOM      9  C   UNL     1      34.443 -18.076 -24.816  0.00  0.00    +0.000 C 
ATOM     10  C   UNL     1      35.540 -18.154 -22.252  0.00  0.00    +0.139 C 
ATOM     11  C   UNL     1      34.863 -19.291 -24.274  0.00  0.00    +0.003 C 
ATOM     12  C   UNL     1      35.411 -19.330 -22.991  0.00  0.00    +0.037 C 
BRANCH  10  13
ATOM     13  O   UNL     1      36.075 -18.192 -21.001  0.00  0.00    -0.471 OA
ATOM     14  C   UNL     1      37.251 -18.978 -20.820  0.00  0.00    +0.252 C 
ENDBRANCH  10  13
ENDBRANCH   2   7
BRANCH   1  15
ATOM     15  C   UNL     1      33.333 -12.135 -23.470  0.00  0.00    +0.034 C 
BRANCH  15  16
ATOM     16  C   UNL     1      32.215 -12.311 -22.423  0.00  0.00    +0.064 C 
BRANCH  16  18
ATOM     17  N   UNL     1      32.086  -9.918 -22.073  0.00  0.00    -0.396 NA
ATOM     18  C   UNL     1      32.082 -11.131 -21.491  0.00  0.00    +0.110 C 
ATOM     19  C   UNL     1      31.968 -11.364 -20.138  0.00  0.00    +0.023 C 
ATOM     20  C   UNL     1      31.847 -10.256 -19.308  0.00  0.00    -0.015 C 
ATOM     21  C   UNL     1      31.968  -8.865 -21.235  0.00  0.00    +0.158 C 
ATOM     22  C   UNL     1      31.846  -8.979 -19.858  0.00  0.00    +0.100 C 
ATOM     23  N   UNL     1      31.963  -7.557 -21.780  0.00  0.00    -0.336 N 
ATOM     24  H   UNL     1      32.048  -7.429 -22.752  0.00  0.00    +0.144 HD
ATOM     25  H   UNL     1      31.878  -6.776 -21.186  0.00  0.00    +0.144 HD
ENDBRANCH  16  18
ENDBRANCH  15  16
ENDBRANCH   1  15
TORSDOF 5
ENDMDL
