MODEL 1
REMARK VINA RESULT:     -13.9      0.000      0.000
REMARK  Name = 24808489
REMARK  4 active torsions:
REMARK  status: ('A' for Active; 'I' for Inactive)
REMARK    1  A    between atoms: N_1  and  C_10
REMARK    2  A    between atoms: N_1  and  C_21
REMARK    3  A    between atoms: C_18  and  C_24
REMARK    4  A    between atoms: C_24  and  N_25
REMARK                            x       y       z     vdW  Elec       q    Type
REMARK                         _______ _______ _______ _____ _____    ______ ____
ROOT
ATOM      1  N   UNL     1      35.675 -18.712 -21.537  0.00  0.00    -0.311 N 
ATOM      2  H   UNL     1      36.567 -18.797 -21.945  0.00  0.00    +0.152 HD
ENDROOT
BRANCH   1  10
ATOM      3 BR   UNL     1      32.425 -12.661 -20.650  0.00  0.00    -0.049 Br
ATOM      4  O   UNL     1      35.779 -18.799 -24.072  0.00  0.00    -0.270 OA
ATOM      5  O   UNL     1      34.041 -15.450 -26.685  0.00  0.00    -0.270 OA
ATOM      6  N   UNL     1      34.898 -17.104 -25.340  0.00  0.00    -0.248 N 
ATOM      7  C   UNL     1      34.764 -16.951 -22.923  0.00  0.00    +0.068 C 
ATOM      8  C   UNL     1      34.074 -15.652 -23.068  0.00  0.00    +0.010 C 
ATOM      9  C   UNL     1      33.829 -15.144 -24.356  0.00  0.00    +0.054 C 
ATOM     10  C   UNL     1      35.050 -17.533 -21.745  0.00  0.00    +0.066 C 
ATOM     11  C   UNL     1      35.200 -17.717 -24.133  0.00  0.00    +0.253 C 
ATOM     12  C   UNL     1      33.640 -14.885 -21.972  0.00  0.00    +0.007 C 
ATOM     13  C   UNL     1      34.254 -15.892 -25.560  0.00  0.00    +0.252 C 
ATOM     14  C   UNL     1      33.176 -13.914 -24.535  0.00  0.00    +0.005 C 
ATOM     15  C   UNL     1      32.990 -13.660 -22.152  0.00  0.00    +0.035 C 
ATOM     16  C   UNL     1      32.758 -13.175 -23.433  0.00  0.00    +0.007 C 
ATOM     17  H   UNL     1      35.178 -17.592 -26.149  0.00  0.00    +0.158 HD
ENDBRANCH   1  10
BRANCH   1  21
ATOM     18  C   UNL     1      34.332 -22.061 -19.391  0.00  0.00    -0.043 C 
ATOM     19  C   UNL     1      35.699 -21.804 -19.500  0.00  0.00    -0.005 C 
ATOM     20  C   UNL     1      33.412 -21.205 -19.996  0.00  0.00    -0.005 C 
ATOM     21  C   UNL     1      35.224 -19.836 -20.818  0.00  0.00    +0.048 C 
ATOM     22  C   UNL     1      36.145 -20.691 -20.213  0.00  0.00    +0.014 C 
ATOM     23  C   UNL     1      33.857 -20.093 -20.709  0.00  0.00    +0.014 C 
BRANCH  18  24
ATOM     24  C   UNL     1      33.856 -23.250 -18.629  0.00  0.00    -0.050 C 
BRANCH  24  25
ATOM     25  N   UNL     1      33.520 -22.929 -17.250  0.00  0.00    +0.390 N 
ATOM     26  C   UNL     1      32.117 -23.198 -16.939  0.00  0.00    -0.077 C 
ATOM     27  C   UNL     1      34.282 -23.726 -16.289  0.00  0.00    -0.077 C 
ATOM     28  C   UNL     1      32.093 -23.172 -15.418  0.00  0.00    -0.025 C 
ATOM     29  C   UNL     1      33.517 -23.516 -14.991  0.00  0.00    -0.025 C 
ATOM     30  H   UNL     1      33.738 -21.935 -17.169  0.00  0.00    -0.079 HD
ENDBRANCH  24  25
ENDBRANCH  18  24
ENDBRANCH   1  21
TORSDOF 4
ENDMDL
MODEL 2
REMARK VINA RESULT:     -13.5      4.016      9.796
REMARK  Name = 24808489
REMARK  4 active torsions:
REMARK  status: ('A' for Active; 'I' for Inactive)
REMARK    1  A    between atoms: N_1  and  C_10
REMARK    2  A    between atoms: N_1  and  C_21
REMARK    3  A    between atoms: C_18  and  C_24
REMARK    4  A    between atoms: C_24  and  N_25
REMARK                            x       y       z     vdW  Elec       q    Type
REMARK                         _______ _______ _______ _____ _____    ______ ____
ROOT
ATOM      1  N   UNL     1      34.686 -22.545 -18.998  0.00  0.00    -0.311 N 
ATOM      2  H   UNL     1      35.328 -23.290 -18.999  0.00  0.00    +0.152 HD
ENDROOT
BRANCH   1  10
ATOM      3 BR   UNL     1      28.121 -23.003 -16.840  0.00  0.00    -0.049 Br
ATOM      4  O   UNL     1      35.905 -23.208 -16.872  0.00  0.00    -0.270 OA
ATOM      5  O   UNL     1      33.651 -24.280 -13.020  0.00  0.00    -0.270 OA
ATOM      6  N   UNL     1      34.740 -23.737 -14.969  0.00  0.00    -0.248 N 
ATOM      7  C   UNL     1      33.508 -23.114 -16.963  0.00  0.00    +0.068 C 
ATOM      8  C   UNL     1      32.247 -23.301 -16.213  0.00  0.00    +0.010 C 
ATOM      9  C   UNL     1      32.303 -23.699 -14.866  0.00  0.00    +0.054 C 
ATOM     10  C   UNL     1      33.576 -22.735 -18.252  0.00  0.00    +0.066 C 
ATOM     11  C   UNL     1      34.828 -23.347 -16.298  0.00  0.00    +0.253 C 
ATOM     12  C   UNL     1      30.977 -23.098 -16.781  0.00  0.00    +0.007 C 
ATOM     13  C   UNL     1      33.602 -23.933 -14.196  0.00  0.00    +0.252 C 
ATOM     14  C   UNL     1      31.128 -23.888 -14.119  0.00  0.00    +0.005 C 
ATOM     15  C   UNL     1      29.809 -23.286 -16.037  0.00  0.00    +0.035 C 
ATOM     16  C   UNL     1      29.884 -23.681 -14.707  0.00  0.00    +0.007 C 
ATOM     17  H   UNL     1      35.598 -23.896 -14.513  0.00  0.00    +0.158 HD
ENDBRANCH   1  10
BRANCH   1  21
ATOM     18  C   UNL     1      35.765 -19.212 -21.310  0.00  0.00    -0.043 C 
ATOM     19  C   UNL     1      36.751 -19.978 -20.688  0.00  0.00    -0.005 C 
ATOM     20  C   UNL     1      34.421 -19.552 -21.163  0.00  0.00    -0.005 C 
ATOM     21  C   UNL     1      35.048 -21.426 -19.773  0.00  0.00    +0.048 C 
ATOM     22  C   UNL     1      36.392 -21.085 -19.920  0.00  0.00    +0.014 C 
ATOM     23  C   UNL     1      34.062 -20.659 -20.395  0.00  0.00    +0.014 C 
BRANCH  18  24
ATOM     24  C   UNL     1      36.149 -18.027 -22.131  0.00  0.00    -0.050 C 
BRANCH  24  25
ATOM     25  N   UNL     1      35.100 -17.632 -23.059  0.00  0.00    +0.390 N 
ATOM     26  C   UNL     1      35.140 -16.203 -23.371  0.00  0.00    -0.077 C 
ATOM     27  C   UNL     1      35.216 -18.306 -24.352  0.00  0.00    -0.077 C 
ATOM     28  C   UNL     1      34.256 -16.098 -24.604  0.00  0.00    -0.025 C 
ATOM     29  C   UNL     1      34.303 -17.481 -25.248  0.00  0.00    -0.025 C 
ATOM     30  H   UNL     1      34.237 -17.887 -22.579  0.00  0.00    -0.079 HD
ENDBRANCH  24  25
ENDBRANCH  18  24
ENDBRANCH   1  21
TORSDOF 4
ENDMDL
MODEL 3
REMARK VINA RESULT:     -12.8      4.430     10.418
REMARK  Name = 24808489
REMARK  4 active torsions:
REMARK  status: ('A' for Active; 'I' for Inactive)
REMARK    1  A    between atoms: N_1  and  C_10
REMARK    2  A    between atoms: N_1  and  C_21
REMARK    3  A    between atoms: C_18  and  C_24
REMARK    4  A    between atoms: C_24  and  N_25
REMARK                            x       y       z     vdW  Elec       q    Type
REMARK                         _______ _______ _______ _____ _____    ______ ____
ROOT
ATOM      1  N   UNL     1      33.992 -22.635 -18.680  0.00  0.00    -0.311 N 
ATOM      2  H   UNL     1      33.176 -23.084 -18.996  0.00  0.00    +0.152 HD
ENDROOT
BRANCH   1  10
ATOM      3 BR   UNL     1      38.132 -24.789 -13.562  0.00  0.00    -0.049 Br
ATOM      4  O   UNL     1      31.752 -22.663 -17.487  0.00  0.00    -0.270 OA
ATOM      5  O   UNL     1      31.360 -23.936 -13.095  0.00  0.00    -0.270 OA
ATOM      6  N   UNL     1      31.600 -23.306 -15.291  0.00  0.00    -0.248 N 
ATOM      7  C   UNL     1      33.775 -23.302 -16.365  0.00  0.00    +0.068 C 
ATOM      8  C   UNL     1      34.374 -23.773 -15.097  0.00  0.00    +0.010 C 
ATOM      9  C   UNL     1      33.544 -23.988 -13.984  0.00  0.00    +0.054 C 
ATOM     10  C   UNL     1      34.470 -23.064 -17.491  0.00  0.00    +0.066 C 
ATOM     11  C   UNL     1      32.302 -23.055 -16.461  0.00  0.00    +0.253 C 
ATOM     12  C   UNL     1      35.749 -24.022 -14.943  0.00  0.00    +0.007 C 
ATOM     13  C   UNL     1      32.086 -23.748 -14.066  0.00  0.00    +0.252 C 
ATOM     14  C   UNL     1      34.074 -24.434 -12.762  0.00  0.00    +0.005 C 
ATOM     15  C   UNL     1      36.276 -24.467 -13.726  0.00  0.00    +0.035 C 
ATOM     16  C   UNL     1      35.439 -24.673 -12.637  0.00  0.00    +0.007 C 
ATOM     17  H   UNL     1      30.629 -23.148 -15.334  0.00  0.00    +0.158 HD
ENDBRANCH   1  10
BRANCH   1  21
ATOM     18  C   UNL     1      35.518 -19.647 -21.202  0.00  0.00    -0.043 C 
ATOM     19  C   UNL     1      34.139 -19.817 -21.077  0.00  0.00    -0.005 C 
ATOM     20  C   UNL     1      36.390 -20.470 -20.490  0.00  0.00    -0.005 C 
ATOM     21  C   UNL     1      34.505 -21.633 -19.526  0.00  0.00    +0.048 C 
ATOM     22  C   UNL     1      33.633 -20.810 -20.239  0.00  0.00    +0.014 C 
ATOM     23  C   UNL     1      35.884 -21.463 -19.652  0.00  0.00    +0.014 C 
BRANCH  18  24
ATOM     24  C   UNL     1      36.059 -18.585 -22.099  0.00  0.00    -0.050 C 
BRANCH  24  25
ATOM     25  N   UNL     1      35.053 -18.064 -23.013  0.00  0.00    +0.390 N 
ATOM     26  C   UNL     1      35.230 -16.638 -23.283  0.00  0.00    -0.077 C 
ATOM     27  C   UNL     1      35.104 -18.709 -24.325  0.00  0.00    -0.077 C 
ATOM     28  C   UNL     1      34.360 -16.413 -24.511  0.00  0.00    -0.025 C 
ATOM     29  C   UNL     1      34.275 -17.774 -25.194  0.00  0.00    -0.025 C 
ATOM     30  H   UNL     1      34.169 -18.249 -22.538  0.00  0.00    -0.079 HD
ENDBRANCH  24  25
ENDBRANCH  18  24
ENDBRANCH   1  21
TORSDOF 4
ENDMDL
MODEL 4
REMARK VINA RESULT:     -12.4      5.235     11.078
REMARK  Name = 24808489
REMARK  4 active torsions:
REMARK  status: ('A' for Active; 'I' for Inactive)
REMARK    1  A    between atoms: N_1  and  C_10
REMARK    2  A    between atoms: N_1  and  C_21
REMARK    3  A    between atoms: C_18  and  C_24
REMARK    4  A    between atoms: C_24  and  N_25
REMARK                            x       y       z     vdW  Elec       q    Type
REMARK                         _______ _______ _______ _____ _____    ______ ____
ROOT
ATOM      1  N   UNL     1      34.765 -22.773 -17.319  0.00  0.00    -0.311 N 
ATOM      2  H   UNL     1      33.837 -22.858 -17.003  0.00  0.00    +0.152 HD
ENDROOT
BRANCH   1  10
ATOM      3 BR   UNL     1      40.591 -25.761 -15.061  0.00  0.00    -0.049 Br
ATOM      4  O   UNL     1      33.330 -22.954 -15.233  0.00  0.00    -0.270 OA
ATOM      5  O   UNL     1      34.892 -24.892 -11.377  0.00  0.00    -0.270 OA
ATOM      6  N   UNL     1      34.150 -23.930 -13.326  0.00  0.00    -0.248 N 
ATOM      7  C   UNL     1      35.580 -23.790 -15.281  0.00  0.00    +0.068 C 
ATOM      8  C   UNL     1      36.651 -24.462 -14.514  0.00  0.00    +0.010 C 
ATOM      9  C   UNL     1      36.410 -24.836 -13.181  0.00  0.00    +0.054 C 
ATOM     10  C   UNL     1      35.697 -23.390 -16.559  0.00  0.00    +0.066 C 
ATOM     11  C   UNL     1      34.254 -23.510 -14.644  0.00  0.00    +0.253 C 
ATOM     12  C   UNL     1      37.916 -24.753 -15.055  0.00  0.00    +0.007 C 
ATOM     13  C   UNL     1      35.104 -24.565 -12.540  0.00  0.00    +0.252 C 
ATOM     14  C   UNL     1      37.402 -25.475 -12.419  0.00  0.00    +0.005 C 
ATOM     15  C   UNL     1      38.903 -25.389 -14.295  0.00  0.00    +0.035 C 
ATOM     16  C   UNL     1      38.646 -25.751 -12.979  0.00  0.00    +0.007 C 
ATOM     17  H   UNL     1      33.285 -23.753 -12.889  0.00  0.00    +0.158 HD
ENDBRANCH   1  10
BRANCH   1  21
ATOM     18  C   UNL     1      35.293 -20.545 -20.837  0.00  0.00    -0.043 C 
ATOM     19  C   UNL     1      34.009 -20.897 -20.420  0.00  0.00    -0.005 C 
ATOM     20  C   UNL     1      36.401 -20.934 -20.086  0.00  0.00    -0.005 C 
ATOM     21  C   UNL     1      34.943 -22.026 -18.499  0.00  0.00    +0.048 C 
ATOM     22  C   UNL     1      33.834 -21.638 -19.251  0.00  0.00    +0.014 C 
ATOM     23  C   UNL     1      36.227 -21.675 -18.917  0.00  0.00    +0.014 C 
BRANCH  18  24
ATOM     24  C   UNL     1      35.479 -19.755 -22.088  0.00  0.00    -0.050 C 
BRANCH  24  25
ATOM     25  N   UNL     1      34.857 -18.441 -22.012  0.00  0.00    +0.390 N 
ATOM     26  C   UNL     1      35.516 -17.566 -21.042  0.00  0.00    -0.077 C 
ATOM     27  C   UNL     1      34.922 -17.718 -23.281  0.00  0.00    -0.077 C 
ATOM     28  C   UNL     1      34.981 -16.189 -21.406  0.00  0.00    -0.025 C 
ATOM     29  C   UNL     1      34.588 -16.290 -22.877  0.00  0.00    -0.025 C 
ATOM     30  H   UNL     1      33.893 -18.640 -21.742  0.00  0.00    -0.079 HD
ENDBRANCH  24  25
ENDBRANCH  18  24
ENDBRANCH   1  21
TORSDOF 4
ENDMDL
MODEL 5
REMARK VINA RESULT:     -12.3      5.696      9.000
REMARK  Name = 24808489
REMARK  4 active torsions:
REMARK  status: ('A' for Active; 'I' for Inactive)
REMARK    1  A    between atoms: N_1  and  C_10
REMARK    2  A    between atoms: N_1  and  C_21
REMARK    3  A    between atoms: C_18  and  C_24
REMARK    4  A    between atoms: C_24  and  N_25
REMARK                            x       y       z     vdW  Elec       q    Type
REMARK                         _______ _______ _______ _____ _____    ______ ____
ROOT
ATOM      1  N   UNL     1      31.685 -11.577 -22.315  0.00  0.00    -0.311 N 
ATOM      2  H   UNL     1      30.833 -11.843 -21.901  0.00  0.00    +0.152 HD
ENDROOT
BRANCH   1  10
ATOM      3 BR   UNL     1      32.403  -5.438 -25.439  0.00  0.00    -0.049 Br
ATOM      4  O   UNL     1      31.663 -10.844 -19.884  0.00  0.00    -0.270 OA
ATOM      5  O   UNL     1      32.053  -6.433 -18.679  0.00  0.00    -0.270 OA
ATOM      6  N   UNL     1      31.860  -8.629 -19.325  0.00  0.00    -0.248 N 
ATOM      7  C   UNL     1      31.888  -9.255 -21.669  0.00  0.00    +0.068 C 
ATOM      8  C   UNL     1      32.041  -7.826 -22.022  0.00  0.00    +0.010 C 
ATOM      9  C   UNL     1      32.096  -6.868 -20.997  0.00  0.00    +0.054 C 
ATOM     10  C   UNL     1      31.824 -10.256 -22.564  0.00  0.00    +0.066 C 
ATOM     11  C   UNL     1      31.792  -9.674 -20.235  0.00  0.00    +0.253 C 
ATOM     12  C   UNL     1      32.136  -7.370 -23.349  0.00  0.00    +0.007 C 
ATOM     13  C   UNL     1      32.003  -7.270 -19.576  0.00  0.00    +0.252 C 
ATOM     14  C   UNL     1      32.241  -5.502 -21.292  0.00  0.00    +0.005 C 
ATOM     15  C   UNL     1      32.279  -6.010 -23.641  0.00  0.00    +0.035 C 
ATOM     16  C   UNL     1      32.332  -5.077 -22.613  0.00  0.00    +0.007 C 
ATOM     17  H   UNL     1      31.797  -8.885 -18.376  0.00  0.00    +0.158 HD
ENDBRANCH   1  10
BRANCH   1  21
ATOM     18  C   UNL     1      34.398 -14.692 -23.062  0.00  0.00    -0.043 C 
ATOM     19  C   UNL     1      34.329 -13.603 -23.932  0.00  0.00    -0.005 C 
ATOM     20  C   UNL     1      33.565 -14.746 -21.945  0.00  0.00    -0.005 C 
ATOM     21  C   UNL     1      32.595 -12.623 -22.566  0.00  0.00    +0.048 C 
ATOM     22  C   UNL     1      33.427 -12.569 -23.683  0.00  0.00    +0.014 C 
ATOM     23  C   UNL     1      32.664 -13.712 -21.696  0.00  0.00    +0.014 C 
BRANCH  18  24
ATOM     24  C   UNL     1      35.361 -15.799 -23.329  0.00  0.00    -0.050 C 
BRANCH  24  25
ATOM     25  N   UNL     1      34.699 -17.084 -23.493  0.00  0.00    +0.390 N 
ATOM     26  C   UNL     1      34.703 -17.541 -24.883  0.00  0.00    -0.077 C 
ATOM     27  C   UNL     1      35.357 -18.152 -22.741  0.00  0.00    -0.077 C 
ATOM     28  C   UNL     1      34.337 -19.012 -24.760  0.00  0.00    -0.025 C 
ATOM     29  C   UNL     1      34.763 -19.413 -23.351  0.00  0.00    -0.025 C 
ATOM     30  H   UNL     1      33.750 -16.918 -23.157  0.00  0.00    -0.079 HD
ENDBRANCH  24  25
ENDBRANCH  18  24
ENDBRANCH   1  21
TORSDOF 4
ENDMDL
MODEL 6
REMARK VINA RESULT:     -12.1      4.156      9.942
REMARK  Name = 24808489
REMARK  4 active torsions:
REMARK  status: ('A' for Active; 'I' for Inactive)
REMARK    1  A    between atoms: N_1  and  C_10
REMARK    2  A    between atoms: N_1  and  C_21
REMARK    3  A    between atoms: C_18  and  C_24
REMARK    4  A    between atoms: C_24  and  N_25
REMARK                            x       y       z     vdW  Elec       q    Type
REMARK                         _______ _______ _______ _____ _____    ______ ____
ROOT
ATOM      1  N   UNL     1      36.194 -21.806 -18.751  0.00  0.00    -0.311 N 
ATOM      2  H   UNL     1      37.121 -22.123 -18.662  0.00  0.00    +0.152 HD
ENDROOT
BRANCH   1  10
ATOM      3 BR   UNL     1      30.449 -24.181 -15.698  0.00  0.00    -0.049 Br
ATOM      4  O   UNL     1      37.872 -22.146 -16.876  0.00  0.00    -0.270 OA
ATOM      5  O   UNL     1      36.651 -23.916 -12.822  0.00  0.00    -0.270 OA
ATOM      6  N   UNL     1      37.219 -23.034 -14.865  0.00  0.00    -0.248 N 
ATOM      7  C   UNL     1      35.561 -22.740 -16.611  0.00  0.00    +0.068 C 
ATOM      8  C   UNL     1      34.539 -23.300 -15.700  0.00  0.00    +0.010 C 
ATOM      9  C   UNL     1      34.917 -23.699 -14.407  0.00  0.00    +0.054 C 
ATOM     10  C   UNL     1      35.314 -22.325 -17.866  0.00  0.00    +0.066 C 
ATOM     11  C   UNL     1      36.982 -22.602 -16.162  0.00  0.00    +0.253 C 
ATOM     12  C   UNL     1      33.189 -23.454 -16.062  0.00  0.00    +0.007 C 
ATOM     13  C   UNL     1      36.319 -23.568 -13.951  0.00  0.00    +0.252 C 
ATOM     14  C   UNL     1      33.977 -24.236 -13.512  0.00  0.00    +0.005 C 
ATOM     15  C   UNL     1      32.254 -23.989 -15.170  0.00  0.00    +0.035 C 
ATOM     16  C   UNL     1      32.647 -24.379 -13.897  0.00  0.00    +0.007 C 
ATOM     17  H   UNL     1      38.150 -22.953 -14.552  0.00  0.00    +0.158 HD
ENDBRANCH   1  10
BRANCH   1  21
ATOM     18  C   UNL     1      35.506 -19.025 -21.819  0.00  0.00    -0.043 C 
ATOM     19  C   UNL     1      34.456 -19.809 -21.339  0.00  0.00    -0.005 C 
ATOM     20  C   UNL     1      36.784 -19.165 -21.279  0.00  0.00    -0.005 C 
ATOM     21  C   UNL     1      35.964 -20.873 -19.781  0.00  0.00    +0.048 C 
ATOM     22  C   UNL     1      34.685 -20.733 -20.320  0.00  0.00    +0.014 C 
ATOM     23  C   UNL     1      37.013 -20.089 -20.260  0.00  0.00    +0.014 C 
BRANCH  18  24
ATOM     24  C   UNL     1      35.261 -18.037 -22.909  0.00  0.00    -0.050 C 
BRANCH  24  25
ATOM     25  N   UNL     1      35.366 -16.662 -22.446  0.00  0.00    +0.390 N 
ATOM     26  C   UNL     1      34.825 -15.705 -23.411  0.00  0.00    -0.077 C 
ATOM     27  C   UNL     1      34.612 -16.428 -21.215  0.00  0.00    -0.077 C 
ATOM     28  C   UNL     1      34.679 -14.434 -22.587  0.00  0.00    -0.025 C 
ATOM     29  C   UNL     1      34.542 -14.909 -21.143  0.00  0.00    -0.025 C 
ATOM     30  H   UNL     1      36.367 -16.525 -22.304  0.00  0.00    -0.079 HD
ENDBRANCH  24  25
ENDBRANCH  18  24
ENDBRANCH   1  21
TORSDOF 4
ENDMDL
MODEL 7
REMARK VINA RESULT:     -11.4      0.944      1.673
REMARK  Name = 24808489
REMARK  4 active torsions:
REMARK  status: ('A' for Active; 'I' for Inactive)
REMARK    1  A    between atoms: N_1  and  C_10
REMARK    2  A    between atoms: N_1  and  C_21
REMARK    3  A    between atoms: C_18  and  C_24
REMARK    4  A    between atoms: C_24  and  N_25
REMARK                            x       y       z     vdW  Elec       q    Type
REMARK                         _______ _______ _______ _____ _____    ______ ____
ROOT
ATOM      1  N   UNL     1      35.923 -18.338 -21.815  0.00  0.00    -0.311 N 
ATOM      2  H   UNL     1      36.797 -18.369 -22.266  0.00  0.00    +0.152 HD
ENDROOT
BRANCH   1  10
ATOM      3 BR   UNL     1      32.429 -12.464 -20.697  0.00  0.00    -0.049 Br
ATOM      4  O   UNL     1      35.859 -18.423 -24.351  0.00  0.00    -0.270 OA
ATOM      5  O   UNL     1      33.776 -15.173 -26.833  0.00  0.00    -0.270 OA
ATOM      6  N   UNL     1      34.807 -16.778 -25.554  0.00  0.00    -0.248 N 
ATOM      7  C   UNL     1      34.830 -16.629 -23.132  0.00  0.00    +0.068 C 
ATOM      8  C   UNL     1      34.064 -15.367 -23.228  0.00  0.00    +0.010 C 
ATOM      9  C   UNL     1      33.707 -14.875 -24.495  0.00  0.00    +0.054 C 
ATOM     10  C   UNL     1      35.224 -17.194 -21.977  0.00  0.00    +0.066 C 
ATOM     11  C   UNL     1      35.222 -17.373 -24.371  0.00  0.00    +0.253 C 
ATOM     12  C   UNL     1      33.666 -14.623 -22.103  0.00  0.00    +0.007 C 
ATOM     13  C   UNL     1      34.088 -15.602 -25.727  0.00  0.00    +0.252 C 
ATOM     14  C   UNL     1      32.980 -13.681 -24.627  0.00  0.00    +0.005 C 
ATOM     15  C   UNL     1      32.943 -13.434 -22.236  0.00  0.00    +0.035 C 
ATOM     16  C   UNL     1      32.600 -12.963 -23.497  0.00  0.00    +0.007 C 
ATOM     17  H   UNL     1      35.057 -17.252 -26.380  0.00  0.00    +0.158 HD
ENDBRANCH   1  10
BRANCH   1  21
ATOM     18  C   UNL     1      34.869 -21.780 -19.654  0.00  0.00    -0.043 C 
ATOM     19  C   UNL     1      33.875 -20.940 -20.157  0.00  0.00    -0.005 C 
ATOM     20  C   UNL     1      36.213 -21.476 -19.870  0.00  0.00    -0.005 C 
ATOM     21  C   UNL     1      35.569 -19.493 -21.089  0.00  0.00    +0.048 C 
ATOM     22  C   UNL     1      34.225 -19.796 -20.874  0.00  0.00    +0.014 C 
ATOM     23  C   UNL     1      36.564 -20.333 -20.587  0.00  0.00    +0.014 C 
BRANCH  18  24
ATOM     24  C   UNL     1      34.494 -23.002 -18.887  0.00  0.00    -0.050 C 
BRANCH  24  25
ATOM     25  N   UNL     1      35.285 -23.162 -17.676  0.00  0.00    +0.390 N 
ATOM     26  C   UNL     1      36.182 -22.030 -17.441  0.00  0.00    -0.077 C 
ATOM     27  C   UNL     1      34.456 -23.245 -16.474  0.00  0.00    -0.077 C 
ATOM     28  C   UNL     1      36.592 -22.215 -15.988  0.00  0.00    -0.025 C 
ATOM     29  C   UNL     1      35.459 -23.016 -15.353  0.00  0.00    -0.025 C 
ATOM     30  H   UNL     1      35.806 -24.025 -17.833  0.00  0.00    -0.079 HD
ENDBRANCH  24  25
ENDBRANCH  18  24
ENDBRANCH   1  21
TORSDOF 4
ENDMDL
MODEL 8
REMARK VINA RESULT:     -11.0      7.224     11.049
REMARK  Name = 24808489
REMARK  4 active torsions:
REMARK  status: ('A' for Active; 'I' for Inactive)
REMARK    1  A    between atoms: N_1  and  C_10
REMARK    2  A    between atoms: N_1  and  C_21
REMARK    3  A    between atoms: C_18  and  C_24
REMARK    4  A    between atoms: C_24  and  N_25
REMARK                            x       y       z     vdW  Elec       q    Type
REMARK                         _______ _______ _______ _____ _____    ______ ____
ROOT
ATOM      1  N   UNL     1      33.226  -8.467 -22.729  0.00  0.00    -0.311 N 
ATOM      2  H   UNL     1      33.079  -8.124 -21.818  0.00  0.00    +0.152 HD
ENDROOT
BRANCH   1  10
ATOM      3 BR   UNL     1      36.364  -4.856 -27.737  0.00  0.00    -0.049 Br
ATOM      4  O   UNL     1      31.177  -7.018 -22.347  0.00  0.00    -0.270 OA
ATOM      5  O   UNL     1      30.453  -3.166 -24.736  0.00  0.00    -0.270 OA
ATOM      6  N   UNL     1      30.853  -5.101 -23.563  0.00  0.00    -0.248 N 
ATOM      7  C   UNL     1      32.834  -6.436 -23.984  0.00  0.00    +0.068 C 
ATOM      8  C   UNL     1      33.241  -5.461 -25.018  0.00  0.00    +0.010 C 
ATOM      9  C   UNL     1      32.424  -4.346 -25.270  0.00  0.00    +0.054 C 
ATOM     10  C   UNL     1      33.536  -7.536 -23.658  0.00  0.00    +0.066 C 
ATOM     11  C   UNL     1      31.564  -6.240 -23.215  0.00  0.00    +0.253 C 
ATOM     12  C   UNL     1      34.420  -5.590 -25.773  0.00  0.00    +0.007 C 
ATOM     13  C   UNL     1      31.167  -4.140 -24.517  0.00  0.00    +0.252 C 
ATOM     14  C   UNL     1      32.776  -3.397 -26.245  0.00  0.00    +0.005 C 
ATOM     15  C   UNL     1      34.770  -4.645 -26.743  0.00  0.00    +0.035 C 
ATOM     16  C   UNL     1      33.948  -3.550 -26.978  0.00  0.00    +0.007 C 
ATOM     17  H   UNL     1      30.014  -4.954 -23.069  0.00  0.00    +0.158 HD
ENDBRANCH   1  10
BRANCH   1  21
ATOM     18  C   UNL     1      32.810 -12.617 -23.199  0.00  0.00    -0.043 C 
ATOM     19  C   UNL     1      33.730 -11.915 -23.978  0.00  0.00    -0.005 C 
ATOM     20  C   UNL     1      32.027 -11.940 -22.264  0.00  0.00    -0.005 C 
ATOM     21  C   UNL     1      33.085  -9.859 -22.887  0.00  0.00    +0.048 C 
ATOM     22  C   UNL     1      33.868 -10.536 -23.822  0.00  0.00    +0.014 C 
ATOM     23  C   UNL     1      32.165 -10.561 -22.108  0.00  0.00    +0.014 C 
BRANCH  18  24
ATOM     24  C   UNL     1      32.662 -14.091 -23.367  0.00  0.00    -0.050 C 
BRANCH  24  25
ATOM     25  N   UNL     1      33.873 -14.716 -23.879  0.00  0.00    +0.390 N 
ATOM     26  C   UNL     1      34.481 -15.631 -22.914  0.00  0.00    -0.077 C 
ATOM     27  C   UNL     1      33.622 -15.529 -25.068  0.00  0.00    -0.077 C 
ATOM     28  C   UNL     1      35.453 -16.432 -23.767  0.00  0.00    -0.025 C 
ATOM     29  C   UNL     1      34.890 -16.362 -25.184  0.00  0.00    -0.025 C 
ATOM     30  H   UNL     1      34.488 -13.928 -24.087  0.00  0.00    -0.079 HD
ENDBRANCH  24  25
ENDBRANCH  18  24
ENDBRANCH   1  21
TORSDOF 4
ENDMDL
