MODEL 1
REMARK VINA RESULT:     -14.0      0.000      0.000
REMARK  Name = 10389239
REMARK  2 active torsions:
REMARK  status: ('A' for Active; 'I' for Inactive)
REMARK    1  A    between atoms: C_2  and  C_14
REMARK    2  A    between atoms: C_4  and  C_20
REMARK                            x       y       z     vdW  Elec       q    Type
REMARK                         _______ _______ _______ _____ _____    ______ ____
ROOT
ATOM      1  N   UNL     1      35.241 -17.939 -24.267  0.00  0.00    -0.244 NA
ATOM      2  C   UNL     1      34.214 -15.428 -23.599  0.00  0.00    +0.016 C 
ATOM      3  C   UNL     1      34.499 -16.351 -22.601  0.00  0.00    +0.020 C 
ATOM      4  C   UNL     1      35.007 -17.583 -22.984  0.00  0.00    +0.083 C 
ATOM      5  C   UNL     1      34.440 -15.757 -24.931  0.00  0.00    +0.022 C 
ATOM      6  C   UNL     1      34.952 -17.015 -25.209  0.00  0.00    +0.099 C 
ENDROOT
BRANCH   2  14
ATOM      7  O   UNL     1      33.853  -9.838 -23.893  0.00  0.00    -0.270 OA
ATOM      8  N   UNL     1      32.735 -13.968 -22.276  0.00  0.00    -0.316 N 
ATOM      9  N   UNL     1      32.046  -9.939 -22.456  0.00  0.00    -0.300 N 
ATOM     10  C   UNL     1      32.431 -12.642 -22.171  0.00  0.00    +0.031 C 
ATOM     11  C   UNL     1      31.474 -12.037 -21.214  0.00  0.00    +0.063 C 
ATOM     12  C   UNL     1      33.181 -11.941 -23.092  0.00  0.00    +0.064 C 
ATOM     13  C   UNL     1      30.979 -10.718 -21.816  0.00  0.00    +0.096 C 
ATOM     14  C   UNL     1      33.684 -14.130 -23.256  0.00  0.00    +0.048 C 
ATOM     15  C   UNL     1      33.983 -12.886 -23.776  0.00  0.00    +0.020 C 
ATOM     16  C   UNL     1      33.079 -10.499 -23.206  0.00  0.00    +0.247 C 
ATOM     17  H   UNL     1      32.340 -14.691 -21.737  0.00  0.00    +0.152 HD
ATOM     18  H   UNL     1      32.031  -8.960 -22.347  0.00  0.00    +0.150 HD
ENDBRANCH   2  14
BRANCH   4  20
ATOM     19  N   UNL     1      36.984 -19.692 -20.634  0.00  0.00    -0.244 NA
ATOM     20  C   UNL     1      35.327 -18.592 -22.003  0.00  0.00    +0.037 C 
ATOM     21  C   UNL     1      34.347 -19.424 -21.481  0.00  0.00    +0.005 C 
ATOM     22  C   UNL     1      34.683 -20.397 -20.530  0.00  0.00    +0.018 C 
ATOM     23  C   UNL     1      36.032 -20.498 -20.129  0.00  0.00    +0.081 C 
ATOM     24  C   UNL     1      36.620 -18.766 -21.550  0.00  0.00    +0.100 C 
ATOM     25  C   UNL     1      33.713 -21.255 -19.981  0.00  0.00    +0.001 C 
ATOM     26  C   UNL     1      36.364 -21.465 -19.184  0.00  0.00    +0.019 C 
ATOM     27  C   UNL     1      34.074 -22.214 -19.038  0.00  0.00    +0.000 C 
ATOM     28  C   UNL     1      35.401 -22.318 -18.639  0.00  0.00    +0.002 C 
ENDBRANCH   4  20
TORSDOF 2
ENDMDL
MODEL 2
REMARK VINA RESULT:     -13.8      1.145      1.573
REMARK  Name = 10389239
REMARK  2 active torsions:
REMARK  status: ('A' for Active; 'I' for Inactive)
REMARK    1  A    between atoms: C_2  and  C_14
REMARK    2  A    between atoms: C_4  and  C_20
REMARK                            x       y       z     vdW  Elec       q    Type
REMARK                         _______ _______ _______ _____ _____    ______ ____
ROOT
ATOM      1  N   UNL     1      35.145 -17.682 -24.490  0.00  0.00    -0.244 NA
ATOM      2  C   UNL     1      34.146 -15.164 -23.806  0.00  0.00    +0.016 C 
ATOM      3  C   UNL     1      34.473 -16.077 -22.811  0.00  0.00    +0.020 C 
ATOM      4  C   UNL     1      34.965 -17.312 -23.202  0.00  0.00    +0.083 C 
ATOM      5  C   UNL     1      34.316 -15.507 -25.143  0.00  0.00    +0.022 C 
ATOM      6  C   UNL     1      34.816 -16.767 -25.429  0.00  0.00    +0.099 C 
ENDROOT
BRANCH   2  14
ATOM      7  O   UNL     1      30.734 -11.590 -21.151  0.00  0.00    -0.270 OA
ATOM      8  N   UNL     1      34.095 -12.712 -24.043  0.00  0.00    -0.316 N 
ATOM      9  N   UNL     1      31.947  -9.847 -22.062  0.00  0.00    -0.300 N 
ATOM     10  C   UNL     1      33.424 -11.645 -23.519  0.00  0.00    +0.031 C 
ATOM     11  C   UNL     1      33.604 -10.225 -23.902  0.00  0.00    +0.063 C 
ATOM     12  C   UNL     1      32.524 -12.106 -22.581  0.00  0.00    +0.064 C 
ATOM     13  C   UNL     1      33.169  -9.360 -22.714  0.00  0.00    +0.096 C 
ATOM     14  C   UNL     1      33.630 -13.863 -23.454  0.00  0.00    +0.048 C 
ATOM     15  C   UNL     1      32.649 -13.515 -22.546  0.00  0.00    +0.020 C 
ATOM     16  C   UNL     1      31.655 -11.195 -21.859  0.00  0.00    +0.247 C 
ATOM     17  H   UNL     1      34.798 -12.665 -24.731  0.00  0.00    +0.152 HD
ATOM     18  H   UNL     1      31.294  -9.181 -21.749  0.00  0.00    +0.150 HD
ENDBRANCH   2  14
BRANCH   4  20
ATOM     19  N   UNL     1      37.029 -19.350 -20.864  0.00  0.00    -0.244 NA
ATOM     20  C   UNL     1      35.326 -18.312 -22.225  0.00  0.00    +0.037 C 
ATOM     21  C   UNL     1      34.382 -19.183 -21.705  0.00  0.00    +0.005 C 
ATOM     22  C   UNL     1      34.757 -20.145 -20.757  0.00  0.00    +0.018 C 
ATOM     23  C   UNL     1      36.110 -20.195 -20.360  0.00  0.00    +0.081 C 
ATOM     24  C   UNL     1      36.626 -18.437 -21.776  0.00  0.00    +0.100 C 
ATOM     25  C   UNL     1      33.824 -21.043 -20.209  0.00  0.00    +0.001 C 
ATOM     26  C   UNL     1      36.482 -21.150 -19.419  0.00  0.00    +0.019 C 
ATOM     27  C   UNL     1      34.224 -21.989 -19.269  0.00  0.00    +0.000 C 
ATOM     28  C   UNL     1      35.555 -22.043 -18.874  0.00  0.00    +0.002 C 
ENDBRANCH   4  20
TORSDOF 2
ENDMDL
MODEL 3
REMARK VINA RESULT:     -13.5      2.771      8.598
REMARK  Name = 10389239
REMARK  2 active torsions:
REMARK  status: ('A' for Active; 'I' for Inactive)
REMARK    1  A    between atoms: C_2  and  C_14
REMARK    2  A    between atoms: C_4  and  C_20
REMARK                            x       y       z     vdW  Elec       q    Type
REMARK                         _______ _______ _______ _____ _____    ______ ____
ROOT
ATOM      1  N   UNL     1      34.523 -15.854 -25.138  0.00  0.00    -0.244 NA
ATOM      2  C   UNL     1      34.777 -17.795 -23.145  0.00  0.00    +0.016 C 
ATOM      3  C   UNL     1      34.346 -16.515 -22.819  0.00  0.00    +0.020 C 
ATOM      4  C   UNL     1      34.237 -15.588 -23.844  0.00  0.00    +0.083 C 
ATOM      5  C   UNL     1      35.082 -18.107 -24.465  0.00  0.00    +0.022 C 
ATOM      6  C   UNL     1      34.939 -17.109 -25.416  0.00  0.00    +0.099 C 
ENDROOT
BRANCH   2  14
ATOM      7  O   UNL     1      32.931 -21.792 -19.669  0.00  0.00    -0.270 OA
ATOM      8  N   UNL     1      36.095 -19.017 -21.460  0.00  0.00    -0.316 N 
ATOM      9  N   UNL     1      35.117 -22.140 -19.004  0.00  0.00    -0.300 N 
ATOM     10  C   UNL     1      35.918 -20.015 -20.546  0.00  0.00    +0.031 C 
ATOM     11  C   UNL     1      36.943 -20.537 -19.611  0.00  0.00    +0.063 C 
ATOM     12  C   UNL     1      34.611 -20.451 -20.615  0.00  0.00    +0.064 C 
ATOM     13  C   UNL     1      36.555 -21.974 -19.245  0.00  0.00    +0.096 C 
ATOM     14  C   UNL     1      34.908 -18.799 -22.116  0.00  0.00    +0.048 C 
ATOM     15  C   UNL     1      33.968 -19.673 -21.606  0.00  0.00    +0.020 C 
ATOM     16  C   UNL     1      34.123 -21.506 -19.747  0.00  0.00    +0.247 C 
ATOM     17  H   UNL     1      36.937 -18.532 -21.623  0.00  0.00    +0.152 HD
ATOM     18  H   UNL     1      34.838 -22.737 -18.272  0.00  0.00    +0.150 HD
ENDBRANCH   2  14
BRANCH   4  20
ATOM     19  N   UNL     1      33.770 -11.911 -24.223  0.00  0.00    -0.244 NA
ATOM     20  C   UNL     1      33.795 -14.239 -23.582  0.00  0.00    +0.037 C 
ATOM     21  C   UNL     1      33.000 -13.943 -22.485  0.00  0.00    +0.005 C 
ATOM     22  C   UNL     1      32.584 -12.625 -22.251  0.00  0.00    +0.018 C 
ATOM     23  C   UNL     1      32.998 -11.626 -23.158  0.00  0.00    +0.081 C 
ATOM     24  C   UNL     1      34.150 -13.195 -24.413  0.00  0.00    +0.100 C 
ATOM     25  C   UNL     1      31.777 -12.292 -21.149  0.00  0.00    +0.001 C 
ATOM     26  C   UNL     1      32.584 -10.318 -22.925  0.00  0.00    +0.019 C 
ATOM     27  C   UNL     1      31.378 -10.974 -20.941  0.00  0.00    +0.000 C 
ATOM     28  C   UNL     1      31.783  -9.986 -21.830  0.00  0.00    +0.002 C 
ENDBRANCH   4  20
TORSDOF 2
ENDMDL
MODEL 4
REMARK VINA RESULT:     -13.1      6.251     11.654
REMARK  Name = 10389239
REMARK  2 active torsions:
REMARK  status: ('A' for Active; 'I' for Inactive)
REMARK    1  A    between atoms: C_2  and  C_14
REMARK    2  A    between atoms: C_4  and  C_20
REMARK                            x       y       z     vdW  Elec       q    Type
REMARK                         _______ _______ _______ _____ _____    ______ ____
ROOT
ATOM      1  N   UNL     1      32.570 -22.503 -18.186  0.00  0.00    -0.244 NA
ATOM      2  C   UNL     1      34.525 -23.530 -16.474  0.00  0.00    +0.016 C 
ATOM      3  C   UNL     1      34.889 -22.708 -17.533  0.00  0.00    +0.020 C 
ATOM      4  C   UNL     1      33.882 -22.225 -18.354  0.00  0.00    +0.083 C 
ATOM      5  C   UNL     1      33.185 -23.841 -16.268  0.00  0.00    +0.022 C 
ATOM      6  C   UNL     1      32.255 -23.305 -17.145  0.00  0.00    +0.099 C 
ENDROOT
BRANCH   2  14
ATOM      7  O   UNL     1      36.421 -25.870 -11.742  0.00  0.00    -0.270 OA
ATOM      8  N   UNL     1      36.871 -24.015 -15.899  0.00  0.00    -0.316 N 
ATOM      9  N   UNL     1      38.526 -25.947 -12.694  0.00  0.00    -0.300 N 
ATOM     10  C   UNL     1      37.580 -24.584 -14.881  0.00  0.00    +0.031 C 
ATOM     11  C   UNL     1      39.054 -24.711 -14.807  0.00  0.00    +0.063 C 
ATOM     12  C   UNL     1      36.698 -25.006 -13.908  0.00  0.00    +0.064 C 
ATOM     13  C   UNL     1      39.378 -25.894 -13.888  0.00  0.00    +0.096 C 
ATOM     14  C   UNL     1      35.533 -24.061 -15.588  0.00  0.00    +0.048 C 
ATOM     15  C   UNL     1      35.398 -24.666 -14.354  0.00  0.00    +0.020 C 
ATOM     16  C   UNL     1      37.165 -25.643 -12.692  0.00  0.00    +0.247 C 
ATOM     17  H   UNL     1      37.254 -23.635 -16.722  0.00  0.00    +0.152 HD
ATOM     18  H   UNL     1      38.941 -26.214 -11.842  0.00  0.00    +0.150 HD
ENDBRANCH   2  14
BRANCH   4  20
ATOM     19  N   UNL     1      33.413 -20.145 -21.409  0.00  0.00    -0.244 NA
ATOM     20  C   UNL     1      34.184 -21.366 -19.473  0.00  0.00    +0.037 C 
ATOM     21  C   UNL     1      35.478 -20.929 -19.717  0.00  0.00    +0.005 C 
ATOM     22  C   UNL     1      35.747 -20.095 -20.811  0.00  0.00    +0.018 C 
ATOM     23  C   UNL     1      34.670 -19.723 -21.643  0.00  0.00    +0.081 C 
ATOM     24  C   UNL     1      33.196 -20.949 -20.344  0.00  0.00    +0.100 C 
ATOM     25  C   UNL     1      37.047 -19.635 -21.084  0.00  0.00    +0.001 C 
ATOM     26  C   UNL     1      34.937 -18.895 -22.729  0.00  0.00    +0.019 C 
ATOM     27  C   UNL     1      37.285 -18.808 -22.178  0.00  0.00    +0.000 C 
ATOM     28  C   UNL     1      36.229 -18.437 -23.001  0.00  0.00    +0.002 C 
ENDBRANCH   4  20
TORSDOF 2
ENDMDL
MODEL 5
REMARK VINA RESULT:     -13.1      0.958      1.179
REMARK  Name = 10389239
REMARK  2 active torsions:
REMARK  status: ('A' for Active; 'I' for Inactive)
REMARK    1  A    between atoms: C_2  and  C_14
REMARK    2  A    between atoms: C_4  and  C_20
REMARK                            x       y       z     vdW  Elec       q    Type
REMARK                         _______ _______ _______ _____ _____    ______ ____
ROOT
ATOM      1  N   UNL     1      35.290 -19.151 -23.690  0.00  0.00    -0.244 NA
ATOM      2  C   UNL     1      34.453 -16.509 -23.325  0.00  0.00    +0.016 C 
ATOM      3  C   UNL     1      34.602 -17.350 -22.228  0.00  0.00    +0.020 C 
ATOM      4  C   UNL     1      35.019 -18.651 -22.463  0.00  0.00    +0.083 C 
ATOM      5  C   UNL     1      34.720 -16.986 -24.604  0.00  0.00    +0.022 C 
ATOM      6  C   UNL     1      35.133 -18.303 -24.730  0.00  0.00    +0.099 C 
ENDROOT
BRANCH   2  14
ATOM      7  O   UNL     1      34.359 -11.008 -24.412  0.00  0.00    -0.270 OA
ATOM      8  N   UNL     1      33.168 -14.785 -22.123  0.00  0.00    -0.316 N 
ATOM      9  N   UNL     1      32.676 -10.787 -22.844  0.00  0.00    -0.300 N 
ATOM     10  C   UNL     1      32.943 -13.440 -22.193  0.00  0.00    +0.031 C 
ATOM     11  C   UNL     1      32.102 -12.646 -21.266  0.00  0.00    +0.063 C 
ATOM     12  C   UNL     1      33.648 -12.928 -23.261  0.00  0.00    +0.064 C 
ATOM     13  C   UNL     1      31.627 -11.397 -22.018  0.00  0.00    +0.096 C 
ATOM     14  C   UNL     1      34.021 -15.145 -23.138  0.00  0.00    +0.048 C 
ATOM     15  C   UNL     1      34.340 -14.009 -23.857  0.00  0.00    +0.020 C 
ATOM     16  C   UNL     1      33.611 -11.513 -23.580  0.00  0.00    +0.247 C 
ATOM     17  H   UNL     1      32.782 -15.396 -21.456  0.00  0.00    +0.152 HD
ATOM     18  H   UNL     1      32.721  -9.804 -22.881  0.00  0.00    +0.150 HD
ENDBRANCH   2  14
BRANCH   4  20
ATOM     19  N   UNL     1      36.674 -20.670 -19.804  0.00  0.00    -0.244 NA
ATOM     20  C   UNL     1      35.196 -19.582 -21.374  0.00  0.00    +0.037 C 
ATOM     21  C   UNL     1      34.122 -20.280 -20.842  0.00  0.00    +0.005 C 
ATOM     22  C   UNL     1      34.319 -21.178 -19.784  0.00  0.00    +0.018 C 
ATOM     23  C   UNL     1      35.630 -21.345 -19.289  0.00  0.00    +0.081 C 
ATOM     24  C   UNL     1      36.442 -19.812 -20.824  0.00  0.00    +0.100 C 
ATOM     25  C   UNL     1      33.251 -21.900 -19.223  0.00  0.00    +0.001 C 
ATOM     26  C   UNL     1      35.824 -22.238 -18.239  0.00  0.00    +0.019 C 
ATOM     27  C   UNL     1      33.475 -22.786 -18.173  0.00  0.00    +0.000 C 
ATOM     28  C   UNL     1      34.764 -22.955 -17.681  0.00  0.00    +0.002 C 
ENDBRANCH   4  20
TORSDOF 2
ENDMDL
MODEL 6
REMARK VINA RESULT:     -13.0      3.134     10.391
REMARK  Name = 10389239
REMARK  2 active torsions:
REMARK  status: ('A' for Active; 'I' for Inactive)
REMARK    1  A    between atoms: C_2  and  C_14
REMARK    2  A    between atoms: C_4  and  C_20
REMARK                            x       y       z     vdW  Elec       q    Type
REMARK                         _______ _______ _______ _____ _____    ______ ____
ROOT
ATOM      1  N   UNL     1      31.576 -10.111 -21.246  0.00  0.00    -0.244 NA
ATOM      2  C   UNL     1      32.757 -12.475 -22.154  0.00  0.00    +0.016 C 
ATOM      3  C   UNL     1      32.883 -11.305 -22.893  0.00  0.00    +0.020 C 
ATOM      4  C   UNL     1      32.279 -10.159 -22.400  0.00  0.00    +0.083 C 
ATOM      5  C   UNL     1      32.041 -12.467 -20.962  0.00  0.00    +0.022 C 
ATOM      6  C   UNL     1      31.475 -11.268 -20.555  0.00  0.00    +0.099 C 
ENDROOT
BRANCH   2  14
ATOM      7  O   UNL     1      34.391 -16.190 -26.025  0.00  0.00    -0.270 OA
ATOM      8  N   UNL     1      33.848 -14.647 -21.754  0.00  0.00    -0.316 N 
ATOM      9  N   UNL     1      35.394 -17.414 -24.342  0.00  0.00    -0.300 N 
ATOM     10  C   UNL     1      34.360 -15.686 -22.477  0.00  0.00    +0.031 C 
ATOM     11  C   UNL     1      34.952 -16.927 -21.925  0.00  0.00    +0.063 C 
ATOM     12  C   UNL     1      34.215 -15.404 -23.819  0.00  0.00    +0.064 C 
ATOM     13  C   UNL     1      35.918 -17.491 -22.973  0.00  0.00    +0.096 C 
ATOM     14  C   UNL     1      33.367 -13.697 -22.621  0.00  0.00    +0.048 C 
ATOM     15  C   UNL     1      33.576 -14.144 -23.910  0.00  0.00    +0.020 C 
ATOM     16  C   UNL     1      34.660 -16.337 -24.837  0.00  0.00    +0.247 C 
ATOM     17  H   UNL     1      33.827 -14.588 -20.771  0.00  0.00    +0.152 HD
ATOM     18  H   UNL     1      35.573 -18.169 -24.947  0.00  0.00    +0.150 HD
ENDBRANCH   2  14
BRANCH   4  20
ATOM     19  N   UNL     1      31.263  -6.951 -24.000  0.00  0.00    -0.244 NA
ATOM     20  C   UNL     1      32.367  -8.907 -23.112  0.00  0.00    +0.037 C 
ATOM     21  C   UNL     1      33.580  -8.438 -23.594  0.00  0.00    +0.005 C 
ATOM     22  C   UNL     1      33.641  -7.219 -24.283  0.00  0.00    +0.018 C 
ATOM     23  C   UNL     1      32.441  -6.498 -24.467  0.00  0.00    +0.081 C 
ATOM     24  C   UNL     1      31.247  -8.132 -23.341  0.00  0.00    +0.100 C 
ATOM     25  C   UNL     1      34.854  -6.715 -24.783  0.00  0.00    +0.001 C 
ATOM     26  C   UNL     1      32.502  -5.288 -25.151  0.00  0.00    +0.019 C 
ATOM     27  C   UNL     1      34.886  -5.501 -25.465  0.00  0.00    +0.000 C 
ATOM     28  C   UNL     1      33.708  -4.787 -25.648  0.00  0.00    +0.002 C 
ENDBRANCH   4  20
TORSDOF 2
ENDMDL
MODEL 7
REMARK VINA RESULT:     -12.9      2.870      8.485
REMARK  Name = 10389239
REMARK  2 active torsions:
REMARK  status: ('A' for Active; 'I' for Inactive)
REMARK    1  A    between atoms: C_2  and  C_14
REMARK    2  A    between atoms: C_4  and  C_20
REMARK                            x       y       z     vdW  Elec       q    Type
REMARK                         _______ _______ _______ _____ _____    ______ ____
ROOT
ATOM      1  N   UNL     1      34.681 -15.862 -25.027  0.00  0.00    -0.244 NA
ATOM      2  C   UNL     1      34.754 -17.892 -23.108  0.00  0.00    +0.016 C 
ATOM      3  C   UNL     1      34.293 -16.626 -22.766  0.00  0.00    +0.020 C 
ATOM      4  C   UNL     1      34.277 -15.654 -23.754  0.00  0.00    +0.083 C 
ATOM      5  C   UNL     1      35.180 -18.145 -24.407  0.00  0.00    +0.022 C 
ATOM      6  C   UNL     1      35.123 -17.105 -25.321  0.00  0.00    +0.099 C 
ENDROOT
BRANCH   2  14
ATOM      7  O   UNL     1      37.242 -21.477 -19.586  0.00  0.00    -0.270 OA
ATOM      8  N   UNL     1      33.654 -19.590 -21.702  0.00  0.00    -0.316 N 
ATOM      9  N   UNL     1      35.147 -22.126 -18.859  0.00  0.00    -0.300 N 
ATOM     10  C   UNL     1      33.996 -20.528 -20.772  0.00  0.00    +0.031 C 
ATOM     11  C   UNL     1      33.070 -21.463 -20.091  0.00  0.00    +0.063 C 
ATOM     12  C   UNL     1      35.361 -20.483 -20.579  0.00  0.00    +0.064 C 
ATOM     13  C   UNL     1      33.706 -21.866 -18.756  0.00  0.00    +0.096 C 
ATOM     14  C   UNL     1      34.792 -18.942 -22.118  0.00  0.00    +0.048 C 
ATOM     15  C   UNL     1      35.867 -19.481 -21.441  0.00  0.00    +0.020 C 
ATOM     16  C   UNL     1      36.020 -21.380 -19.649  0.00  0.00    +0.247 C 
ATOM     17  H   UNL     1      32.741 -19.407 -22.023  0.00  0.00    +0.152 HD
ATOM     18  H   UNL     1      35.519 -22.875 -18.339  0.00  0.00    +0.150 HD
ENDBRANCH   2  14
BRANCH   4  20
ATOM     19  N   UNL     1      33.687 -11.993 -24.119  0.00  0.00    -0.244 NA
ATOM     20  C   UNL     1      33.812 -14.317 -23.473  0.00  0.00    +0.037 C 
ATOM     21  C   UNL     1      33.067 -14.038 -22.336  0.00  0.00    +0.005 C 
ATOM     22  C   UNL     1      32.626 -12.732 -22.085  0.00  0.00    +0.018 C 
ATOM     23  C   UNL     1      32.964 -11.726 -23.015  0.00  0.00    +0.081 C 
ATOM     24  C   UNL     1      34.093 -13.267 -24.325  0.00  0.00    +0.100 C 
ATOM     25  C   UNL     1      31.869 -12.417 -20.944  0.00  0.00    +0.001 C 
ATOM     26  C   UNL     1      32.525 -10.429 -22.765  0.00  0.00    +0.019 C 
ATOM     27  C   UNL     1      31.444 -11.110 -20.718  0.00  0.00    +0.000 C 
ATOM     28  C   UNL     1      31.773 -10.115 -21.631  0.00  0.00    +0.002 C 
ENDBRANCH   4  20
TORSDOF 2
ENDMDL
MODEL 8
REMARK VINA RESULT:     -12.9      3.409     10.422
REMARK  Name = 10389239
REMARK  2 active torsions:
REMARK  status: ('A' for Active; 'I' for Inactive)
REMARK    1  A    between atoms: C_2  and  C_14
REMARK    2  A    between atoms: C_4  and  C_20
REMARK                            x       y       z     vdW  Elec       q    Type
REMARK                         _______ _______ _______ _____ _____    ______ ____
ROOT
ATOM      1  N   UNL     1      31.546 -10.207 -21.296  0.00  0.00    -0.244 NA
ATOM      2  C   UNL     1      32.732 -12.561 -22.222  0.00  0.00    +0.016 C 
ATOM      3  C   UNL     1      32.870 -11.381 -22.944  0.00  0.00    +0.020 C 
ATOM      4  C   UNL     1      32.262 -10.241 -22.442  0.00  0.00    +0.083 C 
ATOM      5  C   UNL     1      32.002 -12.567 -21.039  0.00  0.00    +0.022 C 
ATOM      6  C   UNL     1      31.435 -11.373 -20.622  0.00  0.00    +0.099 C 
ENDROOT
BRANCH   2  14
ATOM      7  O   UNL     1      35.645 -17.327 -21.721  0.00  0.00    -0.270 OA
ATOM      8  N   UNL     1      33.359 -14.110 -24.032  0.00  0.00    -0.316 N 
ATOM      9  N   UNL     1      35.210 -17.759 -23.949  0.00  0.00    -0.300 N 
ATOM     10  C   UNL     1      34.005 -15.303 -24.183  0.00  0.00    +0.031 C 
ATOM     11  C   UNL     1      34.263 -16.002 -25.463  0.00  0.00    +0.063 C 
ATOM     12  C   UNL     1      34.406 -15.749 -22.940  0.00  0.00    +0.064 C 
ATOM     13  C   UNL     1      34.420 -17.496 -25.159  0.00  0.00    +0.096 C 
ATOM     14  C   UNL     1      33.345 -13.778 -22.700  0.00  0.00    +0.048 C 
ATOM     15  C   UNL     1      33.993 -14.776 -21.999  0.00  0.00    +0.020 C 
ATOM     16  C   UNL     1      35.132 -16.995 -22.785  0.00  0.00    +0.247 C 
ATOM     17  H   UNL     1      32.967 -13.575 -24.760  0.00  0.00    +0.152 HD
ATOM     18  H   UNL     1      35.832 -18.521 -23.961  0.00  0.00    +0.150 HD
ENDBRANCH   2  14
BRANCH   4  20
ATOM     19  N   UNL     1      31.274  -7.004 -24.001  0.00  0.00    -0.244 NA
ATOM     20  C   UNL     1      32.362  -8.979 -23.136  0.00  0.00    +0.037 C 
ATOM     21  C   UNL     1      33.580  -8.510 -23.605  0.00  0.00    +0.005 C 
ATOM     22  C   UNL     1      33.651  -7.282 -24.276  0.00  0.00    +0.018 C 
ATOM     23  C   UNL     1      32.457  -6.552 -24.455  0.00  0.00    +0.081 C 
ATOM     24  C   UNL     1      31.247  -8.194 -23.359  0.00  0.00    +0.100 C 
ATOM     25  C   UNL     1      34.871  -6.778 -24.762  0.00  0.00    +0.001 C 
ATOM     26  C   UNL     1      32.529  -5.332 -25.121  0.00  0.00    +0.019 C 
ATOM     27  C   UNL     1      34.913  -5.555 -25.426  0.00  0.00    +0.000 C 
ATOM     28  C   UNL     1      33.741  -4.831 -25.605  0.00  0.00    +0.002 C 
ENDBRANCH   4  20
TORSDOF 2
ENDMDL
MODEL 9
REMARK VINA RESULT:     -12.5      5.202      8.557
REMARK  Name = 10389239
REMARK  2 active torsions:
REMARK  status: ('A' for Active; 'I' for Inactive)
REMARK    1  A    between atoms: C_2  and  C_14
REMARK    2  A    between atoms: C_4  and  C_20
REMARK                            x       y       z     vdW  Elec       q    Type
REMARK                         _______ _______ _______ _____ _____    ______ ____
ROOT
ATOM      1  N   UNL     1      36.003 -23.362 -15.886  0.00  0.00    -0.244 NA
ATOM      2  C   UNL     1      36.049 -21.806 -18.206  0.00  0.00    +0.016 C 
ATOM      3  C   UNL     1      34.844 -22.305 -17.726  0.00  0.00    +0.020 C 
ATOM      4  C   UNL     1      34.875 -23.071 -16.572  0.00  0.00    +0.083 C 
ATOM      5  C   UNL     1      37.232 -22.085 -17.530  0.00  0.00    +0.022 C 
ATOM      6  C   UNL     1      37.155 -22.860 -16.384  0.00  0.00    +0.099 C 
ENDROOT
BRANCH   2  14
ATOM      7  O   UNL     1      38.437 -18.553 -22.101  0.00  0.00    -0.270 OA
ATOM      8  N   UNL     1      34.935 -20.729 -20.121  0.00  0.00    -0.316 N 
ATOM      9  N   UNL     1      36.433 -18.560 -23.251  0.00  0.00    -0.300 N 
ATOM     10  C   UNL     1      35.264 -19.950 -21.193  0.00  0.00    +0.031 C 
ATOM     11  C   UNL     1      34.323 -19.410 -22.203  0.00  0.00    +0.063 C 
ATOM     12  C   UNL     1      36.624 -19.722 -21.173  0.00  0.00    +0.064 C 
ATOM     13  C   UNL     1      35.114 -19.157 -23.491  0.00  0.00    +0.096 C 
ATOM     14  C   UNL     1      36.075 -21.002 -19.405  0.00  0.00    +0.048 C 
ATOM     15  C   UNL     1      37.138 -20.383 -20.033  0.00  0.00    +0.020 C 
ATOM     16  C   UNL     1      37.266 -18.910 -22.190  0.00  0.00    +0.247 C 
ATOM     17  H   UNL     1      34.030 -21.045 -19.899  0.00  0.00    +0.152 HD
ATOM     18  H   UNL     1      36.749 -17.871 -23.879  0.00  0.00    +0.150 HD
ENDBRANCH   2  14
BRANCH   4  20
ATOM     19  N   UNL     1      32.595 -24.978 -14.324  0.00  0.00    -0.244 NA
ATOM     20  C   UNL     1      33.663 -23.622 -16.013  0.00  0.00    +0.037 C 
ATOM     21  C   UNL     1      32.425 -23.358 -16.580  0.00  0.00    +0.005 C 
ATOM     22  C   UNL     1      31.262 -23.904 -16.020  0.00  0.00    +0.018 C 
ATOM     23  C   UNL     1      31.395 -24.720 -14.876  0.00  0.00    +0.081 C 
ATOM     24  C   UNL     1      33.693 -24.432 -14.895  0.00  0.00    +0.100 C 
ATOM     25  C   UNL     1      29.993 -23.655 -16.570  0.00  0.00    +0.001 C 
ATOM     26  C   UNL     1      30.240 -25.262 -14.320  0.00  0.00    +0.019 C 
ATOM     27  C   UNL     1      28.854 -24.211 -15.993  0.00  0.00    +0.000 C 
ATOM     28  C   UNL     1      28.978 -25.015 -14.867  0.00  0.00    +0.002 C 
ENDBRANCH   4  20
TORSDOF 2
ENDMDL
