MODEL 1
REMARK VINA RESULT:     -13.6      0.000      0.000
REMARK  Name = 5288711
REMARK  4 active torsions:
REMARK  status: ('A' for Active; 'I' for Inactive)
REMARK    1  A    between atoms: C_1  and  S_7
REMARK    2  A    between atoms: C_2  and  N_17
REMARK    3  A    between atoms: S_7  and  N_11
REMARK    4  A    between atoms: N_17  and  C_25
REMARK                            x       y       z     vdW  Elec       q    Type
REMARK                         _______ _______ _______ _____ _____    ______ ____
ROOT
ATOM      1  C   UNL     1      34.469 -21.864 -19.271  0.00  0.00    +0.125 C 
ATOM      2  C   UNL     1      35.489 -19.965 -21.052  0.00  0.00    +0.048 C 
ATOM      3  C   UNL     1      35.847 -21.688 -19.389  0.00  0.00    +0.021 C 
ATOM      4  C   UNL     1      33.599 -21.092 -20.041  0.00  0.00    +0.021 C 
ATOM      5  C   UNL     1      36.357 -20.741 -20.277  0.00  0.00    +0.016 C 
ATOM      6  C   UNL     1      34.108 -20.144 -20.930  0.00  0.00    +0.016 C 
ENDROOT
BRANCH   1   7
ATOM      7  S   UNL     1      33.830 -23.049 -18.159  0.00  0.00    +0.075 S 
ATOM      8  O   UNL     1      33.611 -24.293 -18.887  0.00  0.00    -0.150 OA
ATOM      9  O   UNL     1      34.683 -23.051 -16.977  0.00  0.00    -0.150 OA
BRANCH   7  11
ATOM     10  S   UNL     1      29.905 -23.198 -16.664  0.00  0.00    -0.050 S 
ATOM     11  N   UNL     1      32.305 -22.357 -17.775  0.00  0.00    -0.194 N 
ATOM     12  N   UNL     1      32.236 -23.325 -15.554  0.00  0.00    -0.221 NA
ATOM     13  C   UNL     1      31.592 -22.960 -16.627  0.00  0.00    +0.179 C 
ATOM     14  C   UNL     1      30.008 -23.864 -15.087  0.00  0.00    +0.059 C 
ATOM     15  C   UNL     1      31.320 -23.848 -14.662  0.00  0.00    +0.108 C 
ATOM     16  H   UNL     1      31.928 -21.605 -18.286  0.00  0.00    +0.176 HD
ENDBRANCH   7  11
ENDBRANCH   1   7
BRANCH   2  17
ATOM     17  N   UNL     1      36.002 -19.012 -21.946  0.00  0.00    -0.311 N 
ATOM     18  H   UNL     1      36.756 -19.312 -22.504  0.00  0.00    +0.152 HD
BRANCH  17  25
ATOM     19  O   UNL     1      34.926 -19.197 -24.632  0.00  0.00    -0.270 OA
ATOM     20  N   UNL     1      34.107 -17.092 -25.323  0.00  0.00    -0.280 N 
ATOM     21  C   UNL     1      34.574 -15.840 -23.452  0.00  0.00    +0.019 C 
ATOM     22  C   UNL     1      35.014 -17.213 -23.226  0.00  0.00    +0.069 C 
ATOM     23  C   UNL     1      34.031 -15.822 -24.740  0.00  0.00    +0.051 C 
ATOM     24  C   UNL     1      34.702 -18.015 -24.456  0.00  0.00    +0.251 C 
ATOM     25  C   UNL     1      35.597 -17.732 -22.143  0.00  0.00    +0.066 C 
ATOM     26  C   UNL     1      34.606 -14.692 -22.684  0.00  0.00    +0.001 C 
ATOM     27  C   UNL     1      33.507 -14.677 -25.305  0.00  0.00    +0.015 C 
ATOM     28  C   UNL     1      34.080 -13.519 -23.237  0.00  0.00    +0.000 C 
ATOM     29  C   UNL     1      33.535 -13.513 -24.535  0.00  0.00    +0.001 C 
ATOM     30  H   UNL     1      33.784 -17.308 -26.227  0.00  0.00    +0.155 HD
ENDBRANCH  17  25
ENDBRANCH   2  17
TORSDOF 4
ENDMDL
MODEL 2
REMARK VINA RESULT:     -13.4      1.367      1.754
REMARK  Name = 5288711
REMARK  4 active torsions:
REMARK  status: ('A' for Active; 'I' for Inactive)
REMARK    1  A    between atoms: C_1  and  S_7
REMARK    2  A    between atoms: C_2  and  N_17
REMARK    3  A    between atoms: S_7  and  N_11
REMARK    4  A    between atoms: N_17  and  C_25
REMARK                            x       y       z     vdW  Elec       q    Type
REMARK                         _______ _______ _______ _____ _____    ______ ____
ROOT
ATOM      1  C   UNL     1      34.514 -21.843 -19.393  0.00  0.00    +0.125 C 
ATOM      2  C   UNL     1      35.632 -19.840 -20.991  0.00  0.00    +0.048 C 
ATOM      3  C   UNL     1      35.898 -21.676 -19.436  0.00  0.00    +0.021 C 
ATOM      4  C   UNL     1      33.688 -21.010 -20.147  0.00  0.00    +0.021 C 
ATOM      5  C   UNL     1      36.456 -20.677 -20.233  0.00  0.00    +0.016 C 
ATOM      6  C   UNL     1      34.245 -20.010 -20.944  0.00  0.00    +0.016 C 
ENDROOT
BRANCH   1   7
ATOM      7  S   UNL     1      33.815 -23.094 -18.396  0.00  0.00    +0.075 S 
ATOM      8  O   UNL     1      33.585 -24.270 -19.225  0.00  0.00    -0.150 OA
ATOM      9  O   UNL     1      34.633 -23.211 -17.195  0.00  0.00    -0.150 OA
BRANCH   7  11
ATOM     10  S   UNL     1      29.981 -23.157 -16.676  0.00  0.00    -0.050 S 
ATOM     11  N   UNL     1      32.297 -22.393 -17.998  0.00  0.00    -0.194 N 
ATOM     12  N   UNL     1      32.370 -23.130 -15.691  0.00  0.00    -0.221 NA
ATOM     13  C   UNL     1      31.661 -22.887 -16.757  0.00  0.00    +0.179 C 
ATOM     14  C   UNL     1      30.183 -23.656 -15.048  0.00  0.00    +0.059 C 
ATOM     15  C   UNL     1      31.515 -23.575 -14.701  0.00  0.00    +0.108 C 
ATOM     16  H   UNL     1      31.876 -21.703 -18.561  0.00  0.00    +0.176 HD
ENDBRANCH   7  11
ENDBRANCH   1   7
BRANCH   2  17
ATOM     17  N   UNL     1      36.194 -18.834 -21.794  0.00  0.00    -0.311 N 
ATOM     18  H   UNL     1      37.121 -18.581 -21.576  0.00  0.00    +0.152 HD
BRANCH  17  25
ATOM     19  O   UNL     1      35.242 -16.454 -20.439  0.00  0.00    -0.270 OA
ATOM     20  N   UNL     1      34.175 -15.016 -21.981  0.00  0.00    -0.280 N 
ATOM     21  C   UNL     1      34.410 -16.245 -23.911  0.00  0.00    +0.019 C 
ATOM     22  C   UNL     1      35.020 -16.977 -22.806  0.00  0.00    +0.069 C 
ATOM     23  C   UNL     1      33.912 -15.062 -23.355  0.00  0.00    +0.051 C 
ATOM     24  C   UNL     1      34.857 -16.161 -21.556  0.00  0.00    +0.251 C 
ATOM     25  C   UNL     1      35.630 -18.163 -22.830  0.00  0.00    +0.066 C 
ATOM     26  C   UNL     1      34.263 -16.506 -25.260  0.00  0.00    +0.001 C 
ATOM     27  C   UNL     1      33.259 -14.108 -24.109  0.00  0.00    +0.015 C 
ATOM     28  C   UNL     1      33.605 -15.552 -26.043  0.00  0.00    +0.000 C 
ATOM     29  C   UNL     1      33.108 -14.365 -25.473  0.00  0.00    +0.001 C 
ATOM     30  H   UNL     1      33.913 -14.275 -21.390  0.00  0.00    +0.155 HD
ENDBRANCH  17  25
ENDBRANCH   2  17
TORSDOF 4
ENDMDL
MODEL 3
REMARK VINA RESULT:     -12.6      1.780      2.026
REMARK  Name = 5288711
REMARK  4 active torsions:
REMARK  status: ('A' for Active; 'I' for Inactive)
REMARK    1  A    between atoms: C_1  and  S_7
REMARK    2  A    between atoms: C_2  and  N_17
REMARK    3  A    between atoms: S_7  and  N_11
REMARK    4  A    between atoms: N_17  and  C_25
REMARK                            x       y       z     vdW  Elec       q    Type
REMARK                         _______ _______ _______ _____ _____    ______ ____
ROOT
ATOM      1  C   UNL     1      34.616 -21.371 -19.886  0.00  0.00    +0.125 C 
ATOM      2  C   UNL     1      35.631 -19.383 -21.569  0.00  0.00    +0.048 C 
ATOM      3  C   UNL     1      35.992 -21.153 -19.959  0.00  0.00    +0.021 C 
ATOM      4  C   UNL     1      33.747 -20.596 -20.653  0.00  0.00    +0.021 C 
ATOM      5  C   UNL     1      36.498 -20.161 -20.798  0.00  0.00    +0.016 C 
ATOM      6  C   UNL     1      34.252 -19.603 -21.493  0.00  0.00    +0.016 C 
ENDROOT
BRANCH   1   7
ATOM      7  S   UNL     1      33.982 -22.613 -18.836  0.00  0.00    +0.075 S 
ATOM      8  O   UNL     1      32.767 -22.109 -18.207  0.00  0.00    -0.150 OA
ATOM      9  O   UNL     1      33.933 -23.855 -19.598  0.00  0.00    -0.150 OA
BRANCH   7  11
ATOM     10  S   UNL     1      35.396 -22.687 -14.879  0.00  0.00    -0.050 S 
ATOM     11  N   UNL     1      35.220 -22.708 -17.648  0.00  0.00    -0.194 N 
ATOM     12  N   UNL     1      34.050 -24.361 -16.316  0.00  0.00    -0.221 NA
ATOM     13  C   UNL     1      34.833 -23.320 -16.358  0.00  0.00    +0.179 C 
ATOM     14  C   UNL     1      34.516 -23.915 -14.067  0.00  0.00    +0.059 C 
ATOM     15  C   UNL     1      33.866 -24.706 -14.992  0.00  0.00    +0.108 C 
ATOM     16  H   UNL     1      36.132 -22.377 -17.816  0.00  0.00    +0.176 HD
ENDBRANCH   7  11
ENDBRANCH   1   7
BRANCH   2  17
ATOM     17  N   UNL     1      36.141 -18.384 -22.415  0.00  0.00    -0.311 N 
ATOM     18  H   UNL     1      36.932 -18.636 -22.945  0.00  0.00    +0.152 HD
BRANCH  17  25
ATOM     19  O   UNL     1      34.824 -18.650 -24.984  0.00  0.00    -0.270 OA
ATOM     20  N   UNL     1      33.894 -16.579 -25.636  0.00  0.00    -0.280 N 
ATOM     21  C   UNL     1      34.504 -15.277 -23.841  0.00  0.00    +0.019 C 
ATOM     22  C   UNL     1      34.995 -16.635 -23.631  0.00  0.00    +0.069 C 
ATOM     23  C   UNL     1      33.843 -15.298 -25.072  0.00  0.00    +0.051 C 
ATOM     24  C   UNL     1      34.589 -17.469 -24.811  0.00  0.00    +0.251 C 
ATOM     25  C   UNL     1      35.689 -17.117 -22.598  0.00  0.00    +0.066 C 
ATOM     26  C   UNL     1      34.581 -14.112 -23.102  0.00  0.00    +0.001 C 
ATOM     27  C   UNL     1      33.241 -14.177 -25.609  0.00  0.00    +0.015 C 
ATOM     28  C   UNL     1      33.977 -12.963 -23.626  0.00  0.00    +0.000 C 
ATOM     29  C   UNL     1      33.314 -12.996 -24.867  0.00  0.00    +0.001 C 
ATOM     30  H   UNL     1      33.493 -16.821 -26.501  0.00  0.00    +0.155 HD
ENDBRANCH  17  25
ENDBRANCH   2  17
TORSDOF 4
ENDMDL
MODEL 4
REMARK VINA RESULT:     -12.6      2.733      9.968
REMARK  Name = 5288711
REMARK  4 active torsions:
REMARK  status: ('A' for Active; 'I' for Inactive)
REMARK    1  A    between atoms: C_1  and  S_7
REMARK    2  A    between atoms: C_2  and  N_17
REMARK    3  A    between atoms: S_7  and  N_11
REMARK    4  A    between atoms: N_17  and  C_25
REMARK                            x       y       z     vdW  Elec       q    Type
REMARK                         _______ _______ _______ _____ _____    ______ ____
ROOT
ATOM      1  C   UNL     1      35.196 -19.677 -21.349  0.00  0.00    +0.125 C 
ATOM      2  C   UNL     1      34.839 -21.664 -19.415  0.00  0.00    +0.048 C 
ATOM      3  C   UNL     1      33.909 -20.073 -20.984  0.00  0.00    +0.021 C 
ATOM      4  C   UNL     1      36.305 -20.273 -20.748  0.00  0.00    +0.021 C 
ATOM      5  C   UNL     1      33.731 -21.064 -20.019  0.00  0.00    +0.016 C 
ATOM      6  C   UNL     1      36.127 -21.264 -19.783  0.00  0.00    +0.016 C 
ENDROOT
BRANCH   1   7
ATOM      7  S   UNL     1      35.420 -18.437 -22.558  0.00  0.00    +0.075 S 
ATOM      8  O   UNL     1      36.841 -18.125 -22.642  0.00  0.00    -0.150 OA
ATOM      9  O   UNL     1      34.705 -18.854 -23.758  0.00  0.00    -0.150 OA
BRANCH   7  11
ATOM     10  S   UNL     1      34.659 -14.342 -21.995  0.00  0.00    -0.050 S 
ATOM     11  N   UNL     1      34.605 -17.111 -21.828  0.00  0.00    -0.194 N 
ATOM     12  N   UNL     1      34.194 -15.986 -23.935  0.00  0.00    -0.221 NA
ATOM     13  C   UNL     1      34.467 -15.898 -22.663  0.00  0.00    +0.179 C 
ATOM     14  C   UNL     1      34.351 -13.684 -23.549  0.00  0.00    +0.059 C 
ATOM     15  C   UNL     1      34.126 -14.705 -24.448  0.00  0.00    +0.108 C 
ATOM     16  H   UNL     1      34.251 -17.156 -20.910  0.00  0.00    +0.176 HD
ENDBRANCH   7  11
ENDBRANCH   1   7
BRANCH   2  17
ATOM     17  N   UNL     1      34.659 -22.662 -18.443  0.00  0.00    -0.311 N 
ATOM     18  H   UNL     1      35.444 -23.227 -18.261  0.00  0.00    +0.152 HD
BRANCH  17  25
ATOM     19  O   UNL     1      35.843 -23.897 -16.103  0.00  0.00    -0.270 OA
ATOM     20  N   UNL     1      34.153 -24.544 -14.585  0.00  0.00    -0.280 N 
ATOM     21  C   UNL     1      32.286 -23.855 -15.739  0.00  0.00    +0.019 C 
ATOM     22  C   UNL     1      33.474 -23.539 -16.526  0.00  0.00    +0.069 C 
ATOM     23  C   UNL     1      32.755 -24.464 -14.571  0.00  0.00    +0.051 C 
ATOM     24  C   UNL     1      34.681 -23.995 -15.758  0.00  0.00    +0.251 C 
ATOM     25  C   UNL     1      33.547 -22.951 -17.721  0.00  0.00    +0.066 C 
ATOM     26  C   UNL     1      30.932 -23.670 -15.943  0.00  0.00    +0.001 C 
ATOM     27  C   UNL     1      31.907 -24.905 -13.575  0.00  0.00    +0.015 C 
ATOM     28  C   UNL     1      30.054 -24.110 -14.946  0.00  0.00    +0.000 C 
ATOM     29  C   UNL     1      30.537 -24.721 -13.774  0.00  0.00    +0.001 C 
ATOM     30  H   UNL     1      34.694 -24.936 -13.863  0.00  0.00    +0.155 HD
ENDBRANCH  17  25
ENDBRANCH   2  17
TORSDOF 4
ENDMDL
MODEL 5
REMARK VINA RESULT:     -12.4      2.052      2.523
REMARK  Name = 5288711
REMARK  4 active torsions:
REMARK  status: ('A' for Active; 'I' for Inactive)
REMARK    1  A    between atoms: C_1  and  S_7
REMARK    2  A    between atoms: C_2  and  N_17
REMARK    3  A    between atoms: S_7  and  N_11
REMARK    4  A    between atoms: N_17  and  C_25
REMARK                            x       y       z     vdW  Elec       q    Type
REMARK                         _______ _______ _______ _____ _____    ______ ____
ROOT
ATOM      1  C   UNL     1      34.508 -21.610 -19.600  0.00  0.00    +0.125 C 
ATOM      2  C   UNL     1      35.642 -19.594 -21.169  0.00  0.00    +0.048 C 
ATOM      3  C   UNL     1      35.895 -21.483 -19.677  0.00  0.00    +0.021 C 
ATOM      4  C   UNL     1      33.687 -20.731 -20.306  0.00  0.00    +0.021 C 
ATOM      5  C   UNL     1      36.461 -20.477 -20.459  0.00  0.00    +0.016 C 
ATOM      6  C   UNL     1      34.252 -19.725 -21.089  0.00  0.00    +0.016 C 
ENDROOT
BRANCH   1   7
ATOM      7  S   UNL     1      33.799 -22.870 -18.621  0.00  0.00    +0.075 S 
ATOM      8  O   UNL     1      32.584 -22.349 -18.007  0.00  0.00    -0.150 OA
ATOM      9  O   UNL     1      33.730 -24.077 -19.435  0.00  0.00    -0.150 OA
BRANCH   7  11
ATOM     10  S   UNL     1      35.145 -22.858 -14.639  0.00  0.00    -0.050 S 
ATOM     11  N   UNL     1      34.997 -23.058 -17.403  0.00  0.00    -0.194 N 
ATOM     12  N   UNL     1      33.580 -24.416 -15.981  0.00  0.00    -0.221 NA
ATOM     13  C   UNL     1      34.509 -23.508 -16.080  0.00  0.00    +0.179 C 
ATOM     14  C   UNL     1      34.084 -23.878 -13.760  0.00  0.00    +0.059 C 
ATOM     15  C   UNL     1      33.333 -24.631 -14.639  0.00  0.00    +0.108 C 
ATOM     16  H   UNL     1      35.950 -22.879 -17.575  0.00  0.00    +0.176 HD
ENDBRANCH   7  11
ENDBRANCH   1   7
BRANCH   2  17
ATOM     17  N   UNL     1      36.212 -18.581 -21.958  0.00  0.00    -0.311 N 
ATOM     18  H   UNL     1      37.140 -18.338 -21.735  0.00  0.00    +0.152 HD
BRANCH  17  25
ATOM     19  O   UNL     1      35.117 -16.299 -20.543  0.00  0.00    -0.270 OA
ATOM     20  N   UNL     1      34.040 -14.845 -22.063  0.00  0.00    -0.280 N 
ATOM     21  C   UNL     1      34.389 -15.983 -24.031  0.00  0.00    +0.019 C 
ATOM     22  C   UNL     1      34.994 -16.734 -22.935  0.00  0.00    +0.069 C 
ATOM     23  C   UNL     1      33.825 -14.846 -23.446  0.00  0.00    +0.051 C 
ATOM     24  C   UNL     1      34.756 -15.977 -21.660  0.00  0.00    +0.251 C 
ATOM     25  C   UNL     1      35.654 -17.892 -22.986  0.00  0.00    +0.066 C 
ATOM     26  C   UNL     1      34.298 -16.195 -25.393  0.00  0.00    +0.001 C 
ATOM     27  C   UNL     1      33.156 -13.889 -24.183  0.00  0.00    +0.015 C 
ATOM     28  C   UNL     1      33.625 -15.238 -26.160  0.00  0.00    +0.000 C 
ATOM     29  C   UNL     1      33.061 -14.096 -25.561  0.00  0.00    +0.001 C 
ATOM     30  H   UNL     1      33.728 -14.140 -21.452  0.00  0.00    +0.155 HD
ENDBRANCH  17  25
ENDBRANCH   2  17
TORSDOF 4
ENDMDL
MODEL 6
REMARK VINA RESULT:     -12.3      4.558      9.618
REMARK  Name = 5288711
REMARK  4 active torsions:
REMARK  status: ('A' for Active; 'I' for Inactive)
REMARK    1  A    between atoms: C_1  and  S_7
REMARK    2  A    between atoms: C_2  and  N_17
REMARK    3  A    between atoms: S_7  and  N_11
REMARK    4  A    between atoms: N_17  and  C_25
REMARK                            x       y       z     vdW  Elec       q    Type
REMARK                         _______ _______ _______ _____ _____    ______ ____
ROOT
ATOM      1  C   UNL     1      34.109 -14.824 -23.928  0.00  0.00    +0.125 C 
ATOM      2  C   UNL     1      34.956 -17.414 -23.305  0.00  0.00    +0.048 C 
ATOM      3  C   UNL     1      34.136 -15.806 -24.918  0.00  0.00    +0.021 C 
ATOM      4  C   UNL     1      34.504 -15.134 -22.627  0.00  0.00    +0.021 C 
ATOM      5  C   UNL     1      34.558 -17.098 -24.608  0.00  0.00    +0.016 C 
ATOM      6  C   UNL     1      34.926 -16.427 -22.316  0.00  0.00    +0.016 C 
ENDROOT
BRANCH   1   7
ATOM      7  S   UNL     1      33.581 -13.205 -24.316  0.00  0.00    +0.075 S 
ATOM      8  O   UNL     1      34.640 -12.274 -23.949  0.00  0.00    -0.150 OA
ATOM      9  O   UNL     1      33.080 -13.219 -25.684  0.00  0.00    -0.150 OA
BRANCH   7  11
ATOM     10  S   UNL     1      31.763 -11.622 -20.873  0.00  0.00    -0.050 S 
ATOM     11  N   UNL     1      32.270 -13.011 -23.220  0.00  0.00    -0.194 N 
ATOM     12  N   UNL     1      32.477 -10.598 -23.136  0.00  0.00    -0.221 NA
ATOM     13  C   UNL     1      32.203 -11.712 -22.517  0.00  0.00    +0.179 C 
ATOM     14  C   UNL     1      31.949  -9.919 -20.960  0.00  0.00    +0.059 C 
ATOM     15  C   UNL     1      32.330  -9.561 -22.236  0.00  0.00    +0.108 C 
ATOM     16  H   UNL     1      31.605 -13.721 -23.070  0.00  0.00    +0.176 HD
ENDBRANCH   7  11
ENDBRANCH   1   7
BRANCH   2  17
ATOM     17  N   UNL     1      35.381 -18.716 -22.993  0.00  0.00    -0.311 N 
ATOM     18  H   UNL     1      36.163 -19.041 -23.494  0.00  0.00    +0.152 HD
BRANCH  17  25
ATOM     19  O   UNL     1      37.645 -19.082 -21.219  0.00  0.00    -0.270 OA
ATOM     20  N   UNL     1      37.078 -20.577 -19.480  0.00  0.00    -0.280 N 
ATOM     21  C   UNL     1      34.901 -21.053 -20.048  0.00  0.00    +0.019 C 
ATOM     22  C   UNL     1      35.452 -20.118 -21.024  0.00  0.00    +0.069 C 
ATOM     23  C   UNL     1      35.930 -21.298 -19.133  0.00  0.00    +0.051 C 
ATOM     24  C   UNL     1      36.872 -19.820 -20.638  0.00  0.00    +0.251 C 
ATOM     25  C   UNL     1      34.856 -19.585 -22.092  0.00  0.00    +0.066 C 
ATOM     26  C   UNL     1      33.669 -21.662 -19.904  0.00  0.00    +0.001 C 
ATOM     27  C   UNL     1      35.775 -22.146 -18.055  0.00  0.00    +0.015 C 
ATOM     28  C   UNL     1      33.489 -22.526 -18.817  0.00  0.00    +0.000 C 
ATOM     29  C   UNL     1      34.532 -22.765 -17.903  0.00  0.00    +0.001 C 
ATOM     30  H   UNL     1      37.922 -20.600 -18.975  0.00  0.00    +0.155 HD
ENDBRANCH  17  25
ENDBRANCH   2  17
TORSDOF 4
ENDMDL
MODEL 7
REMARK VINA RESULT:     -12.0      3.908      6.727
REMARK  Name = 5288711
REMARK  4 active torsions:
REMARK  status: ('A' for Active; 'I' for Inactive)
REMARK    1  A    between atoms: C_1  and  S_7
REMARK    2  A    between atoms: C_2  and  N_17
REMARK    3  A    between atoms: S_7  and  N_11
REMARK    4  A    between atoms: N_17  and  C_25
REMARK                            x       y       z     vdW  Elec       q    Type
REMARK                         _______ _______ _______ _____ _____    ______ ____
ROOT
ATOM      1  C   UNL     1      34.978 -16.971 -23.164  0.00  0.00    +0.125 C 
ATOM      2  C   UNL     1      33.852 -14.552 -24.000  0.00  0.00    +0.048 C 
ATOM      3  C   UNL     1      34.563 -16.814 -24.486  0.00  0.00    +0.021 C 
ATOM      4  C   UNL     1      34.831 -15.920 -22.259  0.00  0.00    +0.021 C 
ATOM      5  C   UNL     1      34.002 -15.608 -24.904  0.00  0.00    +0.016 C 
ATOM      6  C   UNL     1      34.270 -14.713 -22.675  0.00  0.00    +0.016 C 
ENDROOT
BRANCH   1   7
ATOM      7  S   UNL     1      35.681 -18.481 -22.641  0.00  0.00    +0.075 S 
ATOM      8  O   UNL     1      35.481 -19.471 -23.691  0.00  0.00    -0.150 OA
ATOM      9  O   UNL     1      37.030 -18.201 -22.167  0.00  0.00    -0.150 OA
BRANCH   7  11
ATOM     10  S   UNL     1      33.813 -21.172 -20.007  0.00  0.00    -0.050 S 
ATOM     11  N   UNL     1      34.668 -18.876 -21.309  0.00  0.00    -0.194 N 
ATOM     12  N   UNL     1      36.264 -20.417 -20.335  0.00  0.00    -0.221 NA
ATOM     13  C   UNL     1      35.019 -20.109 -20.573  0.00  0.00    +0.179 C 
ATOM     14  C   UNL     1      35.052 -22.170 -19.367  0.00  0.00    +0.059 C 
ATOM     15  C   UNL     1      36.283 -21.609 -19.637  0.00  0.00    +0.108 C 
ATOM     16  H   UNL     1      33.901 -18.315 -21.052  0.00  0.00    +0.176 HD
ENDBRANCH   7  11
ENDBRANCH   1   7
BRANCH   2  17
ATOM     17  N   UNL     1      33.286 -13.338 -24.420  0.00  0.00    -0.311 N 
ATOM     18  H   UNL     1      32.384 -13.399 -24.810  0.00  0.00    +0.152 HD
BRANCH  17  25
ATOM     19  O   UNL     1      31.545 -12.103 -22.458  0.00  0.00    -0.270 OA
ATOM     20  N   UNL     1      32.194  -9.861 -22.094  0.00  0.00    -0.280 N 
ATOM     21  C   UNL     1      33.981  -9.717 -23.536  0.00  0.00    +0.019 C 
ATOM     22  C   UNL     1      33.419 -11.063 -23.610  0.00  0.00    +0.069 C 
ATOM     23  C   UNL     1      33.200  -9.030 -22.602  0.00  0.00    +0.051 C 
ATOM     24  C   UNL     1      32.256 -11.138 -22.663  0.00  0.00    +0.251 C 
ATOM     25  C   UNL     1      33.818 -12.090 -24.361  0.00  0.00    +0.066 C 
ATOM     26  C   UNL     1      35.037  -9.092 -24.170  0.00  0.00    +0.001 C 
ATOM     27  C   UNL     1      33.437  -7.712 -22.267  0.00  0.00    +0.015 C 
ATOM     28  C   UNL     1      35.295  -7.755 -23.846  0.00  0.00    +0.000 C 
ATOM     29  C   UNL     1      34.503  -7.073 -22.904  0.00  0.00    +0.001 C 
ATOM     30  H   UNL     1      31.530  -9.584 -21.424  0.00  0.00    +0.155 HD
ENDBRANCH  17  25
ENDBRANCH   2  17
TORSDOF 4
ENDMDL
MODEL 8
REMARK VINA RESULT:     -11.8      7.397     12.141
REMARK  Name = 5288711
REMARK  4 active torsions:
REMARK  status: ('A' for Active; 'I' for Inactive)
REMARK    1  A    between atoms: C_1  and  S_7
REMARK    2  A    between atoms: C_2  and  N_17
REMARK    3  A    between atoms: S_7  and  N_11
REMARK    4  A    between atoms: N_17  and  C_25
REMARK                            x       y       z     vdW  Elec       q    Type
REMARK                         _______ _______ _______ _____ _____    ______ ____
ROOT
ATOM      1  C   UNL     1      32.766  -9.880 -22.902  0.00  0.00    +0.125 C 
ATOM      2  C   UNL     1      33.719 -12.361 -23.770  0.00  0.00    +0.048 C 
ATOM      3  C   UNL     1      32.171 -11.056 -22.443  0.00  0.00    +0.021 C 
ATOM      4  C   UNL     1      33.836  -9.943 -23.793  0.00  0.00    +0.021 C 
ATOM      5  C   UNL     1      32.647 -12.293 -22.876  0.00  0.00    +0.016 C 
ATOM      6  C   UNL     1      34.313 -11.180 -24.226  0.00  0.00    +0.016 C 
ENDROOT
BRANCH   1   7
ATOM      7  S   UNL     1      32.170  -8.331 -22.360  0.00  0.00    +0.075 S 
ATOM      8  O   UNL     1      30.819  -8.150 -22.875  0.00  0.00    -0.150 OA
ATOM      9  O   UNL     1      32.410  -8.241 -20.925  0.00  0.00    -0.150 OA
BRANCH   7  11
ATOM     10  S   UNL     1      32.999  -5.182 -25.018  0.00  0.00    -0.050 S 
ATOM     11  N   UNL     1      33.226  -7.260 -23.193  0.00  0.00    -0.194 N 
ATOM     12  N   UNL     1      31.910  -5.291 -22.676  0.00  0.00    -0.221 NA
ATOM     13  C   UNL     1      32.669  -5.929 -23.523  0.00  0.00    +0.179 C 
ATOM     14  C   UNL     1      32.037  -3.853 -24.518  0.00  0.00    +0.059 C 
ATOM     15  C   UNL     1      31.544  -4.090 -23.252  0.00  0.00    +0.108 C 
ATOM     16  H   UNL     1      34.145  -7.515 -23.435  0.00  0.00    +0.176 HD
ENDBRANCH   7  11
ENDBRANCH   1   7
BRANCH   2  17
ATOM     17  N   UNL     1      34.197 -13.607 -24.206  0.00  0.00    -0.311 N 
ATOM     18  H   UNL     1      34.333 -13.697 -25.177  0.00  0.00    +0.152 HD
BRANCH  17  25
ATOM     19  O   UNL     1      34.151 -15.662 -26.251  0.00  0.00    -0.270 OA
ATOM     20  N   UNL     1      34.647 -17.766 -25.296  0.00  0.00    -0.280 N 
ATOM     21  C   UNL     1      34.943 -17.155 -23.099  0.00  0.00    +0.019 C 
ATOM     22  C   UNL     1      34.620 -15.967 -23.882  0.00  0.00    +0.069 C 
ATOM     23  C   UNL     1      34.946 -18.219 -24.006  0.00  0.00    +0.051 C 
ATOM     24  C   UNL     1      34.430 -16.384 -25.312  0.00  0.00    +0.251 C 
ATOM     25  C   UNL     1      34.499 -14.705 -23.466  0.00  0.00    +0.066 C 
ATOM     26  C   UNL     1      35.213 -17.368 -21.761  0.00  0.00    +0.001 C 
ATOM     27  C   UNL     1      35.214 -19.517 -23.623  0.00  0.00    +0.015 C 
ATOM     28  C   UNL     1      35.488 -18.677 -21.350  0.00  0.00    +0.000 C 
ATOM     29  C   UNL     1      35.489 -19.741 -22.271  0.00  0.00    +0.001 C 
ATOM     30  H   UNL     1      34.594 -18.345 -26.090  0.00  0.00    +0.155 HD
ENDBRANCH  17  25
ENDBRANCH   2  17
TORSDOF 4
ENDMDL
MODEL 9
REMARK VINA RESULT:     -11.8      3.715     10.225
REMARK  Name = 5288711
REMARK  4 active torsions:
REMARK  status: ('A' for Active; 'I' for Inactive)
REMARK    1  A    between atoms: C_1  and  S_7
REMARK    2  A    between atoms: C_2  and  N_17
REMARK    3  A    between atoms: S_7  and  N_11
REMARK    4  A    between atoms: N_17  and  C_25
REMARK                            x       y       z     vdW  Elec       q    Type
REMARK                         _______ _______ _______ _____ _____    ______ ____
ROOT
ATOM      1  C   UNL     1      35.310 -20.139 -20.845  0.00  0.00    +0.125 C 
ATOM      2  C   UNL     1      34.936 -21.971 -18.766  0.00  0.00    +0.048 C 
ATOM      3  C   UNL     1      34.022 -20.552 -20.501  0.00  0.00    +0.021 C 
ATOM      4  C   UNL     1      36.411 -20.640 -20.150  0.00  0.00    +0.021 C 
ATOM      5  C   UNL     1      33.836 -21.465 -19.463  0.00  0.00    +0.016 C 
ATOM      6  C   UNL     1      36.225 -21.554 -19.113  0.00  0.00    +0.016 C 
ENDROOT
BRANCH   1   7
ATOM      7  S   UNL     1      35.544 -18.996 -22.143  0.00  0.00    +0.075 S 
ATOM      8  O   UNL     1      36.943 -18.589 -22.153  0.00  0.00    -0.150 OA
ATOM      9  O   UNL     1      34.955 -19.568 -23.348  0.00  0.00    -0.150 OA
BRANCH   7  11
ATOM     10  S   UNL     1      34.646 -14.907 -21.775  0.00  0.00    -0.050 S 
ATOM     11  N   UNL     1      34.587 -17.675 -21.600  0.00  0.00    -0.194 N 
ATOM     12  N   UNL     1      34.591 -16.567 -23.755  0.00  0.00    -0.221 NA
ATOM     13  C   UNL     1      34.605 -16.469 -22.456  0.00  0.00    +0.179 C 
ATOM     14  C   UNL     1      34.645 -14.261 -23.364  0.00  0.00    +0.059 C 
ATOM     15  C   UNL     1      34.613 -15.291 -24.282  0.00  0.00    +0.108 C 
ATOM     16  H   UNL     1      34.059 -17.719 -20.770  0.00  0.00    +0.176 HD
ENDBRANCH   7  11
ENDBRANCH   1   7
BRANCH   2  17
ATOM     17  N   UNL     1      34.748 -22.891 -17.721  0.00  0.00    -0.311 N 
ATOM     18  H   UNL     1      33.939 -23.447 -17.783  0.00  0.00    +0.152 HD
BRANCH  17  25
ATOM     19  O   UNL     1      32.739 -23.422 -15.699  0.00  0.00    -0.270 OA
ATOM     20  N   UNL     1      33.776 -23.866 -13.623  0.00  0.00    -0.280 N 
ATOM     21  C   UNL     1      35.987 -23.656 -14.221  0.00  0.00    +0.019 C 
ATOM     22  C   UNL     1      35.154 -23.413 -15.394  0.00  0.00    +0.069 C 
ATOM     23  C   UNL     1      35.100 -23.926 -13.174  0.00  0.00    +0.051 C 
ATOM     24  C   UNL     1      33.716 -23.554 -14.986  0.00  0.00    +0.251 C 
ATOM     25  C   UNL     1      35.535 -23.114 -16.638  0.00  0.00    +0.066 C 
ATOM     26  C   UNL     1      37.352 -23.660 -14.008  0.00  0.00    +0.001 C 
ATOM     27  C   UNL     1      35.532 -24.206 -11.893  0.00  0.00    +0.015 C 
ATOM     28  C   UNL     1      37.812 -23.942 -12.717  0.00  0.00    +0.000 C 
ATOM     29  C   UNL     1      36.911 -24.213 -11.671  0.00  0.00    +0.001 C 
ATOM     30  H   UNL     1      32.989 -24.022 -13.055  0.00  0.00    +0.155 HD
ENDBRANCH  17  25
ENDBRANCH   2  17
TORSDOF 4
ENDMDL
