MODEL 1
REMARK VINA RESULT:     -13.3      0.000      0.000
REMARK  Name = 447731
REMARK  4 active torsions:
REMARK  status: ('A' for Active; 'I' for Inactive)
REMARK    1  A    between atoms: N_2  and  C_13
REMARK    2  A    between atoms: C_3  and  C_19
REMARK    3  A    between atoms: C_6  and  C_17
REMARK    4  A    between atoms: C_27  and  C_31
REMARK                            x       y       z     vdW  Elec       q    Type
REMARK                         _______ _______ _______ _____ _____    ______ ____
ROOT
ATOM      1  O   UNL     1      33.855 -23.831 -18.271  0.00  0.00    -0.270 OA
ATOM      2  N   UNL     1      35.211 -22.393 -16.996  0.00  0.00    -0.280 N 
ATOM      3  C   UNL     1      34.452 -22.771 -18.111  0.00  0.00    +0.249 C 
ATOM      4  H   UNL     1      35.623 -21.500 -17.036  0.00  0.00    +0.155 HD
ENDROOT
BRANCH   2  13
ATOM      5  N   UNL     1      37.136 -26.506 -12.421  0.00  0.00    +0.387 N 
ATOM      6  C   UNL     1      38.116 -25.531 -14.468  0.00  0.00    +0.001 C 
ATOM      7  C   UNL     1      36.881 -24.649 -14.573  0.00  0.00    -0.029 C 
ATOM      8  C   UNL     1      38.369 -26.002 -13.022  0.00  0.00    -0.077 C 
ATOM      9  C   UNL     1      35.942 -24.626 -13.522  0.00  0.00    -0.048 C 
ATOM     10  C   UNL     1      36.177 -25.410 -12.255  0.00  0.00    -0.055 C 
ATOM     11  C   UNL     1      36.608 -23.910 -15.736  0.00  0.00    +0.010 C 
ATOM     12  C   UNL     1      34.793 -23.826 -13.627  0.00  0.00    -0.005 C 
ATOM     13  C   UNL     1      35.455 -23.128 -15.834  0.00  0.00    +0.050 C 
ATOM     14  C   UNL     1      34.552 -23.082 -14.778  0.00  0.00    +0.014 C 
ATOM     15  H   UNL     1      37.345 -26.912 -11.509  0.00  0.00    -0.084 HD
ATOM     16  H   UNL     1      36.731 -27.216 -13.031  0.00  0.00    -0.084 HD
BRANCH   6  17
ATOM     17  C   UNL     1      39.393 -24.866 -14.995  0.00  0.00    +0.002 C 
ATOM     18  C   UNL     1      40.624 -25.648 -14.590  0.00  0.00    +0.000 C 
ENDBRANCH   6  17
ENDBRANCH   2  13
BRANCH   3  19
ATOM     19  C   UNL     1      34.400 -21.775 -19.213  0.00  0.00    +0.054 C 
ATOM     20  C   UNL     1      35.547 -20.274 -20.703  0.00  0.00    +0.000 C 
ATOM     21  C   UNL     1      34.302 -19.915 -21.273  0.00  0.00    +0.000 C 
ATOM     22  C   UNL     1      35.579 -21.217 -19.661  0.00  0.00    +0.005 C 
ATOM     23  C   UNL     1      33.177 -21.443 -19.750  0.00  0.00    +0.005 C 
ATOM     24  C   UNL     1      33.126 -20.509 -20.784  0.00  0.00    +0.000 C 
ATOM     25  C   UNL     1      34.268 -18.972 -22.313  0.00  0.00    +0.003 C 
ATOM     26  C   UNL     1      36.722 -19.680 -21.190  0.00  0.00    +0.000 C 
ATOM     27  C   UNL     1      35.446 -18.392 -22.785  0.00  0.00    +0.031 C 
ATOM     28  C   UNL     1      36.670 -18.746 -22.224  0.00  0.00    +0.003 C 
BRANCH  27  31
ATOM     29  N   UNL     1      34.917 -17.759 -25.127  0.00  0.00    -0.343 N 
ATOM     30  N   UNL     1      35.811 -16.182 -23.654  0.00  0.00    -0.285 NA
ATOM     31  C   UNL     1      35.395 -17.418 -23.863  0.00  0.00    +0.117 C 
ATOM     32  H   UNL     1      34.891 -17.084 -25.843  0.00  0.00    +0.144 HD
ATOM     33  H   UNL     1      34.604 -18.676 -25.304  0.00  0.00    +0.144 HD
ATOM     34  H   UNL     1      35.778 -15.521 -24.383  0.00  0.00    +0.188 HD
ENDBRANCH  27  31
ENDBRANCH   3  19
TORSDOF 4
ENDMDL
MODEL 2
REMARK VINA RESULT:     -13.1      2.144     10.188
REMARK  Name = 447731
REMARK  4 active torsions:
REMARK  status: ('A' for Active; 'I' for Inactive)
REMARK    1  A    between atoms: N_2  and  C_13
REMARK    2  A    between atoms: C_3  and  C_19
REMARK    3  A    between atoms: C_6  and  C_17
REMARK    4  A    between atoms: C_27  and  C_31
REMARK                            x       y       z     vdW  Elec       q    Type
REMARK                         _______ _______ _______ _____ _____    ______ ____
ROOT
ATOM      1  O   UNL     1      32.823 -20.887 -20.742  0.00  0.00    -0.270 OA
ATOM      2  N   UNL     1      35.039 -20.112 -20.880  0.00  0.00    -0.280 N 
ATOM      3  C   UNL     1      33.981 -20.853 -20.339  0.00  0.00    +0.249 C 
ATOM      4  H   UNL     1      35.908 -20.204 -20.426  0.00  0.00    +0.155 HD
ENDROOT
BRANCH   2  13
ATOM      5  N   UNL     1      34.091 -15.444 -25.223  0.00  0.00    +0.387 N 
ATOM      6  C   UNL     1      34.153 -15.599 -22.758  0.00  0.00    +0.001 C 
ATOM      7  C   UNL     1      34.604 -17.044 -22.916  0.00  0.00    -0.029 C 
ATOM      8  C   UNL     1      34.490 -14.750 -24.000  0.00  0.00    -0.077 C 
ATOM      9  C   UNL     1      34.931 -17.543 -24.193  0.00  0.00    -0.048 C 
ATOM     10  C   UNL     1      34.910 -16.645 -25.405  0.00  0.00    -0.055 C 
ATOM     11  C   UNL     1      34.627 -17.925 -21.822  0.00  0.00    +0.010 C 
ATOM     12  C   UNL     1      35.329 -18.881 -24.341  0.00  0.00    -0.005 C 
ATOM     13  C   UNL     1      35.012 -19.257 -21.984  0.00  0.00    +0.050 C 
ATOM     14  C   UNL     1      35.369 -19.733 -23.241  0.00  0.00    +0.014 C 
ATOM     15  H   UNL     1      34.220 -14.823 -26.022  0.00  0.00    -0.084 HD
ATOM     16  H   UNL     1      33.110 -15.715 -25.150  0.00  0.00    -0.084 HD
BRANCH   6  17
ATOM     17  C   UNL     1      34.734 -14.905 -21.520  0.00  0.00    +0.002 C 
ATOM     18  C   UNL     1      33.635 -14.397 -20.613  0.00  0.00    +0.000 C 
ENDBRANCH   6  17
ENDBRANCH   2  13
BRANCH   3  19
ATOM     19  C   UNL     1      34.316 -21.656 -19.133  0.00  0.00    +0.054 C 
ATOM     20  C   UNL     1      35.933 -22.354 -17.495  0.00  0.00    +0.000 C 
ATOM     21  C   UNL     1      34.941 -23.155 -16.881  0.00  0.00    +0.000 C 
ATOM     22  C   UNL     1      35.601 -21.601 -18.634  0.00  0.00    +0.005 C 
ATOM     23  C   UNL     1      33.333 -22.426 -18.555  0.00  0.00    +0.005 C 
ATOM     24  C   UNL     1      33.646 -23.181 -17.424  0.00  0.00    +0.000 C 
ATOM     25  C   UNL     1      35.273 -23.909 -15.743  0.00  0.00    +0.003 C 
ATOM     26  C   UNL     1      37.228 -22.329 -16.953  0.00  0.00    +0.000 C 
ATOM     27  C   UNL     1      36.565 -23.872 -15.218  0.00  0.00    +0.031 C 
ATOM     28  C   UNL     1      37.540 -23.084 -15.822  0.00  0.00    +0.003 C 
BRANCH  27  31
ATOM     29  N   UNL     1      38.170 -24.630 -13.482  0.00  0.00    -0.343 N 
ATOM     30  N   UNL     1      35.972 -25.420 -13.479  0.00  0.00    -0.285 NA
ATOM     31  C   UNL     1      36.893 -24.658 -14.039  0.00  0.00    +0.117 C 
ATOM     32  H   UNL     1      38.371 -25.169 -12.684  0.00  0.00    +0.144 HD
ATOM     33  H   UNL     1      38.872 -24.070 -13.887  0.00  0.00    +0.144 HD
ATOM     34  H   UNL     1      36.192 -25.953 -12.681  0.00  0.00    +0.188 HD
ENDBRANCH  27  31
ENDBRANCH   3  19
TORSDOF 4
ENDMDL
MODEL 3
REMARK VINA RESULT:     -12.7      1.111      2.597
REMARK  Name = 447731
REMARK  4 active torsions:
REMARK  status: ('A' for Active; 'I' for Inactive)
REMARK    1  A    between atoms: N_2  and  C_13
REMARK    2  A    between atoms: C_3  and  C_19
REMARK    3  A    between atoms: C_6  and  C_17
REMARK    4  A    between atoms: C_27  and  C_31
REMARK                            x       y       z     vdW  Elec       q    Type
REMARK                         _______ _______ _______ _____ _____    ______ ____
ROOT
ATOM      1  O   UNL     1      34.348 -23.354 -18.214  0.00  0.00    -0.270 OA
ATOM      2  N   UNL     1      36.080 -21.991 -17.393  0.00  0.00    -0.280 N 
ATOM      3  C   UNL     1      35.061 -22.358 -18.282  0.00  0.00    +0.249 C 
ATOM      4  H   UNL     1      36.554 -21.153 -17.601  0.00  0.00    +0.155 HD
ENDROOT
BRANCH   2  13
ATOM      5  N   UNL     1      36.949 -24.607 -11.567  0.00  0.00    +0.387 N 
ATOM      6  C   UNL     1      35.014 -23.977 -12.967  0.00  0.00    +0.001 C 
ATOM      7  C   UNL     1      35.996 -23.666 -14.087  0.00  0.00    -0.029 C 
ATOM      8  C   UNL     1      35.592 -24.987 -11.955  0.00  0.00    -0.077 C 
ATOM      9  C   UNL     1      37.358 -24.000 -13.941  0.00  0.00    -0.048 C 
ATOM     10  C   UNL     1      37.849 -24.730 -12.716  0.00  0.00    -0.055 C 
ATOM     11  C   UNL     1      35.591 -22.976 -15.241  0.00  0.00    +0.010 C 
ATOM     12  C   UNL     1      38.266 -23.697 -14.966  0.00  0.00    -0.005 C 
ATOM     13  C   UNL     1      36.508 -22.668 -16.249  0.00  0.00    +0.050 C 
ATOM     14  C   UNL     1      37.842 -23.033 -16.114  0.00  0.00    +0.014 C 
ATOM     15  H   UNL     1      37.271 -25.221 -10.819  0.00  0.00    -0.084 HD
ATOM     16  H   UNL     1      36.948 -23.640 -11.244  0.00  0.00    -0.084 HD
BRANCH   6  17
ATOM     17  C   UNL     1      33.662 -24.503 -13.463  0.00  0.00    +0.002 C 
ATOM     18  C   UNL     1      32.634 -23.395 -13.526  0.00  0.00    +0.000 C 
ENDBRANCH   6  17
ENDBRANCH   2  13
BRANCH   3  19
ATOM     19  C   UNL     1      34.858 -21.440 -19.433  0.00  0.00    +0.054 C 
ATOM     20  C   UNL     1      35.778 -19.931 -21.065  0.00  0.00    +0.000 C 
ATOM     21  C   UNL     1      34.477 -19.724 -21.583  0.00  0.00    +0.000 C 
ATOM     22  C   UNL     1      35.953 -20.802 -19.976  0.00  0.00    +0.005 C 
ATOM     23  C   UNL     1      33.583 -21.256 -19.917  0.00  0.00    +0.005 C 
ATOM     24  C   UNL     1      33.390 -20.395 -20.997  0.00  0.00    +0.000 C 
ATOM     25  C   UNL     1      34.300 -18.853 -22.670  0.00  0.00    +0.003 C 
ATOM     26  C   UNL     1      36.864 -19.261 -21.650  0.00  0.00    +0.000 C 
ATOM     27  C   UNL     1      35.391 -18.195 -23.239  0.00  0.00    +0.031 C 
ATOM     28  C   UNL     1      36.671 -18.399 -22.729  0.00  0.00    +0.003 C 
BRANCH  27  31
ATOM     29  N   UNL     1      35.520 -15.945 -24.280  0.00  0.00    -0.343 N 
ATOM     30  N   UNL     1      34.687 -17.758 -25.494  0.00  0.00    -0.285 NA
ATOM     31  C   UNL     1      35.192 -17.297 -24.365  0.00  0.00    +0.117 C 
ATOM     32  H   UNL     1      35.377 -15.354 -25.054  0.00  0.00    +0.144 HD
ATOM     33  H   UNL     1      35.896 -15.581 -23.445  0.00  0.00    +0.144 HD
ATOM     34  H   UNL     1      34.551 -17.151 -26.257  0.00  0.00    +0.188 HD
ENDBRANCH  27  31
ENDBRANCH   3  19
TORSDOF 4
ENDMDL
MODEL 4
REMARK VINA RESULT:     -12.5      8.482     15.249
REMARK  Name = 447731
REMARK  4 active torsions:
REMARK  status: ('A' for Active; 'I' for Inactive)
REMARK    1  A    between atoms: N_2  and  C_13
REMARK    2  A    between atoms: C_3  and  C_19
REMARK    3  A    between atoms: C_6  and  C_17
REMARK    4  A    between atoms: C_27  and  C_31
REMARK                            x       y       z     vdW  Elec       q    Type
REMARK                         _______ _______ _______ _____ _____    ______ ____
ROOT
ATOM      1  O   UNL     1      30.775 -11.151 -21.624  0.00  0.00    -0.270 OA
ATOM      2  N   UNL     1      32.597 -10.411 -22.913  0.00  0.00    -0.280 N 
ATOM      3  C   UNL     1      31.876 -11.327 -22.137  0.00  0.00    +0.249 C 
ATOM      4  H   UNL     1      33.470 -10.721 -23.247  0.00  0.00    +0.155 HD
ENDROOT
BRANCH   2  13
ATOM      5  N   UNL     1      32.175  -4.126 -24.279  0.00  0.00    +0.387 N 
ATOM      6  C   UNL     1      33.931  -5.860 -24.389  0.00  0.00    +0.001 C 
ATOM      7  C   UNL     1      32.867  -6.882 -24.017  0.00  0.00    -0.029 C 
ATOM      8  C   UNL     1      33.321  -4.606 -25.047  0.00  0.00    -0.077 C 
ATOM      9  C   UNL     1      31.511  -6.500 -23.966  0.00  0.00    -0.048 C 
ATOM     10  C   UNL     1      31.085  -5.104 -24.346  0.00  0.00    -0.055 C 
ATOM     11  C   UNL     1      33.213  -8.191 -23.642  0.00  0.00    +0.010 C 
ATOM     12  C   UNL     1      30.533  -7.438 -23.605  0.00  0.00    -0.005 C 
ATOM     13  C   UNL     1      32.231  -9.112 -23.272  0.00  0.00    +0.050 C 
ATOM     14  C   UNL     1      30.892  -8.738 -23.259  0.00  0.00    +0.014 C 
ATOM     15  H   UNL     1      31.855  -3.238 -24.666  0.00  0.00    -0.084 HD
ATOM     16  H   UNL     1      32.452  -3.999 -23.305  0.00  0.00    -0.084 HD
BRANCH   6  17
ATOM     17  C   UNL     1      35.021  -6.415 -25.314  0.00  0.00    +0.002 C 
ATOM     18  C   UNL     1      35.316  -5.457 -26.447  0.00  0.00    +0.000 C 
ENDBRANCH   6  17
ENDBRANCH   2  13
BRANCH   3  19
ATOM     19  C   UNL     1      32.547 -12.632 -21.903  0.00  0.00    +0.054 C 
ATOM     20  C   UNL     1      33.983 -14.393 -22.694  0.00  0.00    +0.000 C 
ATOM     21  C   UNL     1      33.799 -15.072 -21.465  0.00  0.00    +0.000 C 
ATOM     22  C   UNL     1      33.342 -13.159 -22.899  0.00  0.00    +0.005 C 
ATOM     23  C   UNL     1      32.352 -13.272 -20.700  0.00  0.00    +0.005 C 
ATOM     24  C   UNL     1      32.980 -14.497 -20.479  0.00  0.00    +0.000 C 
ATOM     25  C   UNL     1      34.439 -16.305 -21.259  0.00  0.00    +0.003 C 
ATOM     26  C   UNL     1      34.800 -14.967 -23.680  0.00  0.00    +0.000 C 
ATOM     27  C   UNL     1      35.248 -16.861 -22.251  0.00  0.00    +0.031 C 
ATOM     28  C   UNL     1      35.428 -16.192 -23.459  0.00  0.00    +0.003 C 
BRANCH  27  31
ATOM     29  N   UNL     1      35.529 -18.966 -20.966  0.00  0.00    -0.343 N 
ATOM     30  N   UNL     1      36.879 -18.530 -22.822  0.00  0.00    -0.285 NA
ATOM     31  C   UNL     1      35.904 -18.138 -22.022  0.00  0.00    +0.117 C 
ATOM     32  H   UNL     1      35.986 -19.828 -20.829  0.00  0.00    +0.144 HD
ATOM     33  H   UNL     1      34.806 -18.691 -20.356  0.00  0.00    +0.144 HD
ATOM     34  H   UNL     1      37.324 -19.395 -22.669  0.00  0.00    +0.188 HD
ENDBRANCH  27  31
ENDBRANCH   3  19
TORSDOF 4
ENDMDL
MODEL 5
REMARK VINA RESULT:     -12.5      3.212     10.843
REMARK  Name = 447731
REMARK  4 active torsions:
REMARK  status: ('A' for Active; 'I' for Inactive)
REMARK    1  A    between atoms: N_2  and  C_13
REMARK    2  A    between atoms: C_3  and  C_19
REMARK    3  A    between atoms: C_6  and  C_17
REMARK    4  A    between atoms: C_27  and  C_31
REMARK                            x       y       z     vdW  Elec       q    Type
REMARK                         _______ _______ _______ _____ _____    ______ ____
ROOT
ATOM      1  O   UNL     1      34.772 -20.026 -22.563  0.00  0.00    -0.270 OA
ATOM      2  N   UNL     1      35.018 -18.178 -21.129  0.00  0.00    -0.280 N 
ATOM      3  C   UNL     1      34.971 -19.540 -21.454  0.00  0.00    +0.249 C 
ATOM      4  H   UNL     1      35.190 -17.965 -20.183  0.00  0.00    +0.155 HD
ENDROOT
BRANCH   2  13
ATOM      5  N   UNL     1      33.056 -13.024 -24.466  0.00  0.00    +0.387 N 
ATOM      6  C   UNL     1      32.693 -13.919 -22.192  0.00  0.00    +0.001 C 
ATOM      7  C   UNL     1      33.734 -14.983 -22.505  0.00  0.00    -0.029 C 
ATOM      8  C   UNL     1      32.876 -12.659 -23.062  0.00  0.00    -0.077 C 
ATOM      9  C   UNL     1      34.485 -14.904 -23.696  0.00  0.00    -0.048 C 
ATOM     10  C   UNL     1      34.325 -13.737 -24.637  0.00  0.00    -0.055 C 
ATOM     11  C   UNL     1      33.913 -16.097 -21.668  0.00  0.00    +0.010 C 
ATOM     12  C   UNL     1      35.432 -15.896 -23.993  0.00  0.00    -0.005 C 
ATOM     13  C   UNL     1      34.849 -17.085 -21.982  0.00  0.00    +0.050 C 
ATOM     14  C   UNL     1      35.612 -16.981 -23.139  0.00  0.00    +0.014 C 
ATOM     15  H   UNL     1      33.064 -12.178 -25.037  0.00  0.00    -0.084 HD
ATOM     16  H   UNL     1      32.289 -13.630 -24.756  0.00  0.00    -0.084 HD
BRANCH   6  17
ATOM     17  C   UNL     1      32.671 -13.495 -20.718  0.00  0.00    +0.002 C 
ATOM     18  C   UNL     1      32.070 -12.115 -20.556  0.00  0.00    +0.000 C 
ENDBRANCH   6  17
ENDBRANCH   2  13
BRANCH   3  19
ATOM     19  C   UNL     1      35.162 -20.474 -20.314  0.00  0.00    +0.054 C 
ATOM     20  C   UNL     1      34.220 -21.985 -18.697  0.00  0.00    +0.000 C 
ATOM     21  C   UNL     1      35.519 -22.219 -18.184  0.00  0.00    +0.000 C 
ATOM     22  C   UNL     1      34.057 -21.100 -19.775  0.00  0.00    +0.005 C 
ATOM     23  C   UNL     1      36.434 -20.684 -19.834  0.00  0.00    +0.005 C 
ATOM     24  C   UNL     1      36.615 -21.559 -18.764  0.00  0.00    +0.000 C 
ATOM     25  C   UNL     1      35.683 -23.104 -17.105  0.00  0.00    +0.003 C 
ATOM     26  C   UNL     1      33.124 -22.644 -18.117  0.00  0.00    +0.000 C 
ATOM     27  C   UNL     1      34.582 -23.749 -16.541  0.00  0.00    +0.031 C 
ATOM     28  C   UNL     1      33.305 -23.519 -17.047  0.00  0.00    +0.003 C 
BRANCH  27  31
ATOM     29  N   UNL     1      33.844 -24.734 -14.385  0.00  0.00    -0.343 N 
ATOM     30  N   UNL     1      35.833 -25.443 -15.384  0.00  0.00    -0.285 NA
ATOM     31  C   UNL     1      34.768 -24.663 -15.425  0.00  0.00    +0.117 C 
ATOM     32  H   UNL     1      33.990 -25.359 -13.639  0.00  0.00    +0.144 HD
ATOM     33  H   UNL     1      33.045 -24.158 -14.396  0.00  0.00    +0.144 HD
ATOM     34  H   UNL     1      35.961 -26.062 -14.629  0.00  0.00    +0.188 HD
ENDBRANCH  27  31
ENDBRANCH   3  19
TORSDOF 4
ENDMDL
MODEL 6
REMARK VINA RESULT:     -12.4      2.128     10.391
REMARK  Name = 447731
REMARK  4 active torsions:
REMARK  status: ('A' for Active; 'I' for Inactive)
REMARK    1  A    between atoms: N_2  and  C_13
REMARK    2  A    between atoms: C_3  and  C_19
REMARK    3  A    between atoms: C_6  and  C_17
REMARK    4  A    between atoms: C_27  and  C_31
REMARK                            x       y       z     vdW  Elec       q    Type
REMARK                         _______ _______ _______ _____ _____    ______ ____
ROOT
ATOM      1  O   UNL     1      33.540 -21.211 -20.622  0.00  0.00    -0.270 OA
ATOM      2  N   UNL     1      35.528 -19.967 -20.796  0.00  0.00    -0.280 N 
ATOM      3  C   UNL     1      34.659 -20.905 -20.224  0.00  0.00    +0.249 C 
ATOM      4  H   UNL     1      36.394 -19.847 -20.343  0.00  0.00    +0.155 HD
ENDROOT
BRANCH   2  13
ATOM      5  N   UNL     1      33.783 -15.613 -25.218  0.00  0.00    +0.387 N 
ATOM      6  C   UNL     1      34.157 -15.622 -22.776  0.00  0.00    +0.001 C 
ATOM      7  C   UNL     1      34.668 -17.048 -22.915  0.00  0.00    -0.029 C 
ATOM      8  C   UNL     1      34.288 -14.830 -24.092  0.00  0.00    -0.077 C 
ATOM      9  C   UNL     1      34.863 -17.603 -24.196  0.00  0.00    -0.048 C 
ATOM     10  C   UNL     1      34.642 -16.779 -25.440  0.00  0.00    -0.055 C 
ATOM     11  C   UNL     1      34.877 -17.862 -21.790  0.00  0.00    +0.010 C 
ATOM     12  C   UNL     1      35.317 -18.925 -24.325  0.00  0.00    -0.005 C 
ATOM     13  C   UNL     1      35.316 -19.180 -21.931  0.00  0.00    +0.050 C 
ATOM     14  C   UNL     1      35.542 -19.709 -23.196  0.00  0.00    +0.014 C 
ATOM     15  H   UNL     1      33.776 -15.033 -26.057  0.00  0.00    -0.084 HD
ATOM     16  H   UNL     1      32.836 -15.929 -25.008  0.00  0.00    -0.084 HD
BRANCH   6  17
ATOM     17  C   UNL     1      34.844 -14.829 -21.658  0.00  0.00    +0.002 C 
ATOM     18  C   UNL     1      33.862 -14.457 -20.568  0.00  0.00    +0.000 C 
ENDBRANCH   6  17
ENDBRANCH   2  13
BRANCH   3  19
ATOM     19  C   UNL     1      35.160 -21.569 -18.992  0.00  0.00    +0.054 C 
ATOM     20  C   UNL     1      34.733 -22.920 -17.048  0.00  0.00    +0.000 C 
ATOM     21  C   UNL     1      36.098 -22.807 -16.691  0.00  0.00    +0.000 C 
ATOM     22  C   UNL     1      34.275 -22.287 -18.216  0.00  0.00    +0.005 C 
ATOM     23  C   UNL     1      36.492 -21.444 -18.666  0.00  0.00    +0.005 C 
ATOM     24  C   UNL     1      36.964 -22.065 -17.511  0.00  0.00    +0.000 C 
ATOM     25  C   UNL     1      36.557 -23.439 -15.523  0.00  0.00    +0.003 C 
ATOM     26  C   UNL     1      33.867 -23.661 -16.229  0.00  0.00    +0.000 C 
ATOM     27  C   UNL     1      35.682 -24.171 -14.720  0.00  0.00    +0.031 C 
ATOM     28  C   UNL     1      34.340 -24.282 -15.073  0.00  0.00    +0.003 C 
BRANCH  27  31
ATOM     29  N   UNL     1      35.357 -24.982 -12.396  0.00  0.00    -0.343 N 
ATOM     30  N   UNL     1      37.415 -25.264 -13.465  0.00  0.00    -0.285 NA
ATOM     31  C   UNL     1      36.172 -24.820 -13.515  0.00  0.00    +0.117 C 
ATOM     32  H   UNL     1      35.709 -25.425 -11.590  0.00  0.00    +0.144 HD
ATOM     33  H   UNL     1      34.428 -24.656 -12.412  0.00  0.00    +0.144 HD
ATOM     34  H   UNL     1      37.749 -25.703 -12.649  0.00  0.00    +0.188 HD
ENDBRANCH  27  31
ENDBRANCH   3  19
TORSDOF 4
ENDMDL
MODEL 7
REMARK VINA RESULT:     -12.2      7.888     14.647
REMARK  Name = 447731
REMARK  4 active torsions:
REMARK  status: ('A' for Active; 'I' for Inactive)
REMARK    1  A    between atoms: N_2  and  C_13
REMARK    2  A    between atoms: C_3  and  C_19
REMARK    3  A    between atoms: C_6  and  C_17
REMARK    4  A    between atoms: C_27  and  C_31
REMARK                            x       y       z     vdW  Elec       q    Type
REMARK                         _______ _______ _______ _____ _____    ______ ____
ROOT
ATOM      1  O   UNL     1      33.489 -12.094 -24.704  0.00  0.00    -0.270 OA
ATOM      2  N   UNL     1      32.984 -11.155 -22.608  0.00  0.00    -0.280 N 
ATOM      3  C   UNL     1      33.426 -12.157 -23.480  0.00  0.00    +0.249 C 
ATOM      4  H   UNL     1      33.002 -11.378 -21.649  0.00  0.00    +0.155 HD
ENDROOT
BRANCH   2  13
ATOM      5  N   UNL     1      32.085  -4.881 -23.779  0.00  0.00    +0.387 N 
ATOM      6  C   UNL     1      33.974  -6.466 -23.915  0.00  0.00    +0.001 C 
ATOM      7  C   UNL     1      32.990  -7.581 -23.593  0.00  0.00    -0.029 C 
ATOM      8  C   UNL     1      33.277  -5.243 -24.543  0.00  0.00    -0.077 C 
ATOM      9  C   UNL     1      31.607  -7.308 -23.553  0.00  0.00    -0.048 C 
ATOM     10  C   UNL     1      31.077  -5.938 -23.895  0.00  0.00    -0.055 C 
ATOM     11  C   UNL     1      33.433  -8.870 -23.254  0.00  0.00    +0.010 C 
ATOM     12  C   UNL     1      30.701  -8.332 -23.239  0.00  0.00    -0.005 C 
ATOM     13  C   UNL     1      32.522  -9.877 -22.930  0.00  0.00    +0.050 C 
ATOM     14  C   UNL     1      31.157  -9.610 -22.928  0.00  0.00    +0.014 C 
ATOM     15  H   UNL     1      31.702  -4.008 -24.143  0.00  0.00    -0.084 HD
ATOM     16  H   UNL     1      32.337  -4.765 -22.797  0.00  0.00    -0.084 HD
BRANCH   6  17
ATOM     17  C   UNL     1      35.118  -6.902 -24.838  0.00  0.00    +0.002 C 
ATOM     18  C   UNL     1      35.315  -5.915 -25.968  0.00  0.00    +0.000 C 
ENDBRANCH   6  17
ENDBRANCH   2  13
BRANCH   3  19
ATOM     19  C   UNL     1      33.834 -13.431 -22.833  0.00  0.00    +0.054 C 
ATOM     20  C   UNL     1      34.782 -15.635 -23.013  0.00  0.00    +0.000 C 
ATOM     21  C   UNL     1      34.595 -15.812 -21.621  0.00  0.00    +0.000 C 
ATOM     22  C   UNL     1      34.392 -14.424 -23.611  0.00  0.00    +0.005 C 
ATOM     23  C   UNL     1      33.641 -13.578 -21.478  0.00  0.00    +0.005 C 
ATOM     24  C   UNL     1      34.022 -14.773 -20.868  0.00  0.00    +0.000 C 
ATOM     25  C   UNL     1      34.984 -17.021 -21.024  0.00  0.00    +0.003 C 
ATOM     26  C   UNL     1      35.354 -16.673 -23.766  0.00  0.00    +0.000 C 
ATOM     27  C   UNL     1      35.550 -18.042 -21.787  0.00  0.00    +0.031 C 
ATOM     28  C   UNL     1      35.735 -17.868 -23.156  0.00  0.00    +0.003 C 
BRANCH  27  31
ATOM     29  N   UNL     1      35.093 -20.389 -21.117  0.00  0.00    -0.343 N 
ATOM     30  N   UNL     1      37.140 -19.392 -20.594  0.00  0.00    -0.285 NA
ATOM     31  C   UNL     1      35.948 -19.289 -21.154  0.00  0.00    +0.117 C 
ATOM     32  H   UNL     1      35.383 -21.223 -20.683  0.00  0.00    +0.144 HD
ATOM     33  H   UNL     1      34.199 -20.332 -21.527  0.00  0.00    +0.144 HD
ATOM     34  H   UNL     1      37.411 -20.235 -20.164  0.00  0.00    +0.188 HD
ENDBRANCH  27  31
ENDBRANCH   3  19
TORSDOF 4
ENDMDL
MODEL 8
REMARK VINA RESULT:     -12.1      9.174     13.949
REMARK  Name = 447731
REMARK  4 active torsions:
REMARK  status: ('A' for Active; 'I' for Inactive)
REMARK    1  A    between atoms: N_2  and  C_13
REMARK    2  A    between atoms: C_3  and  C_19
REMARK    3  A    between atoms: C_6  and  C_17
REMARK    4  A    between atoms: C_27  and  C_31
REMARK                            x       y       z     vdW  Elec       q    Type
REMARK                         _______ _______ _______ _____ _____    ______ ____
ROOT
ATOM      1  O   UNL     1      31.462 -11.484 -21.847  0.00  0.00    -0.270 OA
ATOM      2  N   UNL     1      33.191 -11.240 -23.423  0.00  0.00    -0.280 N 
ATOM      3  C   UNL     1      32.212 -10.791 -22.528  0.00  0.00    +0.249 C 
ATOM      4  H   UNL     1      33.705 -10.540 -23.888  0.00  0.00    +0.155 HD
ENDROOT
BRANCH   2  13
ATOM      5  N   UNL     1      35.540 -17.230 -23.803  0.00  0.00    +0.387 N 
ATOM      6  C   UNL     1      35.046 -15.621 -21.994  0.00  0.00    +0.001 C 
ATOM      7  C   UNL     1      34.415 -14.719 -23.045  0.00  0.00    -0.029 C 
ATOM      8  C   UNL     1      35.052 -17.100 -22.431  0.00  0.00    -0.077 C 
ATOM      9  C   UNL     1      34.234 -15.192 -24.361  0.00  0.00    -0.048 C 
ATOM     10  C   UNL     1      34.591 -16.610 -24.731  0.00  0.00    -0.055 C 
ATOM     11  C   UNL     1      34.079 -13.387 -22.756  0.00  0.00    +0.010 C 
ATOM     12  C   UNL     1      33.669 -14.354 -25.334  0.00  0.00    -0.005 C 
ATOM     13  C   UNL     1      33.529 -12.558 -23.736  0.00  0.00    +0.050 C 
ATOM     14  C   UNL     1      33.319 -13.043 -25.022  0.00  0.00    +0.014 C 
ATOM     15  H   UNL     1      35.640 -18.219 -24.033  0.00  0.00    -0.084 HD
ATOM     16  H   UNL     1      36.443 -16.763 -23.884  0.00  0.00    -0.084 HD
BRANCH   6  17
ATOM     17  C   UNL     1      34.379 -15.521 -20.618  0.00  0.00    +0.002 C 
ATOM     18  C   UNL     1      32.908 -15.190 -20.746  0.00  0.00    +0.000 C 
ENDBRANCH   6  17
ENDBRANCH   2  13
BRANCH   3  19
ATOM     19  C   UNL     1      32.067  -9.315 -22.429  0.00  0.00    +0.054 C 
ATOM     20  C   UNL     1      31.729  -7.191 -23.506  0.00  0.00    +0.000 C 
ATOM     21  C   UNL     1      31.798  -6.557 -22.242  0.00  0.00    +0.000 C 
ATOM     22  C   UNL     1      31.867  -8.587 -23.583  0.00  0.00    +0.005 C 
ATOM     23  C   UNL     1      32.138  -8.723 -21.188  0.00  0.00    +0.005 C 
ATOM     24  C   UNL     1      32.003  -7.339 -21.093  0.00  0.00    +0.000 C 
ATOM     25  C   UNL     1      31.660  -5.162 -22.165  0.00  0.00    +0.003 C 
ATOM     26  C   UNL     1      31.524  -6.410 -24.655  0.00  0.00    +0.000 C 
ATOM     27  C   UNL     1      31.457  -4.402 -23.317  0.00  0.00    +0.031 C 
ATOM     28  C   UNL     1      31.389  -5.026 -24.560  0.00  0.00    +0.003 C 
BRANCH  27  31
ATOM     29  N   UNL     1      30.354  -2.378 -22.396  0.00  0.00    -0.343 N 
ATOM     30  N   UNL     1      32.108  -2.171 -23.924  0.00  0.00    -0.285 NA
ATOM     31  C   UNL     1      31.317  -2.958 -23.220  0.00  0.00    +0.117 C 
ATOM     32  H   UNL     1      30.276  -1.398 -22.345  0.00  0.00    +0.144 HD
ATOM     33  H   UNL     1      29.752  -2.947 -21.864  0.00  0.00    +0.144 HD
ATOM     34  H   UNL     1      32.014  -1.193 -23.860  0.00  0.00    +0.188 HD
ENDBRANCH  27  31
ENDBRANCH   3  19
TORSDOF 4
ENDMDL
MODEL 9
REMARK VINA RESULT:     -11.7      9.301     16.076
REMARK  Name = 447731
REMARK  4 active torsions:
REMARK  status: ('A' for Active; 'I' for Inactive)
REMARK    1  A    between atoms: N_2  and  C_13
REMARK    2  A    between atoms: C_3  and  C_19
REMARK    3  A    between atoms: C_6  and  C_17
REMARK    4  A    between atoms: C_27  and  C_31
REMARK                            x       y       z     vdW  Elec       q    Type
REMARK                         _______ _______ _______ _____ _____    ______ ____
ROOT
ATOM      1  O   UNL     1      30.932 -10.417 -22.338  0.00  0.00    -0.270 OA
ATOM      2  N   UNL     1      32.795  -9.257 -23.184  0.00  0.00    -0.280 N 
ATOM      3  C   UNL     1      32.079 -10.389 -22.772  0.00  0.00    +0.249 C 
ATOM      4  H   UNL     1      33.711  -9.419 -23.507  0.00  0.00    +0.155 HD
ENDROOT
BRANCH   2  13
ATOM      5  N   UNL     1      32.015  -2.887 -23.783  0.00  0.00    +0.387 N 
ATOM      6  C   UNL     1      33.201  -4.662 -25.026  0.00  0.00    +0.001 C 
ATOM      7  C   UNL     1      32.541  -5.674 -24.101  0.00  0.00    -0.029 C 
ATOM      8  C   UNL     1      32.396  -3.350 -25.116  0.00  0.00    -0.077 C 
ATOM      9  C   UNL     1      31.543  -5.255 -23.198  0.00  0.00    -0.048 C 
ATOM     10  C   UNL     1      31.063  -3.825 -23.182  0.00  0.00    -0.055 C 
ATOM     11  C   UNL     1      32.960  -7.014 -24.067  0.00  0.00    +0.010 C 
ATOM     12  C   UNL     1      30.947  -6.185 -22.332  0.00  0.00    -0.005 C 
ATOM     13  C   UNL     1      32.369  -7.927 -23.192  0.00  0.00    +0.050 C 
ATOM     14  C   UNL     1      31.359  -7.514 -22.330  0.00  0.00    +0.014 C 
ATOM     15  H   UNL     1      31.582  -1.966 -23.856  0.00  0.00    -0.084 HD
ATOM     16  H   UNL     1      32.847  -2.832 -23.196  0.00  0.00    -0.084 HD
BRANCH   6  17
ATOM     17  C   UNL     1      33.436  -5.189 -26.446  0.00  0.00    +0.002 C 
ATOM     18  C   UNL     1      34.914  -5.281 -26.758  0.00  0.00    +0.000 C 
ENDBRANCH   6  17
ENDBRANCH   2  13
BRANCH   3  19
ATOM     19  C   UNL     1      32.818 -11.675 -22.856  0.00  0.00    +0.054 C 
ATOM     20  C   UNL     1      33.432 -13.779 -21.863  0.00  0.00    +0.000 C 
ATOM     21  C   UNL     1      34.200 -14.079 -23.014  0.00  0.00    +0.000 C 
ATOM     22  C   UNL     1      32.739 -12.558 -21.799  0.00  0.00    +0.005 C 
ATOM     23  C   UNL     1      33.557 -11.943 -23.986  0.00  0.00    +0.005 C 
ATOM     24  C   UNL     1      34.252 -13.150 -24.066  0.00  0.00    +0.000 C 
ATOM     25  C   UNL     1      34.893 -15.299 -23.078  0.00  0.00    +0.003 C 
ATOM     26  C   UNL     1      33.381 -14.707 -20.811  0.00  0.00    +0.000 C 
ATOM     27  C   UNL     1      34.831 -16.209 -22.023  0.00  0.00    +0.031 C 
ATOM     28  C   UNL     1      34.075 -15.913 -20.891  0.00  0.00    +0.003 C 
BRANCH  27  31
ATOM     29  N   UNL     1      35.710 -18.288 -20.990  0.00  0.00    -0.343 N 
ATOM     30  N   UNL     1      36.083 -17.849 -23.253  0.00  0.00    -0.285 NA
ATOM     31  C   UNL     1      35.554 -17.467 -22.105  0.00  0.00    +0.117 C 
ATOM     32  H   UNL     1      36.203 -19.136 -21.067  0.00  0.00    +0.144 HD
ATOM     33  H   UNL     1      35.325 -18.020 -20.123  0.00  0.00    +0.144 HD
ATOM     34  H   UNL     1      36.573 -18.701 -23.311  0.00  0.00    +0.188 HD
ENDBRANCH  27  31
ENDBRANCH   3  19
TORSDOF 4
ENDMDL
