MODEL 1
REMARK VINA RESULT:     -12.8      0.000      0.000
REMARK  Name = 3351
REMARK  5 active torsions:
REMARK  status: ('A' for Active; 'I' for Inactive)
REMARK    1  A    between atoms: N_2  and  C_10
REMARK    2  A    between atoms: C_8  and  C_20
REMARK    3  A    between atoms: C_10  and  C_13
REMARK    4  A    between atoms: C_20  and  O_21
REMARK    5  A    between atoms: O_21  and  C_23
REMARK                            x       y       z     vdW  Elec       q    Type
REMARK                         _______ _______ _______ _____ _____    ______ ____
ROOT
ATOM      1  O   UNL     1      35.631 -17.562 -23.700  0.00  0.00    -0.271 OA
ATOM      2  N   UNL     1      33.221 -13.379 -22.431  0.00  0.00    +0.392 N 
ATOM      3  N   UNL     1      34.851 -15.734 -22.496  0.00  0.00    -0.281 N 
ATOM      4  C   UNL     1      33.392 -14.132 -23.681  0.00  0.00    -0.055 C 
ATOM      5  C   UNL     1      33.266 -14.285 -21.274  0.00  0.00    -0.055 C 
ATOM      6  C   UNL     1      34.722 -14.886 -23.681  0.00  0.00    +0.071 C 
ATOM      7  C   UNL     1      34.591 -15.049 -21.227  0.00  0.00    +0.071 C 
ATOM      8  C   UNL     1      35.311 -17.043 -22.627  0.00  0.00    +0.270 C 
ATOM      9  H   UNL     1      33.989 -12.712 -22.348  0.00  0.00    -0.079 HD
ENDROOT
BRANCH   2  10
ATOM     10  C   UNL     1      31.964 -12.632 -22.449  0.00  0.00    -0.050 C 
BRANCH  10  13
ATOM     11  O   UNL     1      32.506  -7.746 -21.988  0.00  0.00    -0.435 OA
ATOM     12  O   UNL     1      32.322  -7.835 -19.587  0.00  0.00    -0.435 OA
ATOM     13  C   UNL     1      32.055 -11.361 -21.646  0.00  0.00    -0.040 C 
ATOM     14  C   UNL     1      32.245 -10.152 -22.308  0.00  0.00    +0.034 C 
ATOM     15  C   UNL     1      31.947 -11.424 -20.252  0.00  0.00    -0.003 C 
ATOM     16  C   UNL     1      32.323  -9.014 -21.530  0.00  0.00    +0.176 C 
ATOM     17  C   UNL     1      32.217  -9.066 -20.159  0.00  0.00    +0.176 C 
ATOM     18  C   UNL     1      32.030 -10.257 -19.489  0.00  0.00    +0.040 C 
ATOM     19  C   UNL     1      32.504  -7.004 -20.752  0.00  0.00    +0.429 C 
ENDBRANCH  10  13
ENDBRANCH   2  10
BRANCH   8  20
ATOM     20  C   UNL     1      35.410 -17.853 -21.358  0.00  0.00    +0.290 C 
BRANCH  20  21
ATOM     21  O   UNL     1      35.554 -19.196 -21.748  0.00  0.00    -0.466 OA
BRANCH  21  23
ATOM     22 CL   UNL     1      33.538 -23.299 -18.062  0.00  0.00    -0.082 Cl
ATOM     23  C   UNL     1      35.081 -20.159 -20.885  0.00  0.00    +0.139 C 
ATOM     24  C   UNL     1      33.713 -20.306 -20.712  0.00  0.00    +0.038 C 
ATOM     25  C   UNL     1      35.981 -20.965 -20.203  0.00  0.00    +0.038 C 
ATOM     26  C   UNL     1      33.234 -21.281 -19.836  0.00  0.00    +0.015 C 
ATOM     27  C   UNL     1      35.502 -21.939 -19.327  0.00  0.00    +0.015 C 
ATOM     28  C   UNL     1      34.129 -22.097 -19.144  0.00  0.00    +0.058 C 
ENDBRANCH  21  23
ENDBRANCH  20  21
ENDBRANCH   8  20
TORSDOF 5
ENDMDL
MODEL 2
REMARK VINA RESULT:     -12.7      3.650      9.608
REMARK  Name = 3351
REMARK  5 active torsions:
REMARK  status: ('A' for Active; 'I' for Inactive)
REMARK    1  A    between atoms: N_2  and  C_10
REMARK    2  A    between atoms: C_8  and  C_20
REMARK    3  A    between atoms: C_10  and  C_13
REMARK    4  A    between atoms: C_20  and  O_21
REMARK    5  A    between atoms: O_21  and  C_23
REMARK                            x       y       z     vdW  Elec       q    Type
REMARK                         _______ _______ _______ _____ _____    ______ ____
ROOT
ATOM      1  O   UNL     1      34.175 -15.698 -26.086  0.00  0.00    -0.271 OA
ATOM      2  N   UNL     1      35.547 -18.572 -22.243  0.00  0.00    +0.392 N 
ATOM      3  N   UNL     1      34.464 -16.532 -23.937  0.00  0.00    -0.281 N 
ATOM      4  C   UNL     1      35.626 -18.697 -23.705  0.00  0.00    -0.055 C 
ATOM      5  C   UNL     1      35.617 -17.159 -21.843  0.00  0.00    -0.055 C 
ATOM      6  C   UNL     1      34.491 -17.926 -24.377  0.00  0.00    +0.071 C 
ATOM      7  C   UNL     1      34.485 -16.352 -22.483  0.00  0.00    +0.071 C 
ATOM      8  C   UNL     1      34.302 -15.511 -24.873  0.00  0.00    +0.270 C 
ATOM      9  H   UNL     1      34.651 -18.950 -21.934  0.00  0.00    -0.079 HD
ENDROOT
BRANCH   2  10
ATOM     10  C   UNL     1      36.615 -19.339 -21.602  0.00  0.00    -0.050 C 
BRANCH  10  13
ATOM     11  O   UNL     1      32.985 -21.905 -19.454  0.00  0.00    -0.435 OA
ATOM     12  O   UNL     1      34.484 -22.909 -17.856  0.00  0.00    -0.435 OA
ATOM     13  C   UNL     1      36.076 -20.305 -20.580  0.00  0.00    -0.040 C 
ATOM     14  C   UNL     1      34.717 -20.602 -20.576  0.00  0.00    +0.034 C 
ATOM     15  C   UNL     1      36.955 -20.881 -19.657  0.00  0.00    -0.003 C 
ATOM     16  C   UNL     1      34.270 -21.492 -19.620  0.00  0.00    +0.176 C 
ATOM     17  C   UNL     1      35.126 -22.065 -18.708  0.00  0.00    +0.176 C 
ATOM     18  C   UNL     1      36.476 -21.780 -18.699  0.00  0.00    +0.040 C 
ATOM     19  C   UNL     1      33.127 -22.804 -18.335  0.00  0.00    +0.429 C 
ENDBRANCH  10  13
ENDBRANCH   2  10
BRANCH   8  20
ATOM     20  C   UNL     1      34.291 -14.101 -24.339  0.00  0.00    +0.290 C 
BRANCH  20  21
ATOM     21  O   UNL     1      32.941 -13.745 -24.171  0.00  0.00    -0.466 OA
BRANCH  21  23
ATOM     22 CL   UNL     1      31.566 -10.488 -19.482  0.00  0.00    -0.082 Cl
ATOM     23  C   UNL     1      32.620 -12.982 -23.071  0.00  0.00    +0.139 C 
ATOM     24  C   UNL     1      32.474 -13.594 -21.835  0.00  0.00    +0.038 C 
ATOM     25  C   UNL     1      32.448 -11.613 -23.218  0.00  0.00    +0.038 C 
ATOM     26  C   UNL     1      32.146 -12.820 -20.721  0.00  0.00    +0.015 C 
ATOM     27  C   UNL     1      32.121 -10.840 -22.104  0.00  0.00    +0.015 C 
ATOM     28  C   UNL     1      31.970 -11.442 -20.856  0.00  0.00    +0.058 C 
ENDBRANCH  21  23
ENDBRANCH  20  21
ENDBRANCH   8  20
TORSDOF 5
ENDMDL
MODEL 3
REMARK VINA RESULT:     -12.7      1.466      2.057
REMARK  Name = 3351
REMARK  5 active torsions:
REMARK  status: ('A' for Active; 'I' for Inactive)
REMARK    1  A    between atoms: N_2  and  C_10
REMARK    2  A    between atoms: C_8  and  C_20
REMARK    3  A    between atoms: C_10  and  C_13
REMARK    4  A    between atoms: C_20  and  O_21
REMARK    5  A    between atoms: O_21  and  C_23
REMARK                            x       y       z     vdW  Elec       q    Type
REMARK                         _______ _______ _______ _____ _____    ______ ____
ROOT
ATOM      1  O   UNL     1      34.350 -16.366 -26.014  0.00  0.00    -0.271 OA
ATOM      2  N   UNL     1      33.046 -13.401 -22.216  0.00  0.00    +0.392 N 
ATOM      3  N   UNL     1      34.368 -15.216 -23.995  0.00  0.00    -0.281 N 
ATOM      4  C   UNL     1      32.495 -13.670 -23.552  0.00  0.00    -0.055 C 
ATOM      5  C   UNL     1      33.728 -14.594 -21.691  0.00  0.00    -0.055 C 
ATOM      6  C   UNL     1      33.601 -14.087 -24.520  0.00  0.00    +0.071 C 
ATOM      7  C   UNL     1      34.856 -15.035 -22.626  0.00  0.00    +0.071 C 
ATOM      8  C   UNL     1      34.680 -16.290 -24.828  0.00  0.00    +0.270 C 
ATOM      9  H   UNL     1      33.730 -12.648 -22.294  0.00  0.00    -0.079 HD
ENDROOT
BRANCH   2  10
ATOM     10  C   UNL     1      31.991 -12.970 -21.301  0.00  0.00    -0.050 C 
BRANCH  10  13
ATOM     11  O   UNL     1      31.861  -8.345 -23.028  0.00  0.00    -0.435 OA
ATOM     12  O   UNL     1      31.917  -7.394 -20.814  0.00  0.00    -0.435 OA
ATOM     13  C   UNL     1      31.971 -11.474 -21.132  0.00  0.00    -0.040 C 
ATOM     14  C   UNL     1      31.922 -10.662 -22.262  0.00  0.00    +0.034 C 
ATOM     15  C   UNL     1      32.004 -10.932 -19.842  0.00  0.00    -0.003 C 
ATOM     16  C   UNL     1      31.906  -9.297 -22.057  0.00  0.00    +0.176 C 
ATOM     17  C   UNL     1      31.938  -8.755 -20.793  0.00  0.00    +0.176 C 
ATOM     18  C   UNL     1      31.988  -9.546 -19.663  0.00  0.00    +0.040 C 
ATOM     19  C   UNL     1      31.867  -7.142 -22.233  0.00  0.00    +0.429 C 
ENDBRANCH  10  13
ENDBRANCH   2  10
BRANCH   8  20
ATOM     20  C   UNL     1      35.468 -17.416 -24.208  0.00  0.00    +0.290 C 
BRANCH  20  21
ATOM     21  O   UNL     1      34.560 -18.173 -23.447  0.00  0.00    -0.466 OA
BRANCH  21  23
ATOM     22 CL   UNL     1      36.741 -21.344 -19.011  0.00  0.00    -0.082 Cl
ATOM     23  C   UNL     1      35.071 -18.914 -22.406  0.00  0.00    +0.139 C 
ATOM     24  C   UNL     1      36.403 -18.763 -22.051  0.00  0.00    +0.038 C 
ATOM     25  C   UNL     1      34.245 -19.802 -21.731  0.00  0.00    +0.038 C 
ATOM     26  C   UNL     1      36.922 -19.517 -20.997  0.00  0.00    +0.015 C 
ATOM     27  C   UNL     1      34.764 -20.555 -20.678  0.00  0.00    +0.015 C 
ATOM     28  C   UNL     1      36.101 -20.413 -20.310  0.00  0.00    +0.058 C 
ENDBRANCH  21  23
ENDBRANCH  20  21
ENDBRANCH   8  20
TORSDOF 5
ENDMDL
MODEL 4
REMARK VINA RESULT:     -12.3      5.305      7.768
REMARK  Name = 3351
REMARK  5 active torsions:
REMARK  status: ('A' for Active; 'I' for Inactive)
REMARK    1  A    between atoms: N_2  and  C_10
REMARK    2  A    between atoms: C_8  and  C_20
REMARK    3  A    between atoms: C_10  and  C_13
REMARK    4  A    between atoms: C_20  and  O_21
REMARK    5  A    between atoms: O_21  and  C_23
REMARK                            x       y       z     vdW  Elec       q    Type
REMARK                         _______ _______ _______ _____ _____    ______ ____
ROOT
ATOM      1  O   UNL     1      31.932 -22.417 -17.973  0.00  0.00    -0.271 OA
ATOM      2  N   UNL     1      35.138 -20.243 -21.121  0.00  0.00    +0.392 N 
ATOM      3  N   UNL     1      33.745 -22.037 -19.375  0.00  0.00    -0.281 N 
ATOM      4  C   UNL     1      33.830 -19.873 -20.562  0.00  0.00    -0.055 C 
ATOM      5  C   UNL     1      35.882 -21.087 -20.175  0.00  0.00    -0.055 C 
ATOM      6  C   UNL     1      33.006 -21.120 -20.243  0.00  0.00    +0.071 C 
ATOM      7  C   UNL     1      35.097 -22.358 -19.841  0.00  0.00    +0.071 C 
ATOM      8  C   UNL     1      33.110 -22.619 -18.279  0.00  0.00    +0.270 C 
ATOM      9  H   UNL     1      34.984 -20.776 -21.977  0.00  0.00    -0.079 HD
ENDROOT
BRANCH   2  10
ATOM     10  C   UNL     1      35.909 -19.047 -21.457  0.00  0.00    -0.050 C 
BRANCH  10  13
ATOM     11  O   UNL     1      34.501 -15.156 -24.150  0.00  0.00    -0.435 OA
ATOM     12  O   UNL     1      34.077 -16.511 -26.098  0.00  0.00    -0.435 OA
ATOM     13  C   UNL     1      35.416 -18.398 -22.723  0.00  0.00    -0.040 C 
ATOM     14  C   UNL     1      35.213 -17.022 -22.747  0.00  0.00    +0.034 C 
ATOM     15  C   UNL     1      35.173 -19.195 -23.848  0.00  0.00    -0.003 C 
ATOM     16  C   UNL     1      34.760 -16.473 -23.930  0.00  0.00    +0.176 C 
ATOM     17  C   UNL     1      34.518 -17.247 -25.041  0.00  0.00    +0.176 C 
ATOM     18  C   UNL     1      34.715 -18.613 -25.033  0.00  0.00    +0.040 C 
ATOM     19  C   UNL     1      34.069 -15.186 -25.526  0.00  0.00    +0.429 C 
ENDBRANCH  10  13
ENDBRANCH   2  10
BRANCH   8  20
ATOM     20  C   UNL     1      33.943 -23.548 -17.432  0.00  0.00    +0.290 C 
BRANCH  20  21
ATOM     21  O   UNL     1      34.579 -22.749 -16.465  0.00  0.00    -0.466 OA
BRANCH  21  23
ATOM     22 CL   UNL     1      39.042 -25.153 -13.501  0.00  0.00    -0.082 Cl
ATOM     23  C   UNL     1      35.626 -23.311 -15.769  0.00  0.00    +0.139 C 
ATOM     24  C   UNL     1      36.928 -22.990 -16.120  0.00  0.00    +0.038 C 
ATOM     25  C   UNL     1      35.359 -24.191 -14.730  0.00  0.00    +0.038 C 
ATOM     26  C   UNL     1      37.989 -23.561 -15.416  0.00  0.00    +0.015 C 
ATOM     27  C   UNL     1      36.420 -24.762 -14.027  0.00  0.00    +0.015 C 
ATOM     28  C   UNL     1      37.734 -24.448 -14.369  0.00  0.00    +0.058 C 
ENDBRANCH  21  23
ENDBRANCH  20  21
ENDBRANCH   8  20
TORSDOF 5
ENDMDL
MODEL 5
REMARK VINA RESULT:     -12.3      3.769      9.768
REMARK  Name = 3351
REMARK  5 active torsions:
REMARK  status: ('A' for Active; 'I' for Inactive)
REMARK    1  A    between atoms: N_2  and  C_10
REMARK    2  A    between atoms: C_8  and  C_20
REMARK    3  A    between atoms: C_10  and  C_13
REMARK    4  A    between atoms: C_20  and  O_21
REMARK    5  A    between atoms: O_21  and  C_23
REMARK                            x       y       z     vdW  Elec       q    Type
REMARK                         _______ _______ _______ _____ _____    ______ ____
ROOT
ATOM      1  O   UNL     1      33.460 -13.233 -25.980  0.00  0.00    -0.271 OA
ATOM      2  N   UNL     1      34.946 -17.316 -23.523  0.00  0.00    +0.392 N 
ATOM      3  N   UNL     1      33.858 -14.780 -24.293  0.00  0.00    -0.281 N 
ATOM      4  C   UNL     1      34.911 -16.919 -24.937  0.00  0.00    -0.055 C 
ATOM      5  C   UNL     1      35.124 -16.138 -22.661  0.00  0.00    -0.055 C 
ATOM      6  C   UNL     1      33.774 -15.930 -25.194  0.00  0.00    +0.071 C 
ATOM      7  C   UNL     1      33.995 -15.127 -22.876  0.00  0.00    +0.071 C 
ATOM      8  C   UNL     1      33.686 -13.491 -24.795  0.00  0.00    +0.270 C 
ATOM      9  H   UNL     1      34.055 -17.755 -23.288  0.00  0.00    -0.079 HD
ENDROOT
BRANCH   2  10
ATOM     10  C   UNL     1      36.012 -18.288 -23.288  0.00  0.00    -0.050 C 
BRANCH  10  13
ATOM     11  O   UNL     1      32.908 -20.934 -20.506  0.00  0.00    -0.435 OA
ATOM     12  O   UNL     1      34.677 -21.707 -19.062  0.00  0.00    -0.435 OA
ATOM     13  C   UNL     1      35.690 -19.209 -22.142  0.00  0.00    -0.040 C 
ATOM     14  C   UNL     1      34.371 -19.601 -21.934  0.00  0.00    +0.034 C 
ATOM     15  C   UNL     1      36.724 -19.652 -21.309  0.00  0.00    -0.003 C 
ATOM     16  C   UNL     1      34.124 -20.445 -20.870  0.00  0.00    +0.176 C 
ATOM     17  C   UNL     1      35.134 -20.886 -20.047  0.00  0.00    +0.176 C 
ATOM     18  C   UNL     1      36.446 -20.507 -20.239  0.00  0.00    +0.040 C 
ATOM     19  C   UNL     1      33.265 -21.733 -19.360  0.00  0.00    +0.429 C 
ENDBRANCH  10  13
ENDBRANCH   2  10
BRANCH   8  20
ATOM     20  C   UNL     1      33.793 -12.361 -23.802  0.00  0.00    +0.290 C 
BRANCH  20  21
ATOM     21  O   UNL     1      32.519 -12.210 -23.226  0.00  0.00    -0.466 OA
BRANCH  21  23
ATOM     22 CL   UNL     1      31.700  -7.608 -19.672  0.00  0.00    -0.082 Cl
ATOM     23  C   UNL     1      32.326 -11.130 -22.393  0.00  0.00    +0.139 C 
ATOM     24  C   UNL     1      32.685  -9.863 -22.826  0.00  0.00    +0.038 C 
ATOM     25  C   UNL     1      31.776 -11.330 -21.136  0.00  0.00    +0.038 C 
ATOM     26  C   UNL     1      32.491  -8.770 -21.982  0.00  0.00    +0.015 C 
ATOM     27  C   UNL     1      31.582 -10.236 -20.291  0.00  0.00    +0.015 C 
ATOM     28  C   UNL     1      31.939  -8.957 -20.713  0.00  0.00    +0.058 C 
ENDBRANCH  21  23
ENDBRANCH  20  21
ENDBRANCH   8  20
TORSDOF 5
ENDMDL
MODEL 6
REMARK VINA RESULT:     -12.3      4.449      6.457
REMARK  Name = 3351
REMARK  5 active torsions:
REMARK  status: ('A' for Active; 'I' for Inactive)
REMARK    1  A    between atoms: N_2  and  C_10
REMARK    2  A    between atoms: C_8  and  C_20
REMARK    3  A    between atoms: C_10  and  C_13
REMARK    4  A    between atoms: C_20  and  O_21
REMARK    5  A    between atoms: O_21  and  C_23
REMARK                            x       y       z     vdW  Elec       q    Type
REMARK                         _______ _______ _______ _____ _____    ______ ____
ROOT
ATOM      1  O   UNL     1      36.305 -22.151 -18.762  0.00  0.00    -0.271 OA
ATOM      2  N   UNL     1      35.540 -18.778 -22.360  0.00  0.00    +0.392 N 
ATOM      3  N   UNL     1      35.285 -20.625 -20.185  0.00  0.00    -0.281 N 
ATOM      4  C   UNL     1      36.730 -19.424 -21.788  0.00  0.00    -0.055 C 
ATOM      5  C   UNL     1      34.378 -19.674 -22.278  0.00  0.00    -0.055 C 
ATOM      6  C   UNL     1      36.489 -19.806 -20.328  0.00  0.00    +0.071 C 
ATOM      7  C   UNL     1      34.091 -20.068 -20.827  0.00  0.00    +0.071 C 
ATOM      8  C   UNL     1      35.312 -21.765 -19.383  0.00  0.00    +0.270 C 
ATOM      9  H   UNL     1      35.338 -17.937 -21.819  0.00  0.00    -0.079 HD
ENDROOT
BRANCH   2  10
ATOM     10  C   UNL     1      35.786 -18.383 -23.746  0.00  0.00    -0.050 C 
BRANCH  10  13
ATOM     11  O   UNL     1      33.621 -15.195 -26.833  0.00  0.00    -0.435 OA
ATOM     12  O   UNL     1      33.365 -13.526 -25.114  0.00  0.00    -0.435 OA
ATOM     13  C   UNL     1      35.139 -17.065 -24.078  0.00  0.00    -0.040 C 
ATOM     14  C   UNL     1      34.698 -16.832 -25.377  0.00  0.00    +0.034 C 
ATOM     15  C   UNL     1      34.996 -16.102 -23.072  0.00  0.00    -0.003 C 
ATOM     16  C   UNL     1      34.111 -15.609 -25.633  0.00  0.00    +0.176 C 
ATOM     17  C   UNL     1      33.966 -14.656 -24.652  0.00  0.00    +0.176 C 
ATOM     18  C   UNL     1      34.398 -14.872 -23.359  0.00  0.00    +0.040 C 
ATOM     19  C   UNL     1      33.150 -13.875 -26.497  0.00  0.00    +0.429 C 
ENDBRANCH  10  13
ENDBRANCH   2  10
BRANCH   8  20
ATOM     20  C   UNL     1      34.032 -22.557 -19.294  0.00  0.00    +0.290 C 
BRANCH  20  21
ATOM     21  O   UNL     1      34.246 -23.560 -18.332  0.00  0.00    -0.466 OA
BRANCH  21  23
ATOM     22 CL   UNL     1      31.099 -23.271 -13.382  0.00  0.00    -0.082 Cl
ATOM     23  C   UNL     1      33.509 -23.490 -17.171  0.00  0.00    +0.139 C 
ATOM     24  C   UNL     1      34.122 -23.760 -15.957  0.00  0.00    +0.038 C 
ATOM     25  C   UNL     1      32.165 -23.153 -17.236  0.00  0.00    +0.038 C 
ATOM     26  C   UNL     1      33.374 -23.693 -14.781  0.00  0.00    +0.015 C 
ATOM     27  C   UNL     1      31.417 -23.085 -16.060  0.00  0.00    +0.015 C 
ATOM     28  C   UNL     1      32.021 -23.354 -14.833  0.00  0.00    +0.058 C 
ENDBRANCH  21  23
ENDBRANCH  20  21
ENDBRANCH   8  20
TORSDOF 5
ENDMDL
MODEL 7
REMARK VINA RESULT:     -11.8      3.943     10.313
REMARK  Name = 3351
REMARK  5 active torsions:
REMARK  status: ('A' for Active; 'I' for Inactive)
REMARK    1  A    between atoms: N_2  and  C_10
REMARK    2  A    between atoms: C_8  and  C_20
REMARK    3  A    between atoms: C_10  and  C_13
REMARK    4  A    between atoms: C_20  and  O_21
REMARK    5  A    between atoms: O_21  and  C_23
REMARK                            x       y       z     vdW  Elec       q    Type
REMARK                         _______ _______ _______ _____ _____    ______ ____
ROOT
ATOM      1  O   UNL     1      32.389 -13.140 -20.278  0.00  0.00    -0.271 OA
ATOM      2  N   UNL     1      35.275 -16.381 -22.744  0.00  0.00    +0.392 N 
ATOM      3  N   UNL     1      33.813 -14.084 -21.852  0.00  0.00    -0.281 N 
ATOM      4  C   UNL     1      34.568 -16.401 -21.455  0.00  0.00    -0.055 C 
ATOM      5  C   UNL     1      34.560 -15.533 -23.709  0.00  0.00    -0.055 C 
ATOM      6  C   UNL     1      34.438 -14.988 -20.887  0.00  0.00    +0.071 C 
ATOM      7  C   UNL     1      34.422 -14.102 -23.184  0.00  0.00    +0.071 C 
ATOM      8  C   UNL     1      32.807 -13.212 -21.436  0.00  0.00    +0.270 C 
ATOM      9  H   UNL     1      36.205 -15.987 -22.596  0.00  0.00    -0.079 HD
ENDROOT
BRANCH   2  10
ATOM     10  C   UNL     1      35.428 -17.737 -23.267  0.00  0.00    -0.050 C 
BRANCH  10  13
ATOM     11  O   UNL     1      34.157 -21.346 -20.146  0.00  0.00    -0.435 OA
ATOM     12  O   UNL     1      36.374 -21.474 -19.209  0.00  0.00    -0.435 OA
ATOM     13  C   UNL     1      35.719 -18.731 -22.174  0.00  0.00    -0.040 C 
ATOM     14  C   UNL     1      34.699 -19.562 -21.722  0.00  0.00    +0.034 C 
ATOM     15  C   UNL     1      37.010 -18.797 -21.637  0.00  0.00    -0.003 C 
ATOM     16  C   UNL     1      35.013 -20.457 -20.719  0.00  0.00    +0.176 C 
ATOM     17  C   UNL     1      36.278 -20.529 -20.184  0.00  0.00    +0.176 C 
ATOM     18  C   UNL     1      37.300 -19.712 -20.621  0.00  0.00    +0.040 C 
ATOM     19  C   UNL     1      35.025 -21.988 -19.191  0.00  0.00    +0.429 C 
ENDBRANCH  10  13
ENDBRANCH   2  10
BRANCH   8  20
ATOM     20  C   UNL     1      32.212 -12.317 -22.493  0.00  0.00    +0.290 C 
BRANCH  20  21
ATOM     21  O   UNL     1      31.264 -11.505 -21.846  0.00  0.00    -0.466 OA
BRANCH  21  23
ATOM     22 CL   UNL     1      32.433  -5.762 -21.492  0.00  0.00    -0.082 Cl
ATOM     23  C   UNL     1      31.536 -10.158 -21.763  0.00  0.00    +0.139 C 
ATOM     24  C   UNL     1      31.471  -9.378 -22.907  0.00  0.00    +0.038 C 
ATOM     25  C   UNL     1      31.873  -9.605 -20.536  0.00  0.00    +0.038 C 
ATOM     26  C   UNL     1      31.749  -8.013 -22.824  0.00  0.00    +0.015 C 
ATOM     27  C   UNL     1      32.152  -8.241 -20.452  0.00  0.00    +0.015 C 
ATOM     28  C   UNL     1      32.089  -7.445 -21.595  0.00  0.00    +0.058 C 
ENDBRANCH  21  23
ENDBRANCH  20  21
ENDBRANCH   8  20
TORSDOF 5
ENDMDL
MODEL 8
REMARK VINA RESULT:     -11.8      4.982      7.499
REMARK  Name = 3351
REMARK  5 active torsions:
REMARK  status: ('A' for Active; 'I' for Inactive)
REMARK    1  A    between atoms: N_2  and  C_10
REMARK    2  A    between atoms: C_8  and  C_20
REMARK    3  A    between atoms: C_10  and  C_13
REMARK    4  A    between atoms: C_20  and  O_21
REMARK    5  A    between atoms: O_21  and  C_23
REMARK                            x       y       z     vdW  Elec       q    Type
REMARK                         _______ _______ _______ _____ _____    ______ ____
ROOT
ATOM      1  O   UNL     1      31.917 -22.217 -18.143  0.00  0.00    -0.271 OA
ATOM      2  N   UNL     1      35.439 -20.218 -21.061  0.00  0.00    +0.392 N 
ATOM      3  N   UNL     1      33.817 -21.946 -19.452  0.00  0.00    -0.281 N 
ATOM      4  C   UNL     1      34.144 -19.756 -20.542  0.00  0.00    -0.055 C 
ATOM      5  C   UNL     1      36.063 -21.161 -20.121  0.00  0.00    -0.055 C 
ATOM      6  C   UNL     1      33.201 -20.936 -20.311  0.00  0.00    +0.071 C 
ATOM      7  C   UNL     1      35.156 -22.368 -19.873  0.00  0.00    +0.071 C 
ATOM      8  C   UNL     1      33.085 -22.511 -18.408  0.00  0.00    +0.270 C 
ATOM      9  H   UNL     1      35.278 -20.703 -21.945  0.00  0.00    -0.079 HD
ENDROOT
BRANCH   2  10
ATOM     10  C   UNL     1      36.326 -19.084 -21.314  0.00  0.00    -0.050 C 
BRANCH  10  13
ATOM     11  O   UNL     1      34.531 -17.310 -25.559  0.00  0.00    -0.435 OA
ATOM     12  O   UNL     1      33.856 -15.233 -24.539  0.00  0.00    -0.435 OA
ATOM     13  C   UNL     1      35.658 -18.025 -22.151  0.00  0.00    -0.040 C 
ATOM     14  C   UNL     1      35.441 -18.265 -23.505  0.00  0.00    +0.034 C 
ATOM     15  C   UNL     1      35.271 -16.823 -21.550  0.00  0.00    -0.003 C 
ATOM     16  C   UNL     1      34.826 -17.266 -24.231  0.00  0.00    +0.176 C 
ATOM     17  C   UNL     1      34.442 -16.080 -23.649  0.00  0.00    +0.176 C 
ATOM     18  C   UNL     1      34.650 -15.827 -22.309  0.00  0.00    +0.040 C 
ATOM     19  C   UNL     1      33.916 -16.020 -25.747  0.00  0.00    +0.429 C 
ENDBRANCH  10  13
ENDBRANCH   2  10
BRANCH   8  20
ATOM     20  C   UNL     1      33.795 -23.541 -17.567  0.00  0.00    +0.290 C 
BRANCH  20  21
ATOM     21  O   UNL     1      34.400 -22.846 -16.504  0.00  0.00    -0.466 OA
BRANCH  21  23
ATOM     22 CL   UNL     1      39.272 -25.160 -14.182  0.00  0.00    -0.082 Cl
ATOM     23  C   UNL     1      35.542 -23.390 -15.961  0.00  0.00    +0.139 C 
ATOM     24  C   UNL     1      35.451 -24.541 -15.194  0.00  0.00    +0.038 C 
ATOM     25  C   UNL     1      36.765 -22.776 -16.191  0.00  0.00    +0.038 C 
ATOM     26  C   UNL     1      36.608 -25.090 -14.641  0.00  0.00    +0.015 C 
ATOM     27  C   UNL     1      37.922 -23.325 -15.638  0.00  0.00    +0.015 C 
ATOM     28  C   UNL     1      37.844 -24.482 -14.864  0.00  0.00    +0.058 C 
ENDBRANCH  21  23
ENDBRANCH  20  21
ENDBRANCH   8  20
TORSDOF 5
ENDMDL
MODEL 9
REMARK VINA RESULT:     -11.6      7.884     13.155
REMARK  Name = 3351
REMARK  5 active torsions:
REMARK  status: ('A' for Active; 'I' for Inactive)
REMARK    1  A    between atoms: N_2  and  C_10
REMARK    2  A    between atoms: C_8  and  C_20
REMARK    3  A    between atoms: C_10  and  C_13
REMARK    4  A    between atoms: C_20  and  O_21
REMARK    5  A    between atoms: O_21  and  C_23
REMARK                            x       y       z     vdW  Elec       q    Type
REMARK                         _______ _______ _______ _____ _____    ______ ____
ROOT
ATOM      1  O   UNL     1      31.123 -23.239 -17.201  0.00  0.00    -0.271 OA
ATOM      2  N   UNL     1      34.539 -23.782 -13.601  0.00  0.00    +0.392 N 
ATOM      3  N   UNL     1      33.103 -23.120 -15.990  0.00  0.00    -0.281 N 
ATOM      4  C   UNL     1      33.106 -24.090 -13.720  0.00  0.00    -0.055 C 
ATOM      5  C   UNL     1      35.195 -23.874 -14.913  0.00  0.00    -0.055 C 
ATOM      6  C   UNL     1      32.425 -23.130 -14.694  0.00  0.00    +0.071 C 
ATOM      7  C   UNL     1      34.552 -22.915 -15.917  0.00  0.00    +0.071 C 
ATOM      8  C   UNL     1      32.355 -23.178 -17.166  0.00  0.00    +0.270 C 
ATOM      9  H   UNL     1      34.636 -22.825 -13.259  0.00  0.00    -0.079 HD
ENDROOT
BRANCH   2  10
ATOM     10  C   UNL     1      35.180 -24.680 -12.642  0.00  0.00    -0.050 C 
BRANCH  10  13
ATOM     11  O   UNL     1      39.105 -26.712 -14.844  0.00  0.00    -0.435 OA
ATOM     12  O   UNL     1      40.648 -25.271 -13.681  0.00  0.00    -0.435 OA
ATOM     13  C   UNL     1      36.658 -24.810 -12.897  0.00  0.00    -0.040 C 
ATOM     14  C   UNL     1      37.110 -25.764 -13.804  0.00  0.00    +0.034 C 
ATOM     15  C   UNL     1      37.545 -23.969 -12.216  0.00  0.00    -0.003 C 
ATOM     16  C   UNL     1      38.473 -25.847 -14.004  0.00  0.00    +0.176 C 
ATOM     17  C   UNL     1      39.353 -25.025 -13.340  0.00  0.00    +0.176 C 
ATOM     18  C   UNL     1      38.921 -24.074 -12.438  0.00  0.00    +0.040 C 
ATOM     19  C   UNL     1      40.483 -26.341 -14.634  0.00  0.00    +0.429 C 
ENDBRANCH  10  13
ENDBRANCH   2  10
BRANCH   8  20
ATOM     20  C   UNL     1      33.130 -23.169 -18.459  0.00  0.00    +0.290 C 
BRANCH  20  21
ATOM     21  O   UNL     1      32.769 -21.990 -19.136  0.00  0.00    -0.466 OA
BRANCH  21  23
ATOM     22 CL   UNL     1      37.060 -18.970 -21.773  0.00  0.00    -0.082 Cl
ATOM     23  C   UNL     1      33.776 -21.284 -19.755  0.00  0.00    +0.139 C 
ATOM     24  C   UNL     1      35.098 -21.596 -19.479  0.00  0.00    +0.038 C 
ATOM     25  C   UNL     1      33.449 -20.270 -20.644  0.00  0.00    +0.038 C 
ATOM     26  C   UNL     1      36.117 -20.879 -20.105  0.00  0.00    +0.015 C 
ATOM     27  C   UNL     1      34.468 -19.552 -21.270  0.00  0.00    +0.015 C 
ATOM     28  C   UNL     1      35.802 -19.856 -21.001  0.00  0.00    +0.058 C 
ENDBRANCH  21  23
ENDBRANCH  20  21
ENDBRANCH   8  20
TORSDOF 5
ENDMDL
