MODEL 1
REMARK VINA RESULT:     -12.9      0.000      0.000
REMARK  Name = 66000
REMARK  8 active torsions:
REMARK  status: ('A' for Active; 'I' for Inactive)
REMARK    1  A    between atoms: C_1  and  O_19
REMARK    2  A    between atoms: C_4  and  C_7
REMARK    3  A    between atoms: C_10  and  C_15
REMARK    4  A    between atoms: O_19  and  C_20
REMARK    5  A    between atoms: C_20  and  C_24
REMARK    6  A    between atoms: C_23  and  C_28
REMARK    7  A    between atoms: C_28  and  C_30
REMARK    8  A    between atoms: C_30  and  O_31
REMARK                            x       y       z     vdW  Elec       q    Type
REMARK                         _______ _______ _______ _____ _____    ______ ____
ROOT
ATOM      1  C   UNL     1      34.567 -22.374 -18.892  0.00  0.00    +0.139 C 
ATOM      2  C   UNL     1      35.803 -21.907 -19.321  0.00  0.00    +0.037 C 
ATOM      3  C   UNL     1      33.389 -21.821 -19.377  0.00  0.00    +0.037 C 
ATOM      4  C   UNL     1      34.684 -20.306 -20.742  0.00  0.00    +0.000 C 
ATOM      5  C   UNL     1      35.862 -20.869 -20.250  0.00  0.00    +0.003 C 
ATOM      6  C   UNL     1      33.448 -20.781 -20.305  0.00  0.00    +0.003 C 
ENDROOT
BRANCH   4   7
ATOM      7  C   UNL     1      34.745 -19.228 -21.705  0.00  0.00    +0.000 C 
ATOM      8  C   UNL     1      34.616 -19.501 -23.067  0.00  0.00    +0.000 C 
ATOM      9  C   UNL     1      34.930 -17.915 -21.272  0.00  0.00    +0.000 C 
ATOM     10  C   UNL     1      34.859 -17.149 -23.562  0.00  0.00    +0.031 C 
ATOM     11  C   UNL     1      34.673 -18.461 -23.996  0.00  0.00    +0.003 C 
ATOM     12  C   UNL     1      34.987 -16.875 -22.201  0.00  0.00    +0.003 C 
BRANCH  10  15
ATOM     13  N   UNL     1      34.899 -14.731 -24.130  0.00  0.00    -0.343 N 
ATOM     14  N   UNL     1      34.989 -16.340 -25.822  0.00  0.00    -0.285 NA
ATOM     15  C   UNL     1      34.919 -16.065 -24.531  0.00  0.00    +0.117 C 
ATOM     16  H   UNL     1      34.940 -14.014 -24.803  0.00  0.00    +0.144 HD
ATOM     17  H   UNL     1      34.844 -14.506 -23.173  0.00  0.00    +0.144 HD
ATOM     18  H   UNL     1      35.029 -15.609 -26.479  0.00  0.00    +0.188 HD
ENDBRANCH  10  15
ENDBRANCH   4   7
BRANCH   1  19
ATOM     19  O   UNL     1      34.509 -23.397 -17.977  0.00  0.00    -0.474 OA
BRANCH  19  20
ATOM     20  C   UNL     1      33.867 -23.121 -16.745  0.00  0.00    +0.225 C 
BRANCH  20  24
ATOM     21  O   UNL     1      34.438 -24.712 -12.693  0.00  0.00    -0.275 OA
ATOM     22  N   UNL     1      34.400 -23.065 -14.356  0.00  0.00    -0.302 N 
ATOM     23  C   UNL     1      35.585 -25.027 -14.828  0.00  0.00    +0.089 C 
ATOM     24  C   UNL     1      34.932 -22.876 -15.684  0.00  0.00    +0.116 C 
ATOM     25  C   UNL     1      36.068 -23.891 -15.736  0.00  0.00    +0.033 C 
ATOM     26  C   UNL     1      34.757 -24.288 -13.794  0.00  0.00    +0.223 C 
ATOM     27  H   UNL     1      33.843 -22.398 -13.894  0.00  0.00    +0.149 HD
BRANCH  23  28
ATOM     28  C   UNL     1      36.720 -25.824 -14.214  0.00  0.00    +0.118 C 
BRANCH  28  30
ATOM     29  O   UNL     1      36.766 -27.304 -16.150  0.00  0.00    -0.250 OA
ATOM     30  C   UNL     1      37.332 -26.789 -15.198  0.00  0.00    +0.314 C 
BRANCH  30  31
ATOM     31  O   UNL     1      38.633 -27.016 -14.881  0.00  0.00    -0.480 OA
ATOM     32  H   UNL     1      38.849 -27.519 -14.121  0.00  0.00    +0.295 HD
ENDBRANCH  30  31
ENDBRANCH  28  30
ENDBRANCH  23  28
ENDBRANCH  20  24
ENDBRANCH  19  20
ENDBRANCH   1  19
TORSDOF 8
ENDMDL
MODEL 2
REMARK VINA RESULT:     -12.7      1.475      2.189
REMARK  Name = 66000
REMARK  8 active torsions:
REMARK  status: ('A' for Active; 'I' for Inactive)
REMARK    1  A    between atoms: C_1  and  O_19
REMARK    2  A    between atoms: C_4  and  C_7
REMARK    3  A    between atoms: C_10  and  C_15
REMARK    4  A    between atoms: O_19  and  C_20
REMARK    5  A    between atoms: C_20  and  C_24
REMARK    6  A    between atoms: C_23  and  C_28
REMARK    7  A    between atoms: C_28  and  C_30
REMARK    8  A    between atoms: C_30  and  O_31
REMARK                            x       y       z     vdW  Elec       q    Type
REMARK                         _______ _______ _______ _____ _____    ______ ____
ROOT
ATOM      1  C   UNL     1      34.936 -22.252 -18.685  0.00  0.00    +0.139 C 
ATOM      2  C   UNL     1      36.139 -21.716 -19.129  0.00  0.00    +0.037 C 
ATOM      3  C   UNL     1      33.726 -21.812 -19.206  0.00  0.00    +0.037 C 
ATOM      4  C   UNL     1      34.921 -20.276 -20.637  0.00  0.00    +0.000 C 
ATOM      5  C   UNL     1      36.131 -20.725 -20.109  0.00  0.00    +0.003 C 
ATOM      6  C   UNL     1      33.718 -20.819 -20.185  0.00  0.00    +0.003 C 
ENDROOT
BRANCH   4   7
ATOM      7  C   UNL     1      34.912 -19.246 -21.653  0.00  0.00    +0.000 C 
ATOM      8  C   UNL     1      34.746 -19.591 -22.995  0.00  0.00    +0.000 C 
ATOM      9  C   UNL     1      35.068 -17.907 -21.292  0.00  0.00    +0.000 C 
ATOM     10  C   UNL     1      34.892 -17.260 -23.613  0.00  0.00    +0.031 C 
ATOM     11  C   UNL     1      34.737 -18.598 -23.975  0.00  0.00    +0.003 C 
ATOM     12  C   UNL     1      35.058 -16.914 -22.272  0.00  0.00    +0.003 C 
BRANCH  10  15
ATOM     13  N   UNL     1      34.818 -14.874 -24.299  0.00  0.00    -0.343 N 
ATOM     14  N   UNL     1      34.932 -16.561 -25.912  0.00  0.00    -0.285 NA
ATOM     15  C   UNL     1      34.883 -16.225 -24.635  0.00  0.00    +0.117 C 
ATOM     16  H   UNL     1      34.812 -14.191 -25.007  0.00  0.00    +0.144 HD
ATOM     17  H   UNL     1      34.778 -14.604 -23.354  0.00  0.00    +0.144 HD
ATOM     18  H   UNL     1      34.925 -15.863 -26.606  0.00  0.00    +0.188 HD
ENDBRANCH  10  15
ENDBRANCH   4   7
BRANCH   1  19
ATOM     19  O   UNL     1      34.944 -23.228 -17.719  0.00  0.00    -0.474 OA
BRANCH  19  20
ATOM     20  C   UNL     1      35.282 -22.828 -16.403  0.00  0.00    +0.225 C 
BRANCH  20  24
ATOM     21  O   UNL     1      38.781 -24.171 -14.118  0.00  0.00    -0.275 OA
ATOM     22  N   UNL     1      36.953 -24.406 -15.560  0.00  0.00    -0.302 N 
ATOM     23  C   UNL     1      36.563 -23.343 -13.513  0.00  0.00    +0.089 C 
ATOM     24  C   UNL     1      35.549 -24.074 -15.568  0.00  0.00    +0.116 C 
ATOM     25  C   UNL     1      35.245 -23.874 -14.088  0.00  0.00    +0.033 C 
ATOM     26  C   UNL     1      37.598 -24.024 -14.387  0.00  0.00    +0.223 C 
ATOM     27  H   UNL     1      37.408 -24.857 -16.307  0.00  0.00    +0.149 HD
BRANCH  23  28
ATOM     28  C   UNL     1      36.739 -23.653 -12.038  0.00  0.00    +0.118 C 
BRANCH  28  30
ATOM     29  O   UNL     1      36.935 -26.081 -11.969  0.00  0.00    -0.250 OA
ATOM     30  C   UNL     1      36.319 -25.061 -11.701  0.00  0.00    +0.314 C 
BRANCH  30  31
ATOM     31  O   UNL     1      35.133 -25.048 -11.040  0.00  0.00    -0.480 OA
ATOM     32  H   UNL     1      34.332 -25.173 -11.510  0.00  0.00    +0.295 HD
ENDBRANCH  30  31
ENDBRANCH  28  30
ENDBRANCH  23  28
ENDBRANCH  20  24
ENDBRANCH  19  20
ENDBRANCH   1  19
TORSDOF 8
ENDMDL
MODEL 3
REMARK VINA RESULT:     -12.7      1.436      1.904
REMARK  Name = 66000
REMARK  8 active torsions:
REMARK  status: ('A' for Active; 'I' for Inactive)
REMARK    1  A    between atoms: C_1  and  O_19
REMARK    2  A    between atoms: C_4  and  C_7
REMARK    3  A    between atoms: C_10  and  C_15
REMARK    4  A    between atoms: O_19  and  C_20
REMARK    5  A    between atoms: C_20  and  C_24
REMARK    6  A    between atoms: C_23  and  C_28
REMARK    7  A    between atoms: C_28  and  C_30
REMARK    8  A    between atoms: C_30  and  O_31
REMARK                            x       y       z     vdW  Elec       q    Type
REMARK                         _______ _______ _______ _____ _____    ______ ____
ROOT
ATOM      1  C   UNL     1      35.320 -21.993 -18.660  0.00  0.00    +0.139 C 
ATOM      2  C   UNL     1      36.462 -21.402 -19.188  0.00  0.00    +0.037 C 
ATOM      3  C   UNL     1      34.063 -21.688 -19.166  0.00  0.00    +0.037 C 
ATOM      4  C   UNL     1      35.086 -20.180 -20.752  0.00  0.00    +0.000 C 
ATOM      5  C   UNL     1      36.344 -20.493 -20.238  0.00  0.00    +0.003 C 
ATOM      6  C   UNL     1      33.945 -20.777 -20.216  0.00  0.00    +0.003 C 
ENDROOT
BRANCH   4   7
ATOM      7  C   UNL     1      34.963 -19.236 -21.841  0.00  0.00    +0.000 C 
ATOM      8  C   UNL     1      34.589 -19.679 -23.110  0.00  0.00    +0.000 C 
ATOM      9  C   UNL     1      35.217 -17.882 -21.623  0.00  0.00    +0.000 C 
ATOM     10  C   UNL     1      34.723 -17.415 -23.941  0.00  0.00    +0.031 C 
ATOM     11  C   UNL     1      34.469 -18.768 -24.160  0.00  0.00    +0.003 C 
ATOM     12  C   UNL     1      35.097 -16.971 -22.673  0.00  0.00    +0.003 C 
BRANCH  10  15
ATOM     13  N   UNL     1      33.505 -15.608 -25.133  0.00  0.00    -0.343 N 
ATOM     14  N   UNL     1      35.535 -16.409 -25.968  0.00  0.00    -0.285 NA
ATOM     15  C   UNL     1      34.599 -16.466 -25.036  0.00  0.00    +0.117 C 
ATOM     16  H   UNL     1      33.441 -14.974 -25.883  0.00  0.00    +0.144 HD
ATOM     17  H   UNL     1      32.796 -15.637 -24.451  0.00  0.00    +0.144 HD
ATOM     18  H   UNL     1      35.453 -15.768 -26.710  0.00  0.00    +0.188 HD
ENDBRANCH  10  15
ENDBRANCH   4   7
BRANCH   1  19
ATOM     19  O   UNL     1      35.437 -22.888 -17.625  0.00  0.00    -0.474 OA
BRANCH  19  20
ATOM     20  C   UNL     1      36.483 -22.664 -16.696  0.00  0.00    +0.225 C 
BRANCH  20  24
ATOM     21  O   UNL     1      36.431 -26.877 -15.461  0.00  0.00    -0.275 OA
ATOM     22  N   UNL     1      35.627 -24.683 -15.607  0.00  0.00    -0.302 N 
ATOM     23  C   UNL     1      37.849 -24.959 -14.927  0.00  0.00    +0.089 C 
ATOM     24  C   UNL     1      36.122 -23.347 -15.383  0.00  0.00    +0.116 C 
ATOM     25  C   UNL     1      37.331 -23.585 -14.485  0.00  0.00    +0.033 C 
ATOM     26  C   UNL     1      36.575 -25.669 -15.344  0.00  0.00    +0.223 C 
ATOM     27  H   UNL     1      34.712 -24.878 -15.914  0.00  0.00    +0.149 HD
BRANCH  23  28
ATOM     28  C   UNL     1      38.603 -25.693 -13.835  0.00  0.00    +0.118 C 
BRANCH  28  30
ATOM     29  O   UNL     1      40.624 -26.871 -14.518  0.00  0.00    -0.250 OA
ATOM     30  C   UNL     1      40.067 -25.845 -14.161  0.00  0.00    +0.314 C 
BRANCH  30  31
ATOM     31  O   UNL     1      40.705 -24.656 -14.004  0.00  0.00    -0.480 OA
ATOM     32  H   UNL     1      41.408 -24.579 -13.389  0.00  0.00    +0.295 HD
ENDBRANCH  30  31
ENDBRANCH  28  30
ENDBRANCH  23  28
ENDBRANCH  20  24
ENDBRANCH  19  20
ENDBRANCH   1  19
TORSDOF 8
ENDMDL
MODEL 4
REMARK VINA RESULT:     -12.6      2.338      3.979
REMARK  Name = 66000
REMARK  8 active torsions:
REMARK  status: ('A' for Active; 'I' for Inactive)
REMARK    1  A    between atoms: C_1  and  O_19
REMARK    2  A    between atoms: C_4  and  C_7
REMARK    3  A    between atoms: C_10  and  C_15
REMARK    4  A    between atoms: O_19  and  C_20
REMARK    5  A    between atoms: C_20  and  C_24
REMARK    6  A    between atoms: C_23  and  C_28
REMARK    7  A    between atoms: C_28  and  C_30
REMARK    8  A    between atoms: C_30  and  O_31
REMARK                            x       y       z     vdW  Elec       q    Type
REMARK                         _______ _______ _______ _____ _____    ______ ____
ROOT
ATOM      1  C   UNL     1      34.750 -22.310 -18.752  0.00  0.00    +0.139 C 
ATOM      2  C   UNL     1      35.973 -21.815 -19.190  0.00  0.00    +0.037 C 
ATOM      3  C   UNL     1      33.558 -21.813 -19.261  0.00  0.00    +0.037 C 
ATOM      4  C   UNL     1      34.810 -20.299 -20.667  0.00  0.00    +0.000 C 
ATOM      5  C   UNL     1      36.002 -20.805 -20.151  0.00  0.00    +0.003 C 
ATOM      6  C   UNL     1      33.587 -20.802 -20.222  0.00  0.00    +0.003 C 
ENDROOT
BRANCH   4   7
ATOM      7  C   UNL     1      34.840 -19.251 -21.664  0.00  0.00    +0.000 C 
ATOM      8  C   UNL     1      35.054 -17.927 -21.278  0.00  0.00    +0.000 C 
ATOM      9  C   UNL     1      34.656 -19.563 -23.011  0.00  0.00    +0.000 C 
ATOM     10  C   UNL     1      34.901 -17.229 -23.586  0.00  0.00    +0.031 C 
ATOM     11  C   UNL     1      35.084 -16.916 -22.239  0.00  0.00    +0.003 C 
ATOM     12  C   UNL     1      34.687 -18.552 -23.972  0.00  0.00    +0.003 C 
BRANCH  10  15
ATOM     13  N   UNL     1      34.591 -14.862 -24.270  0.00  0.00    -0.343 N 
ATOM     14  N   UNL     1      35.284 -16.458 -25.830  0.00  0.00    -0.285 NA
ATOM     15  C   UNL     1      34.932 -16.175 -24.588  0.00  0.00    +0.117 C 
ATOM     16  H   UNL     1      34.619 -14.165 -24.964  0.00  0.00    +0.144 HD
ATOM     17  H   UNL     1      34.323 -14.632 -23.352  0.00  0.00    +0.144 HD
ATOM     18  H   UNL     1      35.306 -15.747 -26.510  0.00  0.00    +0.188 HD
ENDBRANCH  10  15
ENDBRANCH   4   7
BRANCH   1  19
ATOM     19  O   UNL     1      34.722 -23.304 -17.805  0.00  0.00    -0.474 OA
BRANCH  19  20
ATOM     20  C   UNL     1      34.278 -22.944 -16.509  0.00  0.00    +0.225 C 
BRANCH  20  24
ATOM     21  O   UNL     1      31.848 -23.267 -12.867  0.00  0.00    -0.275 OA
ATOM     22  N   UNL     1      33.233 -24.043 -14.586  0.00  0.00    -0.302 N 
ATOM     23  C   UNL     1      31.352 -22.802 -15.214  0.00  0.00    +0.089 C 
ATOM     24  C   UNL     1      33.280 -23.989 -16.027  0.00  0.00    +0.116 C 
ATOM     25  C   UNL     1      31.840 -23.649 -16.395  0.00  0.00    +0.033 C 
ATOM     26  C   UNL     1      32.128 -23.387 -14.050  0.00  0.00    +0.223 C 
ATOM     27  H   UNL     1      33.913 -24.498 -14.038  0.00  0.00    +0.149 HD
BRANCH  23  28
ATOM     28  C   UNL     1      29.850 -22.866 -15.013  0.00  0.00    +0.118 C 
BRANCH  28  30
ATOM     29  O   UNL     1      28.943 -22.125 -17.150  0.00  0.00    -0.250 OA
ATOM     30  C   UNL     1      29.109 -23.004 -16.319  0.00  0.00    +0.314 C 
BRANCH  30  31
ATOM     31  O   UNL     1      28.637 -24.270 -16.456  0.00  0.00    -0.480 OA
ATOM     32  H   UNL     1      27.928 -24.446 -17.043  0.00  0.00    +0.295 HD
ENDBRANCH  30  31
ENDBRANCH  28  30
ENDBRANCH  23  28
ENDBRANCH  20  24
ENDBRANCH  19  20
ENDBRANCH   1  19
TORSDOF 8
ENDMDL
MODEL 5
REMARK VINA RESULT:     -12.1      4.313     10.914
REMARK  Name = 66000
REMARK  8 active torsions:
REMARK  status: ('A' for Active; 'I' for Inactive)
REMARK    1  A    between atoms: C_1  and  O_19
REMARK    2  A    between atoms: C_4  and  C_7
REMARK    3  A    between atoms: C_10  and  C_15
REMARK    4  A    between atoms: O_19  and  C_20
REMARK    5  A    between atoms: C_20  and  C_24
REMARK    6  A    between atoms: C_23  and  C_28
REMARK    7  A    between atoms: C_28  and  C_30
REMARK    8  A    between atoms: C_30  and  O_31
REMARK                            x       y       z     vdW  Elec       q    Type
REMARK                         _______ _______ _______ _____ _____    ______ ____
ROOT
ATOM      1  C   UNL     1      34.923 -20.658 -20.818  0.00  0.00    +0.139 C 
ATOM      2  C   UNL     1      33.555 -20.622 -20.573  0.00  0.00    +0.037 C 
ATOM      3  C   UNL     1      35.775 -21.381 -19.993  0.00  0.00    +0.037 C 
ATOM      4  C   UNL     1      33.880 -22.048 -18.651  0.00  0.00    +0.000 C 
ATOM      5  C   UNL     1      33.032 -21.320 -19.485  0.00  0.00    +0.003 C 
ATOM      6  C   UNL     1      35.251 -22.078 -18.904  0.00  0.00    +0.003 C 
ENDROOT
BRANCH   4   7
ATOM      7  C   UNL     1      33.337 -22.772 -17.521  0.00  0.00    +0.000 C 
ATOM      8  C   UNL     1      34.190 -23.465 -16.662  0.00  0.00    +0.000 C 
ATOM      9  C   UNL     1      31.961 -22.776 -17.291  0.00  0.00    +0.000 C 
ATOM     10  C   UNL     1      32.292 -24.165 -15.342  0.00  0.00    +0.031 C 
ATOM     11  C   UNL     1      33.667 -24.161 -15.572  0.00  0.00    +0.003 C 
ATOM     12  C   UNL     1      31.438 -23.473 -16.201  0.00  0.00    +0.003 C 
BRANCH  10  15
ATOM     13  N   UNL     1      30.437 -25.368 -14.210  0.00  0.00    -0.343 N 
ATOM     14  N   UNL     1      32.499 -25.107 -13.141  0.00  0.00    -0.285 NA
ATOM     15  C   UNL     1      31.747 -24.892 -14.206  0.00  0.00    +0.117 C 
ATOM     16  H   UNL     1      30.089 -25.857 -13.430  0.00  0.00    +0.144 HD
ATOM     17  H   UNL     1      29.861 -25.215 -14.992  0.00  0.00    +0.144 HD
ATOM     18  H   UNL     1      32.132 -25.599 -12.371  0.00  0.00    +0.188 HD
ENDBRANCH  10  15
ENDBRANCH   4   7
BRANCH   1  19
ATOM     19  O   UNL     1      35.438 -19.970 -21.889  0.00  0.00    -0.474 OA
BRANCH  19  20
ATOM     20  C   UNL     1      34.704 -18.849 -22.346  0.00  0.00    +0.225 C 
BRANCH  20  24
ATOM     21  O   UNL     1      34.696 -16.371 -25.970  0.00  0.00    -0.275 OA
ATOM     22  N   UNL     1      35.632 -17.750 -24.327  0.00  0.00    -0.302 N 
ATOM     23  C   UNL     1      34.383 -15.914 -23.589  0.00  0.00    +0.089 C 
ATOM     24  C   UNL     1      35.681 -17.813 -22.886  0.00  0.00    +0.116 C 
ATOM     25  C   UNL     1      35.325 -16.388 -22.477  0.00  0.00    +0.033 C 
ATOM     26  C   UNL     1      34.907 -16.660 -24.802  0.00  0.00    +0.223 C 
ATOM     27  H   UNL     1      36.067 -18.409 -24.914  0.00  0.00    +0.149 HD
BRANCH  23  28
ATOM     28  C   UNL     1      34.387 -14.409 -23.775  0.00  0.00    +0.118 C 
BRANCH  28  30
ATOM     29  O   UNL     1      32.325 -13.204 -23.292  0.00  0.00    -0.250 OA
ATOM     30  C   UNL     1      33.008 -13.868 -24.056  0.00  0.00    +0.314 C 
BRANCH  30  31
ATOM     31  O   UNL     1      32.613 -14.224 -25.306  0.00  0.00    -0.480 OA
ATOM     32  H   UNL     1      32.550 -13.577 -25.979  0.00  0.00    +0.295 HD
ENDBRANCH  30  31
ENDBRANCH  28  30
ENDBRANCH  23  28
ENDBRANCH  20  24
ENDBRANCH  19  20
ENDBRANCH   1  19
TORSDOF 8
ENDMDL
MODEL 6
REMARK VINA RESULT:     -11.8      1.916      3.057
REMARK  Name = 66000
REMARK  8 active torsions:
REMARK  status: ('A' for Active; 'I' for Inactive)
REMARK    1  A    between atoms: C_1  and  O_19
REMARK    2  A    between atoms: C_4  and  C_7
REMARK    3  A    between atoms: C_10  and  C_15
REMARK    4  A    between atoms: O_19  and  C_20
REMARK    5  A    between atoms: C_20  and  C_24
REMARK    6  A    between atoms: C_23  and  C_28
REMARK    7  A    between atoms: C_28  and  C_30
REMARK    8  A    between atoms: C_30  and  O_31
REMARK                            x       y       z     vdW  Elec       q    Type
REMARK                         _______ _______ _______ _____ _____    ______ ____
ROOT
ATOM      1  C   UNL     1      34.150 -23.436 -16.617  0.00  0.00    +0.139 C 
ATOM      2  C   UNL     1      33.078 -23.187 -17.466  0.00  0.00    +0.037 C 
ATOM      3  C   UNL     1      35.400 -22.887 -16.869  0.00  0.00    +0.037 C 
ATOM      4  C   UNL     1      34.514 -21.822 -18.848  0.00  0.00    +0.000 C 
ATOM      5  C   UNL     1      33.261 -22.377 -18.586  0.00  0.00    +0.003 C 
ATOM      6  C   UNL     1      35.584 -22.077 -17.990  0.00  0.00    +0.003 C 
ENDROOT
BRANCH   4   7
ATOM      7  C   UNL     1      34.704 -20.981 -20.010  0.00  0.00    +0.000 C 
ATOM      8  C   UNL     1      35.994 -20.651 -20.428  0.00  0.00    +0.000 C 
ATOM      9  C   UNL     1      33.599 -20.502 -20.714  0.00  0.00    +0.000 C 
ATOM     10  C   UNL     1      35.073 -19.363 -22.253  0.00  0.00    +0.031 C 
ATOM     11  C   UNL     1      36.178 -19.841 -21.549  0.00  0.00    +0.003 C 
ATOM     12  C   UNL     1      33.783 -19.693 -21.836  0.00  0.00    +0.003 C 
BRANCH  10  15
ATOM     13  N   UNL     1      34.593 -18.769 -24.616  0.00  0.00    -0.343 N 
ATOM     14  N   UNL     1      36.095 -17.492 -23.362  0.00  0.00    -0.285 NA
ATOM     15  C   UNL     1      35.265 -18.519 -23.421  0.00  0.00    +0.117 C 
ATOM     16  H   UNL     1      34.739 -18.185 -25.395  0.00  0.00    +0.144 HD
ATOM     17  H   UNL     1      33.973 -19.531 -24.681  0.00  0.00    +0.144 HD
ATOM     18  H   UNL     1      36.227 -16.920 -24.152  0.00  0.00    +0.188 HD
ENDBRANCH  10  15
ENDBRANCH   4   7
BRANCH   1  19
ATOM     19  O   UNL     1      33.969 -24.235 -15.515  0.00  0.00    -0.474 OA
BRANCH  19  20
ATOM     20  C   UNL     1      35.062 -25.047 -15.123  0.00  0.00    +0.225 C 
BRANCH  20  24
ATOM     21  O   UNL     1      37.287 -26.643 -11.692  0.00  0.00    -0.275 OA
ATOM     22  N   UNL     1      35.785 -25.223 -12.791  0.00  0.00    -0.302 N 
ATOM     23  C   UNL     1      37.917 -25.448 -13.729  0.00  0.00    +0.089 C 
ATOM     24  C   UNL     1      35.776 -24.375 -13.958  0.00  0.00    +0.116 C 
ATOM     25  C   UNL     1      37.262 -24.153 -14.220  0.00  0.00    +0.033 C 
ATOM     26  C   UNL     1      37.006 -25.863 -12.590  0.00  0.00    +0.223 C 
ATOM     27  H   UNL     1      35.009 -25.337 -12.197  0.00  0.00    +0.149 HD
BRANCH  23  28
ATOM     28  C   UNL     1      39.358 -25.260 -13.292  0.00  0.00    +0.118 C 
BRANCH  28  30
ATOM     29  O   UNL     1      40.514 -26.912 -14.661  0.00  0.00    -0.250 OA
ATOM     30  C   UNL     1      40.333 -25.750 -14.333  0.00  0.00    +0.314 C 
BRANCH  30  31
ATOM     31  O   UNL     1      41.003 -24.700 -14.874  0.00  0.00    -0.480 OA
ATOM     32  H   UNL     1      41.739 -24.851 -15.434  0.00  0.00    +0.295 HD
ENDBRANCH  30  31
ENDBRANCH  28  30
ENDBRANCH  23  28
ENDBRANCH  20  24
ENDBRANCH  19  20
ENDBRANCH   1  19
TORSDOF 8
ENDMDL
MODEL 7
REMARK VINA RESULT:     -11.6      4.160     10.931
REMARK  Name = 66000
REMARK  8 active torsions:
REMARK  status: ('A' for Active; 'I' for Inactive)
REMARK    1  A    between atoms: C_1  and  O_19
REMARK    2  A    between atoms: C_4  and  C_7
REMARK    3  A    between atoms: C_10  and  C_15
REMARK    4  A    between atoms: O_19  and  C_20
REMARK    5  A    between atoms: C_20  and  C_24
REMARK    6  A    between atoms: C_23  and  C_28
REMARK    7  A    between atoms: C_28  and  C_30
REMARK    8  A    between atoms: C_30  and  O_31
REMARK                            x       y       z     vdW  Elec       q    Type
REMARK                         _______ _______ _______ _____ _____    ______ ____
ROOT
ATOM      1  C   UNL     1      35.176 -20.737 -20.828  0.00  0.00    +0.139 C 
ATOM      2  C   UNL     1      34.011 -21.206 -20.234  0.00  0.00    +0.037 C 
ATOM      3  C   UNL     1      36.409 -20.910 -20.212  0.00  0.00    +0.037 C 
ATOM      4  C   UNL     1      35.314 -22.036 -18.377  0.00  0.00    +0.000 C 
ATOM      5  C   UNL     1      34.080 -21.858 -19.003  0.00  0.00    +0.003 C 
ATOM      6  C   UNL     1      36.478 -21.561 -18.981  0.00  0.00    +0.003 C 
ENDROOT
BRANCH   4   7
ATOM      7  C   UNL     1      35.386 -22.711 -17.099  0.00  0.00    +0.000 C 
ATOM      8  C   UNL     1      36.598 -22.774 -16.411  0.00  0.00    +0.000 C 
ATOM      9  C   UNL     1      34.244 -23.298 -16.554  0.00  0.00    +0.000 C 
ATOM     10  C   UNL     1      35.525 -24.011 -14.635  0.00  0.00    +0.031 C 
ATOM     11  C   UNL     1      36.668 -23.425 -15.179  0.00  0.00    +0.003 C 
ATOM     12  C   UNL     1      34.313 -23.948 -15.322  0.00  0.00    +0.003 C 
BRANCH  10  15
ATOM     13  N   UNL     1      36.788 -25.256 -12.895  0.00  0.00    -0.343 N 
ATOM     14  N   UNL     1      34.520 -24.781 -12.592  0.00  0.00    -0.285 NA
ATOM     15  C   UNL     1      35.599 -24.690 -13.350  0.00  0.00    +0.117 C 
ATOM     16  H   UNL     1      36.814 -25.711 -12.023  0.00  0.00    +0.144 HD
ATOM     17  H   UNL     1      37.601 -25.201 -13.446  0.00  0.00    +0.144 HD
ATOM     18  H   UNL     1      34.567 -25.240 -11.722  0.00  0.00    +0.188 HD
ENDBRANCH  10  15
ENDBRANCH   4   7
BRANCH   1  19
ATOM     19  O   UNL     1      35.107 -20.095 -22.040  0.00  0.00    -0.474 OA
BRANCH  19  20
ATOM     20  C   UNL     1      34.554 -18.790 -22.046  0.00  0.00    +0.225 C 
BRANCH  20  24
ATOM     21  O   UNL     1      34.882 -16.671 -25.877  0.00  0.00    -0.275 OA
ATOM     22  N   UNL     1      35.659 -17.898 -24.041  0.00  0.00    -0.302 N 
ATOM     23  C   UNL     1      34.391 -15.985 -23.583  0.00  0.00    +0.089 C 
ATOM     24  C   UNL     1      35.592 -17.824 -22.601  0.00  0.00    +0.116 C 
ATOM     25  C   UNL     1      35.233 -16.362 -22.359  0.00  0.00    +0.033 C 
ATOM     26  C   UNL     1      34.995 -16.849 -24.673  0.00  0.00    +0.223 C 
ATOM     27  H   UNL     1      36.126 -18.615 -24.526  0.00  0.00    +0.149 HD
BRANCH  23  28
ATOM     28  C   UNL     1      34.441 -14.504 -23.909  0.00  0.00    +0.118 C 
BRANCH  28  30
ATOM     29  O   UNL     1      32.380 -13.284 -23.455  0.00  0.00    -0.250 OA
ATOM     30  C   UNL     1      33.074 -13.945 -24.213  0.00  0.00    +0.314 C 
BRANCH  30  31
ATOM     31  O   UNL     1      32.704 -14.279 -25.476  0.00  0.00    -0.480 OA
ATOM     32  H   UNL     1      31.937 -14.799 -25.618  0.00  0.00    +0.295 HD
ENDBRANCH  30  31
ENDBRANCH  28  30
ENDBRANCH  23  28
ENDBRANCH  20  24
ENDBRANCH  19  20
ENDBRANCH   1  19
TORSDOF 8
ENDMDL
MODEL 8
REMARK VINA RESULT:     -11.5      1.924      2.828
REMARK  Name = 66000
REMARK  8 active torsions:
REMARK  status: ('A' for Active; 'I' for Inactive)
REMARK    1  A    between atoms: C_1  and  O_19
REMARK    2  A    between atoms: C_4  and  C_7
REMARK    3  A    between atoms: C_10  and  C_15
REMARK    4  A    between atoms: O_19  and  C_20
REMARK    5  A    between atoms: C_20  and  C_24
REMARK    6  A    between atoms: C_23  and  C_28
REMARK    7  A    between atoms: C_28  and  C_30
REMARK    8  A    between atoms: C_30  and  O_31
REMARK                            x       y       z     vdW  Elec       q    Type
REMARK                         _______ _______ _______ _____ _____    ______ ____
ROOT
ATOM      1  C   UNL     1      35.630 -21.853 -18.924  0.00  0.00    +0.139 C 
ATOM      2  C   UNL     1      34.351 -21.613 -19.412  0.00  0.00    +0.037 C 
ATOM      3  C   UNL     1      36.719 -21.132 -19.397  0.00  0.00    +0.037 C 
ATOM      4  C   UNL     1      35.247 -19.909 -20.871  0.00  0.00    +0.000 C 
ATOM      5  C   UNL     1      34.159 -20.637 -20.390  0.00  0.00    +0.003 C 
ATOM      6  C   UNL     1      36.527 -20.156 -20.375  0.00  0.00    +0.003 C 
ENDROOT
BRANCH   4   7
ATOM      7  C   UNL     1      35.048 -18.897 -21.886  0.00  0.00    +0.000 C 
ATOM      8  C   UNL     1      35.147 -17.546 -21.552  0.00  0.00    +0.000 C 
ATOM      9  C   UNL     1      34.759 -19.272 -23.198  0.00  0.00    +0.000 C 
ATOM     10  C   UNL     1      34.668 -16.945 -23.843  0.00  0.00    +0.031 C 
ATOM     11  C   UNL     1      34.957 -16.570 -22.531  0.00  0.00    +0.003 C 
ATOM     12  C   UNL     1      34.569 -18.296 -24.177  0.00  0.00    +0.003 C 
BRANCH  10  15
ATOM     13  N   UNL     1      34.396 -14.575 -24.535  0.00  0.00    -0.343 N 
ATOM     14  N   UNL     1      34.349 -16.281 -26.131  0.00  0.00    -0.285 NA
ATOM     15  C   UNL     1      34.469 -15.927 -24.863  0.00  0.00    +0.117 C 
ATOM     16  H   UNL     1      34.260 -13.904 -25.241  0.00  0.00    +0.144 HD
ATOM     17  H   UNL     1      34.480 -14.292 -23.596  0.00  0.00    +0.144 HD
ATOM     18  H   UNL     1      34.215 -15.594 -26.823  0.00  0.00    +0.188 HD
ENDBRANCH  10  15
ENDBRANCH   4   7
BRANCH   1  19
ATOM     19  O   UNL     1      35.818 -22.814 -17.962  0.00  0.00    -0.474 OA
BRANCH  19  20
ATOM     20  C   UNL     1      36.431 -22.402 -16.752  0.00  0.00    +0.225 C 
BRANCH  20  24
ATOM     21  O   UNL     1      36.609 -22.997 -12.407  0.00  0.00    -0.275 OA
ATOM     22  N   UNL     1      37.287 -23.271 -14.630  0.00  0.00    -0.302 N 
ATOM     23  C   UNL     1      35.026 -23.641 -14.154  0.00  0.00    +0.089 C 
ATOM     24  C   UNL     1      36.689 -23.632 -15.893  0.00  0.00    +0.116 C 
ATOM     25  C   UNL     1      35.407 -24.338 -15.465  0.00  0.00    +0.033 C 
ATOM     26  C   UNL     1      36.379 -23.274 -13.574  0.00  0.00    +0.223 C 
ATOM     27  H   UNL     1      38.240 -23.047 -14.526  0.00  0.00    +0.149 HD
BRANCH  23  28
ATOM     28  C   UNL     1      34.206 -24.518 -13.227  0.00  0.00    +0.118 C 
BRANCH  28  30
ATOM     29  O   UNL     1      32.108 -25.378 -14.121  0.00  0.00    -0.250 OA
ATOM     30  C   UNL     1      32.738 -24.488 -13.571  0.00  0.00    +0.314 C 
BRANCH  30  31
ATOM     31  O   UNL     1      32.191 -23.309 -13.177  0.00  0.00    -0.480 OA
ATOM     32  H   UNL     1      31.545 -22.890 -13.711  0.00  0.00    +0.295 HD
ENDBRANCH  30  31
ENDBRANCH  28  30
ENDBRANCH  23  28
ENDBRANCH  20  24
ENDBRANCH  19  20
ENDBRANCH   1  19
TORSDOF 8
ENDMDL
MODEL 9
REMARK VINA RESULT:     -11.5      4.467     11.092
REMARK  Name = 66000
REMARK  8 active torsions:
REMARK  status: ('A' for Active; 'I' for Inactive)
REMARK    1  A    between atoms: C_1  and  O_19
REMARK    2  A    between atoms: C_4  and  C_7
REMARK    3  A    between atoms: C_10  and  C_15
REMARK    4  A    between atoms: O_19  and  C_20
REMARK    5  A    between atoms: C_20  and  C_24
REMARK    6  A    between atoms: C_23  and  C_28
REMARK    7  A    between atoms: C_28  and  C_30
REMARK    8  A    between atoms: C_30  and  O_31
REMARK                            x       y       z     vdW  Elec       q    Type
REMARK                         _______ _______ _______ _____ _____    ______ ____
ROOT
ATOM      1  C   UNL     1      35.194 -19.753 -21.677  0.00  0.00    +0.139 C 
ATOM      2  C   UNL     1      33.935 -20.103 -21.202  0.00  0.00    +0.037 C 
ATOM      3  C   UNL     1      36.344 -20.197 -21.038  0.00  0.00    +0.037 C 
ATOM      4  C   UNL     1      34.976 -21.358 -19.420  0.00  0.00    +0.000 C 
ATOM      5  C   UNL     1      33.827 -20.908 -20.069  0.00  0.00    +0.003 C 
ATOM      6  C   UNL     1      36.235 -21.003 -19.904  0.00  0.00    +0.003 C 
ENDROOT
BRANCH   4   7
ATOM      7  C   UNL     1      34.864 -22.194 -18.244  0.00  0.00    +0.000 C 
ATOM      8  C   UNL     1      33.675 -22.876 -17.984  0.00  0.00    +0.000 C 
ATOM      9  C   UNL     1      35.945 -22.319 -17.371  0.00  0.00    +0.000 C 
ATOM     10  C   UNL     1      34.648 -23.807 -15.978  0.00  0.00    +0.031 C 
ATOM     11  C   UNL     1      33.567 -23.682 -16.851  0.00  0.00    +0.003 C 
ATOM     12  C   UNL     1      35.836 -23.125 -16.237  0.00  0.00    +0.003 C 
BRANCH  10  15
ATOM     13  N   UNL     1      33.293 -24.976 -14.256  0.00  0.00    -0.343 N 
ATOM     14  N   UNL     1      35.625 -25.111 -14.211  0.00  0.00    -0.285 NA
ATOM     15  C   UNL     1      34.534 -24.647 -14.796  0.00  0.00    +0.117 C 
ATOM     16  H   UNL     1      33.240 -25.545 -13.455  0.00  0.00    +0.144 HD
ATOM     17  H   UNL     1      32.469 -24.637 -14.675  0.00  0.00    +0.144 HD
ATOM     18  H   UNL     1      35.551 -25.680 -13.412  0.00  0.00    +0.188 HD
ENDBRANCH  10  15
ENDBRANCH   4   7
BRANCH   1  19
ATOM     19  O   UNL     1      35.301 -18.959 -22.792  0.00  0.00    -0.474 OA
BRANCH  19  20
ATOM     20  C   UNL     1      34.726 -17.667 -22.718  0.00  0.00    +0.225 C 
BRANCH  20  24
ATOM     21  O   UNL     1      33.363 -16.100 -26.586  0.00  0.00    -0.275 OA
ATOM     22  N   UNL     1      34.884 -17.051 -25.083  0.00  0.00    -0.302 N 
ATOM     23  C   UNL     1      33.783 -15.105 -24.394  0.00  0.00    +0.089 C 
ATOM     24  C   UNL     1      35.392 -16.777 -23.760  0.00  0.00    +0.116 C 
ATOM     25  C   UNL     1      35.065 -15.299 -23.577  0.00  0.00    +0.033 C 
ATOM     26  C   UNL     1      33.957 -16.108 -25.519  0.00  0.00    +0.223 C 
ATOM     27  H   UNL     1      35.164 -17.825 -25.622  0.00  0.00    +0.149 HD
BRANCH  23  28
ATOM     28  C   UNL     1      33.603 -13.684 -24.893  0.00  0.00    +0.118 C 
BRANCH  28  30
ATOM     29  O   UNL     1      32.916 -12.729 -22.759  0.00  0.00    -0.250 OA
ATOM     30  C   UNL     1      33.605 -12.683 -23.766  0.00  0.00    +0.314 C 
BRANCH  30  31
ATOM     31  O   UNL     1      34.501 -11.694 -24.022  0.00  0.00    -0.480 OA
ATOM     32  H   UNL     1      34.858 -11.191 -23.318  0.00  0.00    +0.295 HD
ENDBRANCH  30  31
ENDBRANCH  28  30
ENDBRANCH  23  28
ENDBRANCH  20  24
ENDBRANCH  19  20
ENDBRANCH   1  19
TORSDOF 8
ENDMDL
