MODEL 1
REMARK VINA RESULT:     -14.1      0.000      0.000
REMARK  Name = 44472635
REMARK  7 active torsions:
REMARK  status: ('A' for Active; 'I' for Inactive)
REMARK    1  A    between atoms: C_1  and  C_21
REMARK    2  A    between atoms: C_4  and  N_8
REMARK    3  A    between atoms: C_9  and  C_14
REMARK    4  A    between atoms: C_21  and  C_24
REMARK    5  A    between atoms: C_23  and  C_29
REMARK    6  A    between atoms: C_29  and  C_30
REMARK    7  A    between atoms: C_29  and  O_36
REMARK                            x       y       z     vdW  Elec       q    Type
REMARK                         _______ _______ _______ _____ _____    ______ ____
ROOT
ATOM      1  C   UNL     1      32.249 -12.580 -21.856  0.00  0.00    -0.024 C 
ATOM      2  C   UNL     1      32.280 -13.654 -20.967  0.00  0.00    -0.003 C 
ATOM      3  C   UNL     1      33.006 -12.622 -23.028  0.00  0.00    -0.003 C 
ATOM      4  C   UNL     1      33.824 -14.812 -22.422  0.00  0.00    +0.050 C 
ATOM      5  C   UNL     1      33.068 -14.770 -21.250  0.00  0.00    +0.014 C 
ATOM      6  C   UNL     1      33.792 -13.738 -23.311  0.00  0.00    +0.014 C 
ENDROOT
BRANCH   4   8
ATOM      7  O   UNL     1      35.283 -16.693 -20.578  0.00  0.00    -0.273 OA
ATOM      8  N   UNL     1      34.623 -15.944 -22.709  0.00  0.00    -0.283 N 
ATOM      9  C   UNL     1      35.272 -16.772 -21.803  0.00  0.00    +0.245 C 
ATOM     10  H   UNL     1      34.730 -16.171 -23.661  0.00  0.00    +0.155 HD
BRANCH   9  14
ATOM     11  O   UNL     1      37.784 -18.457 -20.202  0.00  0.00    -0.269 OA
ATOM     12  N   UNL     1      36.028 -19.012 -21.626  0.00  0.00    -0.237 N 
ATOM     13  N   UNL     1      34.841 -21.066 -21.386  0.00  0.00    -0.233 NA
ATOM     14  C   UNL     1      36.018 -17.865 -22.508  0.00  0.00    +0.158 C 
ATOM     15  C   UNL     1      35.264 -18.362 -23.733  0.00  0.00    +0.037 C 
ATOM     16  C   UNL     1      34.324 -19.444 -23.194  0.00  0.00    +0.064 C 
ATOM     17  C   UNL     1      35.065 -19.948 -21.993  0.00  0.00    +0.115 C 
ATOM     18  C   UNL     1      36.892 -19.214 -20.568  0.00  0.00    +0.256 C 
ATOM     19  C   UNL     1      36.638 -20.497 -19.863  0.00  0.00    +0.079 C 
ATOM     20  C   UNL     1      35.662 -21.303 -20.308  0.00  0.00    +0.105 C 
ENDBRANCH   9  14
ENDBRANCH   4   8
BRANCH   1  21
ATOM     21  C   UNL     1      31.409 -11.385 -21.554  0.00  0.00    +0.005 C 
BRANCH  21  24
ATOM     22  N   UNL     1      32.158  -9.147 -22.312  0.00  0.00    +0.388 N 
ATOM     23  C   UNL     1      32.676  -7.915 -21.698  0.00  0.00    -0.030 C 
ATOM     24  C   UNL     1      32.245 -10.154 -21.245  0.00  0.00    -0.057 C 
ATOM     25  C   UNL     1      32.219  -7.966 -20.240  0.00  0.00    -0.021 C 
ATOM     26  C   UNL     1      31.763  -9.402 -20.013  0.00  0.00    -0.023 C 
ATOM     27  H   UNL     1      32.731  -9.419 -23.111  0.00  0.00    -0.084 HD
ATOM     28  H   UNL     1      31.208  -9.035 -22.664  0.00  0.00    -0.084 HD
BRANCH  23  29
ATOM     29  C   UNL     1      32.189  -6.672 -22.430  0.00  0.00    +0.113 C 
BRANCH  29  30
ATOM     30  C   UNL     1      33.058  -6.332 -23.619  0.00  0.00    +0.002 C 
ATOM     31  C   UNL     1      32.567  -5.503 -24.629  0.00  0.00    -0.002 C 
ATOM     32  C   UNL     1      34.351  -6.847 -23.708  0.00  0.00    -0.002 C 
ATOM     33  C   UNL     1      33.370  -5.190 -25.725  0.00  0.00    -0.000 C 
ATOM     34  C   UNL     1      35.154  -6.535 -24.805  0.00  0.00    -0.000 C 
ATOM     35  C   UNL     1      34.663  -5.706 -25.814  0.00  0.00    -0.000 C 
ENDBRANCH  29  30
BRANCH  29  36
ATOM     36  O   UNL     1      30.847  -6.870 -22.876  0.00  0.00    -0.382 OA
ATOM     37  H   UNL     1      30.855  -7.200 -23.788  0.00  0.00    +0.211 HD
ENDBRANCH  29  36
ENDBRANCH  23  29
ENDBRANCH  21  24
ENDBRANCH   1  21
TORSDOF 7
ENDMDL
MODEL 2
REMARK VINA RESULT:     -13.7      4.687      8.970
REMARK  Name = 44472635
REMARK  7 active torsions:
REMARK  status: ('A' for Active; 'I' for Inactive)
REMARK    1  A    between atoms: C_1  and  C_21
REMARK    2  A    between atoms: C_4  and  N_8
REMARK    3  A    between atoms: C_9  and  C_14
REMARK    4  A    between atoms: C_21  and  C_24
REMARK    5  A    between atoms: C_23  and  C_29
REMARK    6  A    between atoms: C_29  and  C_30
REMARK    7  A    between atoms: C_29  and  O_36
REMARK                            x       y       z     vdW  Elec       q    Type
REMARK                         _______ _______ _______ _____ _____    ______ ____
ROOT
ATOM      1  C   UNL     1      35.763 -20.268 -20.678  0.00  0.00    -0.024 C 
ATOM      2  C   UNL     1      34.401 -20.543 -20.559  0.00  0.00    -0.003 C 
ATOM      3  C   UNL     1      36.680 -20.920 -19.853  0.00  0.00    -0.003 C 
ATOM      4  C   UNL     1      34.874 -22.121 -18.791  0.00  0.00    +0.050 C 
ATOM      5  C   UNL     1      33.956 -21.469 -19.615  0.00  0.00    +0.014 C 
ATOM      6  C   UNL     1      36.236 -21.846 -18.910  0.00  0.00    +0.014 C 
ENDROOT
BRANCH   4   8
ATOM      7  O   UNL     1      35.478 -22.359 -15.851  0.00  0.00    -0.273 OA
ATOM      8  N   UNL     1      34.423 -23.060 -17.834  0.00  0.00    -0.283 N 
ATOM      9  C   UNL     1      34.745 -23.113 -16.485  0.00  0.00    +0.245 C 
ATOM     10  H   UNL     1      33.810 -23.757 -18.163  0.00  0.00    +0.155 HD
BRANCH   9  14
ATOM     11  O   UNL     1      36.529 -25.884 -15.562  0.00  0.00    -0.269 OA
ATOM     12  N   UNL     1      34.834 -24.589 -14.631  0.00  0.00    -0.237 N 
ATOM     13  N   UNL     1      34.732 -24.186 -12.283  0.00  0.00    -0.233 NA
ATOM     14  C   UNL     1      34.060 -24.263 -15.809  0.00  0.00    +0.158 C 
ATOM     15  C   UNL     1      32.705 -23.859 -15.247  0.00  0.00    +0.037 C 
ATOM     16  C   UNL     1      33.014 -23.313 -13.850  0.00  0.00    +0.064 C 
ATOM     17  C   UNL     1      34.259 -24.060 -13.479  0.00  0.00    +0.115 C 
ATOM     18  C   UNL     1      35.981 -25.358 -14.601  0.00  0.00    +0.256 C 
ATOM     19  C   UNL     1      36.532 -25.504 -13.229  0.00  0.00    +0.079 C 
ATOM     20  C   UNL     1      35.889 -24.925 -12.204  0.00  0.00    +0.105 C 
ENDBRANCH   9  14
ENDBRANCH   4   8
BRANCH   1  21
ATOM     21  C   UNL     1      36.239 -19.277 -21.685  0.00  0.00    +0.005 C 
BRANCH  21  24
ATOM     22  N   UNL     1      34.970 -17.276 -22.415  0.00  0.00    +0.388 N 
ATOM     23  C   UNL     1      34.135 -16.883 -23.560  0.00  0.00    -0.030 C 
ATOM     24  C   UNL     1      35.106 -18.734 -22.541  0.00  0.00    -0.057 C 
ATOM     25  C   UNL     1      34.538 -17.823 -24.697  0.00  0.00    -0.021 C 
ATOM     26  C   UNL     1      35.337 -18.937 -24.032  0.00  0.00    -0.023 C 
ATOM     27  H   UNL     1      34.515 -17.031 -21.537  0.00  0.00    -0.084 HD
ATOM     28  H   UNL     1      35.872 -16.801 -22.413  0.00  0.00    -0.084 HD
BRANCH  23  29
ATOM     29  C   UNL     1      34.314 -15.414 -23.913  0.00  0.00    +0.113 C 
BRANCH  29  30
ATOM     30  C   UNL     1      33.537 -14.505 -22.987  0.00  0.00    +0.002 C 
ATOM     31  C   UNL     1      33.029 -13.295 -23.460  0.00  0.00    -0.002 C 
ATOM     32  C   UNL     1      33.330 -14.877 -21.658  0.00  0.00    -0.002 C 
ATOM     33  C   UNL     1      32.313 -12.458 -22.606  0.00  0.00    -0.000 C 
ATOM     34  C   UNL     1      32.614 -14.039 -20.803  0.00  0.00    -0.000 C 
ATOM     35  C   UNL     1      32.106 -12.829 -21.277  0.00  0.00    -0.000 C 
ENDBRANCH  29  30
BRANCH  29  36
ATOM     36  O   UNL     1      35.698 -15.069 -23.850  0.00  0.00    -0.382 OA
ATOM     37  H   UNL     1      35.789 -14.147 -23.561  0.00  0.00    +0.211 HD
ENDBRANCH  29  36
ENDBRANCH  23  29
ENDBRANCH  21  24
ENDBRANCH   1  21
TORSDOF 7
ENDMDL
MODEL 3
REMARK VINA RESULT:     -13.5      2.142     11.443
REMARK  Name = 44472635
REMARK  7 active torsions:
REMARK  status: ('A' for Active; 'I' for Inactive)
REMARK    1  A    between atoms: C_1  and  C_21
REMARK    2  A    between atoms: C_4  and  N_8
REMARK    3  A    between atoms: C_9  and  C_14
REMARK    4  A    between atoms: C_21  and  C_24
REMARK    5  A    between atoms: C_23  and  C_29
REMARK    6  A    between atoms: C_29  and  C_30
REMARK    7  A    between atoms: C_29  and  O_36
REMARK                            x       y       z     vdW  Elec       q    Type
REMARK                         _______ _______ _______ _____ _____    ______ ____
ROOT
ATOM      1  C   UNL     1      32.875 -12.787 -22.991  0.00  0.00    -0.024 C 
ATOM      2  C   UNL     1      32.055 -12.061 -22.126  0.00  0.00    -0.003 C 
ATOM      3  C   UNL     1      33.771 -12.119 -23.826  0.00  0.00    -0.003 C 
ATOM      4  C   UNL     1      33.030 -10.002 -22.929  0.00  0.00    +0.050 C 
ATOM      5  C   UNL     1      32.133 -10.669 -22.095  0.00  0.00    +0.014 C 
ATOM      6  C   UNL     1      33.850 -10.727 -23.795  0.00  0.00    +0.014 C 
ENDROOT
BRANCH   4   8
ATOM      7  O   UNL     1      30.939  -7.913 -23.502  0.00  0.00    -0.273 OA
ATOM      8  N   UNL     1      33.110  -8.589 -22.898  0.00  0.00    -0.283 N 
ATOM      9  C   UNL     1      32.099  -7.680 -23.177  0.00  0.00    +0.245 C 
ATOM     10  H   UNL     1      33.983  -8.208 -22.649  0.00  0.00    +0.155 HD
BRANCH   9  14
ATOM     11  O   UNL     1      35.372  -6.907 -23.816  0.00  0.00    -0.269 OA
ATOM     12  N   UNL     1      33.300  -5.936 -24.244  0.00  0.00    -0.237 N 
ATOM     13  N   UNL     1      32.888  -4.739 -26.265  0.00  0.00    -0.233 NA
ATOM     14  C   UNL     1      32.585  -6.269 -23.031  0.00  0.00    +0.158 C 
ATOM     15  C   UNL     1      31.432  -5.275 -23.010  0.00  0.00    +0.037 C 
ATOM     16  C   UNL     1      31.170  -4.959 -24.485  0.00  0.00    +0.064 C 
ATOM     17  C   UNL     1      32.515  -5.177 -25.108  0.00  0.00    +0.115 C 
ATOM     18  C   UNL     1      34.608  -6.272 -24.533  0.00  0.00    +0.256 C 
ATOM     19  C   UNL     1      35.042  -5.775 -25.865  0.00  0.00    +0.079 C 
ATOM     20  C   UNL     1      34.177  -5.069 -26.610  0.00  0.00    +0.105 C 
ENDBRANCH   9  14
ENDBRANCH   4   8
BRANCH   1  21
ATOM     21  C   UNL     1      32.790 -14.275 -23.026  0.00  0.00    +0.005 C 
BRANCH  21  24
ATOM     22  N   UNL     1      34.279 -16.231 -23.348  0.00  0.00    +0.388 N 
ATOM     23  C   UNL     1      35.056 -16.830 -24.444  0.00  0.00    -0.030 C 
ATOM     24  C   UNL     1      33.910 -14.898 -23.844  0.00  0.00    -0.057 C 
ATOM     25  C   UNL     1      34.411 -16.311 -25.729  0.00  0.00    -0.021 C 
ATOM     26  C   UNL     1      33.515 -15.158 -25.291  0.00  0.00    -0.023 C 
ATOM     27  H   UNL     1      34.845 -16.158 -22.504  0.00  0.00    -0.084 HD
ATOM     28  H   UNL     1      33.464 -16.792 -23.100  0.00  0.00    -0.084 HD
BRANCH  23  29
ATOM     29  C   UNL     1      35.072 -18.350 -24.360  0.00  0.00    +0.113 C 
BRANCH  29  30
ATOM     30  C   UNL     1      35.551 -18.842 -23.013  0.00  0.00    +0.002 C 
ATOM     31  C   UNL     1      36.838 -18.533 -22.573  0.00  0.00    -0.002 C 
ATOM     32  C   UNL     1      34.705 -19.607 -22.210  0.00  0.00    -0.002 C 
ATOM     33  C   UNL     1      37.279 -18.988 -21.331  0.00  0.00    -0.000 C 
ATOM     34  C   UNL     1      35.146 -20.064 -20.968  0.00  0.00    -0.000 C 
ATOM     35  C   UNL     1      36.433 -19.753 -20.528  0.00  0.00    -0.000 C 
ENDBRANCH  29  30
BRANCH  29  36
ATOM     36  O   UNL     1      33.762 -18.860 -24.604  0.00  0.00    -0.382 OA
ATOM     37  H   UNL     1      33.194 -18.147 -24.934  0.00  0.00    +0.211 HD
ENDBRANCH  29  36
ENDBRANCH  23  29
ENDBRANCH  21  24
ENDBRANCH   1  21
TORSDOF 7
ENDMDL
MODEL 4
REMARK VINA RESULT:     -13.4      5.579     12.871
REMARK  Name = 44472635
REMARK  7 active torsions:
REMARK  status: ('A' for Active; 'I' for Inactive)
REMARK    1  A    between atoms: C_1  and  C_21
REMARK    2  A    between atoms: C_4  and  N_8
REMARK    3  A    between atoms: C_9  and  C_14
REMARK    4  A    between atoms: C_21  and  C_24
REMARK    5  A    between atoms: C_23  and  C_29
REMARK    6  A    between atoms: C_29  and  C_30
REMARK    7  A    between atoms: C_29  and  O_36
REMARK                            x       y       z     vdW  Elec       q    Type
REMARK                         _______ _______ _______ _____ _____    ______ ____
ROOT
ATOM      1  C   UNL     1      34.230 -22.087 -19.395  0.00  0.00    -0.024 C 
ATOM      2  C   UNL     1      35.582 -21.795 -19.575  0.00  0.00    -0.003 C 
ATOM      3  C   UNL     1      33.258 -21.231 -19.913  0.00  0.00    -0.003 C 
ATOM      4  C   UNL     1      34.989 -19.793 -20.790  0.00  0.00    +0.050 C 
ATOM      5  C   UNL     1      35.962 -20.648 -20.272  0.00  0.00    +0.014 C 
ATOM      6  C   UNL     1      33.637 -20.085 -20.611  0.00  0.00    +0.014 C 
ENDROOT
BRANCH   4   8
ATOM      7  O   UNL     1      34.175 -18.804 -23.515  0.00  0.00    -0.273 OA
ATOM      8  N   UNL     1      35.373 -18.630 -21.498  0.00  0.00    -0.283 N 
ATOM      9  C   UNL     1      34.958 -18.233 -22.761  0.00  0.00    +0.245 C 
ATOM     10  H   UNL     1      36.010 -18.033 -21.041  0.00  0.00    +0.155 HD
BRANCH   9  14
ATOM     11  O   UNL     1      35.142 -17.339 -26.060  0.00  0.00    -0.269 OA
ATOM     12  N   UNL     1      34.676 -16.263 -24.049  0.00  0.00    -0.237 N 
ATOM     13  N   UNL     1      33.061 -14.512 -23.927  0.00  0.00    -0.233 NA
ATOM     14  C   UNL     1      35.596 -16.936 -23.158  0.00  0.00    +0.158 C 
ATOM     15  C   UNL     1      35.714 -15.982 -21.978  0.00  0.00    +0.037 C 
ATOM     16  C   UNL     1      34.377 -15.237 -21.950  0.00  0.00    +0.064 C 
ATOM     17  C   UNL     1      33.956 -15.272 -23.387  0.00  0.00    +0.115 C 
ATOM     18  C   UNL     1      34.526 -16.510 -25.400  0.00  0.00    +0.256 C 
ATOM     19  C   UNL     1      33.496 -15.642 -26.026  0.00  0.00    +0.079 C 
ATOM     20  C   UNL     1      32.858 -14.738 -25.269  0.00  0.00    +0.105 C 
ENDBRANCH   9  14
ENDBRANCH   4   8
BRANCH   1  21
ATOM     21  C   UNL     1      33.824 -23.312 -18.648  0.00  0.00    +0.005 C 
BRANCH  21  24
ATOM     22  N   UNL     1      32.596 -23.229 -16.495  0.00  0.00    +0.388 N 
ATOM     23  C   UNL     1      32.901 -23.419 -15.069  0.00  0.00    -0.030 C 
ATOM     24  C   UNL     1      33.912 -23.126 -17.142  0.00  0.00    -0.057 C 
ATOM     25  C   UNL     1      34.175 -24.264 -15.036  0.00  0.00    -0.021 C 
ATOM     26  C   UNL     1      34.727 -24.213 -16.455  0.00  0.00    -0.023 C 
ATOM     27  H   UNL     1      32.058 -22.375 -16.638  0.00  0.00    -0.084 HD
ATOM     28  H   UNL     1      32.035 -23.990 -16.877  0.00  0.00    -0.084 HD
BRANCH  23  29
ATOM     29  C   UNL     1      31.740 -24.065 -14.326  0.00  0.00    +0.113 C 
BRANCH  29  30
ATOM     30  C   UNL     1      30.422 -23.864 -15.038  0.00  0.00    +0.002 C 
ATOM     31  C   UNL     1      29.846 -24.917 -15.750  0.00  0.00    -0.002 C 
ATOM     32  C   UNL     1      29.783 -22.626 -14.986  0.00  0.00    -0.002 C 
ATOM     33  C   UNL     1      28.630 -24.731 -16.407  0.00  0.00    -0.000 C 
ATOM     34  C   UNL     1      28.568 -22.439 -15.644  0.00  0.00    -0.000 C 
ATOM     35  C   UNL     1      27.991 -23.492 -16.355  0.00  0.00    -0.000 C 
ENDBRANCH  29  30
BRANCH  29  36
ATOM     36  O   UNL     1      31.982 -25.465 -14.179  0.00  0.00    -0.382 OA
ATOM     37  H   UNL     1      31.406 -25.821 -13.484  0.00  0.00    +0.211 HD
ENDBRANCH  29  36
ENDBRANCH  23  29
ENDBRANCH  21  24
ENDBRANCH   1  21
TORSDOF 7
ENDMDL
MODEL 5
REMARK VINA RESULT:     -13.1      1.881     11.193
REMARK  Name = 44472635
REMARK  7 active torsions:
REMARK  status: ('A' for Active; 'I' for Inactive)
REMARK    1  A    between atoms: C_1  and  C_21
REMARK    2  A    between atoms: C_4  and  N_8
REMARK    3  A    between atoms: C_9  and  C_14
REMARK    4  A    between atoms: C_21  and  C_24
REMARK    5  A    between atoms: C_23  and  C_29
REMARK    6  A    between atoms: C_29  and  C_30
REMARK    7  A    between atoms: C_29  and  O_36
REMARK                            x       y       z     vdW  Elec       q    Type
REMARK                         _______ _______ _______ _____ _____    ______ ____
ROOT
ATOM      1  C   UNL     1      33.584 -14.272 -25.042  0.00  0.00    -0.024 C 
ATOM      2  C   UNL     1      33.049 -14.113 -23.763  0.00  0.00    -0.003 C 
ATOM      3  C   UNL     1      34.137 -13.178 -25.707  0.00  0.00    -0.003 C 
ATOM      4  C   UNL     1      33.622 -11.767 -23.815  0.00  0.00    +0.050 C 
ATOM      5  C   UNL     1      33.068 -12.861 -23.150  0.00  0.00    +0.014 C 
ATOM      6  C   UNL     1      34.157 -11.926 -25.094  0.00  0.00    +0.014 C 
ENDROOT
BRANCH   4   8
ATOM      7  O   UNL     1      31.368  -9.896 -23.118  0.00  0.00    -0.273 OA
ATOM      8  N   UNL     1      33.642 -10.496 -23.193  0.00  0.00    -0.283 N 
ATOM      9  C   UNL     1      32.557  -9.681 -22.901  0.00  0.00    +0.245 C 
ATOM     10  H   UNL     1      34.528 -10.150 -22.938  0.00  0.00    +0.155 HD
BRANCH   9  14
ATOM     11  O   UNL     1      35.575  -8.277 -23.696  0.00  0.00    -0.269 OA
ATOM     12  N   UNL     1      33.418  -7.506 -23.286  0.00  0.00    -0.237 N 
ATOM     13  N   UNL     1      32.524  -5.639 -24.472  0.00  0.00    -0.233 NA
ATOM     14  C   UNL     1      32.997  -8.411 -22.238  0.00  0.00    +0.158 C 
ATOM     15  C   UNL     1      31.832  -7.683 -21.584  0.00  0.00    +0.037 C 
ATOM     16  C   UNL     1      31.243  -6.816 -22.699  0.00  0.00    +0.064 C 
ATOM     17  C   UNL     1      32.431  -6.568 -23.578  0.00  0.00    +0.115 C 
ATOM     18  C   UNL     1      34.646  -7.509 -23.917  0.00  0.00    +0.256 C 
ATOM     19  C   UNL     1      34.760  -6.445 -24.948  0.00  0.00    +0.079 C 
ATOM     20  C   UNL     1      33.723  -5.616 -25.145  0.00  0.00    +0.105 C 
ENDBRANCH   9  14
ENDBRANCH   4   8
BRANCH   1  21
ATOM     21  C   UNL     1      33.562 -15.611 -25.699  0.00  0.00    +0.005 C 
BRANCH  21  24
ATOM     22  N   UNL     1      34.491 -16.397 -23.539  0.00  0.00    +0.388 N 
ATOM     23  C   UNL     1      35.051 -17.642 -22.991  0.00  0.00    -0.030 C 
ATOM     24  C   UNL     1      34.456 -16.616 -24.992  0.00  0.00    -0.057 C 
ATOM     25  C   UNL     1      34.514 -18.757 -23.889  0.00  0.00    -0.021 C 
ATOM     26  C   UNL     1      33.956 -18.049 -25.118  0.00  0.00    -0.023 C 
ATOM     27  H   UNL     1      35.087 -15.602 -23.309  0.00  0.00    -0.084 HD
ATOM     28  H   UNL     1      33.570 -16.185 -23.156  0.00  0.00    -0.084 HD
BRANCH  23  29
ATOM     29  C   UNL     1      34.683 -17.830 -21.526  0.00  0.00    +0.113 C 
BRANCH  29  30
ATOM     30  C   UNL     1      35.057 -19.203 -21.015  0.00  0.00    +0.002 C 
ATOM     31  C   UNL     1      36.399 -19.547 -20.855  0.00  0.00    -0.002 C 
ATOM     32  C   UNL     1      34.059 -20.127 -20.706  0.00  0.00    -0.002 C 
ATOM     33  C   UNL     1      36.743 -20.814 -20.384  0.00  0.00    -0.000 C 
ATOM     34  C   UNL     1      34.402 -21.394 -20.235  0.00  0.00    -0.000 C 
ATOM     35  C   UNL     1      35.745 -21.738 -20.074  0.00  0.00    -0.000 C 
ENDBRANCH  29  30
BRANCH  29  36
ATOM     36  O   UNL     1      35.343 -16.843 -20.733  0.00  0.00    -0.382 OA
ATOM     37  H   UNL     1      34.710 -16.149 -20.490  0.00  0.00    +0.211 HD
ENDBRANCH  29  36
ENDBRANCH  23  29
ENDBRANCH  21  24
ENDBRANCH   1  21
TORSDOF 7
ENDMDL
MODEL 6
REMARK VINA RESULT:     -12.8      1.344      1.857
REMARK  Name = 44472635
REMARK  7 active torsions:
REMARK  status: ('A' for Active; 'I' for Inactive)
REMARK    1  A    between atoms: C_1  and  C_21
REMARK    2  A    between atoms: C_4  and  N_8
REMARK    3  A    between atoms: C_9  and  C_14
REMARK    4  A    between atoms: C_21  and  C_24
REMARK    5  A    between atoms: C_23  and  C_29
REMARK    6  A    between atoms: C_29  and  C_30
REMARK    7  A    between atoms: C_29  and  O_36
REMARK                            x       y       z     vdW  Elec       q    Type
REMARK                         _______ _______ _______ _____ _____    ______ ____
ROOT
ATOM      1  C   UNL     1      32.039 -11.973 -21.469  0.00  0.00    -0.024 C 
ATOM      2  C   UNL     1      32.280 -13.083 -20.659  0.00  0.00    -0.003 C 
ATOM      3  C   UNL     1      32.562 -11.927 -22.762  0.00  0.00    -0.003 C 
ATOM      4  C   UNL     1      33.566 -14.100 -22.434  0.00  0.00    +0.050 C 
ATOM      5  C   UNL     1      33.044 -14.146 -21.141  0.00  0.00    +0.014 C 
ATOM      6  C   UNL     1      33.324 -12.990 -23.244  0.00  0.00    +0.014 C 
ENDROOT
BRANCH   4   8
ATOM      7  O   UNL     1      33.387 -15.614 -25.030  0.00  0.00    -0.273 OA
ATOM      8  N   UNL     1      34.340 -15.178 -22.924  0.00  0.00    -0.283 N 
ATOM      9  C   UNL     1      34.201 -15.835 -24.138  0.00  0.00    +0.245 C 
ATOM     10  H   UNL     1      35.061 -15.499 -22.334  0.00  0.00    +0.155 HD
BRANCH   9  14
ATOM     11  O   UNL     1      36.128 -16.762 -21.466  0.00  0.00    -0.269 OA
ATOM     12  N   UNL     1      35.010 -17.852 -23.191  0.00  0.00    -0.237 N 
ATOM     13  N   UNL     1      33.963 -19.967 -22.847  0.00  0.00    -0.233 NA
ATOM     14  C   UNL     1      35.219 -16.926 -24.283  0.00  0.00    +0.158 C 
ATOM     15  C   UNL     1      34.967 -17.771 -25.523  0.00  0.00    +0.037 C 
ATOM     16  C   UNL     1      33.980 -18.847 -25.063  0.00  0.00    +0.064 C 
ATOM     17  C   UNL     1      34.300 -18.976 -23.605  0.00  0.00    +0.115 C 
ATOM     18  C   UNL     1      35.472 -17.702 -21.899  0.00  0.00    +0.256 C 
ATOM     19  C   UNL     1      35.085 -18.837 -21.021  0.00  0.00    +0.079 C 
ATOM     20  C   UNL     1      34.380 -19.852 -21.541  0.00  0.00    +0.105 C 
ENDBRANCH   9  14
ENDBRANCH   4   8
BRANCH   1  21
ATOM     21  C   UNL     1      31.224 -10.836 -20.953  0.00  0.00    +0.005 C 
BRANCH  21  24
ATOM     22  N   UNL     1      32.060  -8.709 -21.915  0.00  0.00    +0.388 N 
ATOM     23  C   UNL     1      32.552  -7.416 -21.416  0.00  0.00    -0.030 C 
ATOM     24  C   UNL     1      32.056  -9.583 -20.733  0.00  0.00    -0.057 C 
ATOM     25  C   UNL     1      31.995  -7.290 -19.998  0.00  0.00    -0.021 C 
ATOM     26  C   UNL     1      31.502  -8.686 -19.635  0.00  0.00    -0.023 C 
ATOM     27  H   UNL     1      32.681  -9.078 -22.634  0.00  0.00    -0.084 HD
ATOM     28  H   UNL     1      31.138  -8.632 -22.344  0.00  0.00    -0.084 HD
BRANCH  23  29
ATOM     29  C   UNL     1      32.137  -6.265 -22.321  0.00  0.00    +0.113 C 
BRANCH  29  30
ATOM     30  C   UNL     1      33.052  -6.118 -23.515  0.00  0.00    +0.002 C 
ATOM     31  C   UNL     1      34.271  -6.796 -23.548  0.00  0.00    -0.002 C 
ATOM     32  C   UNL     1      32.679  -5.304 -24.584  0.00  0.00    -0.002 C 
ATOM     33  C   UNL     1      35.116  -6.659 -24.649  0.00  0.00    -0.000 C 
ATOM     34  C   UNL     1      33.523  -5.167 -25.686  0.00  0.00    -0.000 C 
ATOM     35  C   UNL     1      34.742  -5.845 -25.718  0.00  0.00    -0.000 C 
ENDBRANCH  29  30
BRANCH  29  36
ATOM     36  O   UNL     1      30.801  -6.473 -22.781  0.00  0.00    -0.382 OA
ATOM     37  H   UNL     1      30.268  -6.853 -22.066  0.00  0.00    +0.211 HD
ENDBRANCH  29  36
ENDBRANCH  23  29
ENDBRANCH  21  24
ENDBRANCH   1  21
TORSDOF 7
ENDMDL
MODEL 7
REMARK VINA RESULT:     -12.7      4.825      8.942
REMARK  Name = 44472635
REMARK  7 active torsions:
REMARK  status: ('A' for Active; 'I' for Inactive)
REMARK    1  A    between atoms: C_1  and  C_21
REMARK    2  A    between atoms: C_4  and  N_8
REMARK    3  A    between atoms: C_9  and  C_14
REMARK    4  A    between atoms: C_21  and  C_24
REMARK    5  A    between atoms: C_23  and  C_29
REMARK    6  A    between atoms: C_29  and  C_30
REMARK    7  A    between atoms: C_29  and  O_36
REMARK                            x       y       z     vdW  Elec       q    Type
REMARK                         _______ _______ _______ _____ _____    ______ ____
ROOT
ATOM      1  C   UNL     1      35.722 -20.600 -20.276  0.00  0.00    -0.024 C 
ATOM      2  C   UNL     1      34.362 -20.886 -20.403  0.00  0.00    -0.003 C 
ATOM      3  C   UNL     1      36.468 -21.202 -19.262  0.00  0.00    -0.003 C 
ATOM      4  C   UNL     1      34.496 -22.374 -18.504  0.00  0.00    +0.050 C 
ATOM      5  C   UNL     1      33.749 -21.772 -19.518  0.00  0.00    +0.014 C 
ATOM      6  C   UNL     1      35.856 -22.089 -18.377  0.00  0.00    +0.014 C 
ENDROOT
BRANCH   4   8
ATOM      7  O   UNL     1      31.709 -22.386 -17.365  0.00  0.00    -0.273 OA
ATOM      8  N   UNL     1      33.875 -23.274 -17.606  0.00  0.00    -0.283 N 
ATOM      9  C   UNL     1      32.577 -23.218 -17.117  0.00  0.00    +0.245 C 
ATOM     10  H   UNL     1      34.428 -24.026 -17.292  0.00  0.00    +0.155 HD
BRANCH   9  14
ATOM     11  O   UNL     1      35.123 -25.263 -16.091  0.00  0.00    -0.269 OA
ATOM     12  N   UNL     1      33.260 -24.273 -15.107  0.00  0.00    -0.237 N 
ATOM     13  N   UNL     1      33.318 -23.493 -12.854  0.00  0.00    -0.233 NA
ATOM     14  C   UNL     1      32.300 -24.360 -16.186  0.00  0.00    +0.158 C 
ATOM     15  C   UNL     1      30.958 -24.203 -15.486  0.00  0.00    +0.037 C 
ATOM     16  C   UNL     1      31.266 -23.358 -14.247  0.00  0.00    +0.064 C 
ATOM     17  C   UNL     1      32.698 -23.701 -13.968  0.00  0.00    +0.115 C 
ATOM     18  C   UNL     1      34.565 -24.722 -15.142  0.00  0.00    +0.256 C 
ATOM     19  C   UNL     1      35.285 -24.483 -13.865  0.00  0.00    +0.079 C 
ATOM     20  C   UNL     1      34.630 -23.903 -12.848  0.00  0.00    +0.105 C 
ENDBRANCH   9  14
ENDBRANCH   4   8
BRANCH   1  21
ATOM     21  C   UNL     1      36.377 -19.651 -21.220  0.00  0.00    +0.005 C 
BRANCH  21  24
ATOM     22  N   UNL     1      35.341 -17.463 -21.756  0.00  0.00    +0.388 N 
ATOM     23  C   UNL     1      34.642 -16.848 -22.894  0.00  0.00    -0.030 C 
ATOM     24  C   UNL     1      35.370 -18.898 -22.074  0.00  0.00    -0.057 C 
ATOM     25  C   UNL     1      35.065 -17.661 -24.118  0.00  0.00    -0.021 C 
ATOM     26  C   UNL     1      35.711 -18.922 -23.557  0.00  0.00    -0.023 C 
ATOM     27  H   UNL     1      34.832 -17.297 -20.888  0.00  0.00    -0.084 HD
ATOM     28  H   UNL     1      36.275 -17.077 -21.620  0.00  0.00    -0.084 HD
BRANCH  23  29
ATOM     29  C   UNL     1      34.969 -15.367 -23.023  0.00  0.00    +0.113 C 
BRANCH  29  30
ATOM     30  C   UNL     1      34.324 -14.744 -24.241  0.00  0.00    +0.002 C 
ATOM     31  C   UNL     1      34.210 -13.357 -24.338  0.00  0.00    -0.002 C 
ATOM     32  C   UNL     1      33.842 -15.556 -25.267  0.00  0.00    -0.002 C 
ATOM     33  C   UNL     1      33.615 -12.783 -25.461  0.00  0.00    -0.000 C 
ATOM     34  C   UNL     1      33.246 -14.982 -26.390  0.00  0.00    -0.000 C 
ATOM     35  C   UNL     1      33.133 -13.595 -26.487  0.00  0.00    -0.000 C 
ENDBRANCH  29  30
BRANCH  29  36
ATOM     36  O   UNL     1      34.528 -14.672 -21.856  0.00  0.00    -0.382 OA
ATOM     37  H   UNL     1      33.583 -14.469 -21.939  0.00  0.00    +0.211 HD
ENDBRANCH  29  36
ENDBRANCH  23  29
ENDBRANCH  21  24
ENDBRANCH   1  21
TORSDOF 7
ENDMDL
MODEL 8
REMARK VINA RESULT:     -12.6      4.767      8.800
REMARK  Name = 44472635
REMARK  7 active torsions:
REMARK  status: ('A' for Active; 'I' for Inactive)
REMARK    1  A    between atoms: C_1  and  C_21
REMARK    2  A    between atoms: C_4  and  N_8
REMARK    3  A    between atoms: C_9  and  C_14
REMARK    4  A    between atoms: C_21  and  C_24
REMARK    5  A    between atoms: C_23  and  C_29
REMARK    6  A    between atoms: C_29  and  C_30
REMARK    7  A    between atoms: C_29  and  O_36
REMARK                            x       y       z     vdW  Elec       q    Type
REMARK                         _______ _______ _______ _____ _____    ______ ____
ROOT
ATOM      1  C   UNL     1      36.038 -20.179 -20.603  0.00  0.00    -0.024 C 
ATOM      2  C   UNL     1      34.681 -20.504 -20.585  0.00  0.00    -0.003 C 
ATOM      3  C   UNL     1      36.913 -20.789 -19.704  0.00  0.00    -0.003 C 
ATOM      4  C   UNL     1      35.076 -22.049 -18.769  0.00  0.00    +0.050 C 
ATOM      5  C   UNL     1      34.200 -21.439 -19.667  0.00  0.00    +0.014 C 
ATOM      6  C   UNL     1      36.433 -21.724 -18.787  0.00  0.00    +0.014 C 
ENDROOT
BRANCH   4   8
ATOM      7  O   UNL     1      35.618 -22.354 -15.823  0.00  0.00    -0.273 OA
ATOM      8  N   UNL     1      34.589 -22.997 -17.839  0.00  0.00    -0.283 N 
ATOM      9  C   UNL     1      34.883 -23.081 -16.485  0.00  0.00    +0.245 C 
ATOM     10  H   UNL     1      33.969 -23.675 -18.193  0.00  0.00    +0.155 HD
BRANCH   9  14
ATOM     11  O   UNL     1      36.605 -25.881 -15.529  0.00  0.00    -0.269 OA
ATOM     12  N   UNL     1      34.892 -24.576 -14.644  0.00  0.00    -0.237 N 
ATOM     13  N   UNL     1      34.713 -24.193 -12.297  0.00  0.00    -0.233 NA
ATOM     14  C   UNL     1      34.163 -24.230 -15.845  0.00  0.00    +0.158 C 
ATOM     15  C   UNL     1      32.793 -23.817 -15.326  0.00  0.00    +0.037 C 
ATOM     16  C   UNL     1      33.060 -23.287 -13.914  0.00  0.00    +0.064 C 
ATOM     17  C   UNL     1      34.284 -24.051 -13.508  0.00  0.00    +0.115 C 
ATOM     18  C   UNL     1      36.029 -25.358 -14.582  0.00  0.00    +0.256 C 
ATOM     19  C   UNL     1      36.530 -25.523 -13.193  0.00  0.00    +0.079 C 
ATOM     20  C   UNL     1      35.859 -24.946 -12.185  0.00  0.00    +0.105 C 
ENDBRANCH   9  14
ENDBRANCH   4   8
BRANCH   1  21
ATOM     21  C   UNL     1      36.552 -19.179 -21.582  0.00  0.00    +0.005 C 
BRANCH  21  24
ATOM     22  N   UNL     1      35.307 -17.066 -21.946  0.00  0.00    +0.388 N 
ATOM     23  C   UNL     1      34.486 -16.463 -23.007  0.00  0.00    -0.030 C 
ATOM     24  C   UNL     1      35.432 -18.478 -22.334  0.00  0.00    -0.057 C 
ATOM     25  C   UNL     1      34.893 -17.184 -24.293  0.00  0.00    -0.021 C 
ATOM     26  C   UNL     1      35.676 -18.409 -23.835  0.00  0.00    -0.023 C 
ATOM     27  H   UNL     1      34.845 -16.981 -21.041  0.00  0.00    -0.084 HD
ATOM     28  H   UNL     1      36.213 -16.608 -21.850  0.00  0.00    -0.084 HD
BRANCH  23  29
ATOM     29  C   UNL     1      34.681 -14.956 -23.085  0.00  0.00    +0.113 C 
BRANCH  29  30
ATOM     30  C   UNL     1      34.136 -14.375 -24.370  0.00  0.00    +0.002 C 
ATOM     31  C   UNL     1      33.592 -15.215 -25.341  0.00  0.00    -0.002 C 
ATOM     32  C   UNL     1      34.179 -12.997 -24.585  0.00  0.00    -0.002 C 
ATOM     33  C   UNL     1      33.090 -14.679 -26.526  0.00  0.00    -0.000 C 
ATOM     34  C   UNL     1      33.678 -12.460 -25.771  0.00  0.00    -0.000 C 
ATOM     35  C   UNL     1      33.132 -13.301 -26.741  0.00  0.00    -0.000 C 
ENDBRANCH  29  30
BRANCH  29  36
ATOM     36  O   UNL     1      34.033 -14.329 -21.978  0.00  0.00    -0.382 OA
ATOM     37  H   UNL     1      34.366 -13.423 -21.881  0.00  0.00    +0.211 HD
ENDBRANCH  29  36
ENDBRANCH  23  29
ENDBRANCH  21  24
ENDBRANCH   1  21
TORSDOF 7
ENDMDL
MODEL 9
REMARK VINA RESULT:     -12.6      6.165     10.953
REMARK  Name = 44472635
REMARK  7 active torsions:
REMARK  status: ('A' for Active; 'I' for Inactive)
REMARK    1  A    between atoms: C_1  and  C_21
REMARK    2  A    between atoms: C_4  and  N_8
REMARK    3  A    between atoms: C_9  and  C_14
REMARK    4  A    between atoms: C_21  and  C_24
REMARK    5  A    between atoms: C_23  and  C_29
REMARK    6  A    between atoms: C_29  and  C_30
REMARK    7  A    between atoms: C_29  and  O_36
REMARK                            x       y       z     vdW  Elec       q    Type
REMARK                         _______ _______ _______ _____ _____    ______ ____
ROOT
ATOM      1  C   UNL     1      34.238 -22.235 -18.382  0.00  0.00    -0.024 C 
ATOM      2  C   UNL     1      33.461 -23.205 -17.748  0.00  0.00    -0.003 C 
ATOM      3  C   UNL     1      35.553 -22.017 -17.970  0.00  0.00    -0.003 C 
ATOM      4  C   UNL     1      35.315 -23.740 -16.294  0.00  0.00    +0.050 C 
ATOM      5  C   UNL     1      33.999 -23.957 -16.704  0.00  0.00    +0.014 C 
ATOM      6  C   UNL     1      36.092 -22.770 -16.927  0.00  0.00    +0.014 C 
ENDROOT
BRANCH   4   8
ATOM      7  O   UNL     1      34.747 -23.670 -13.337  0.00  0.00    -0.273 OA
ATOM      8  N   UNL     1      35.861 -24.503 -15.235  0.00  0.00    -0.283 N 
ATOM      9  C   UNL     1      35.553 -24.417 -13.884  0.00  0.00    +0.245 C 
ATOM     10  H   UNL     1      36.539 -25.172 -15.486  0.00  0.00    +0.155 HD
BRANCH   9  14
ATOM     11  O   UNL     1      37.274 -26.926 -15.452  0.00  0.00    -0.269 OA
ATOM     12  N   UNL     1      37.668 -25.469 -13.680  0.00  0.00    -0.237 N 
ATOM     13  N   UNL     1      39.842 -24.579 -13.269  0.00  0.00    -0.233 NA
ATOM     14  C   UNL     1      36.352 -25.401 -13.083  0.00  0.00    +0.158 C 
ATOM     15  C   UNL     1      36.623 -24.892 -11.675  0.00  0.00    +0.037 C 
ATOM     16  C   UNL     1      37.904 -24.062 -11.805  0.00  0.00    +0.064 C 
ATOM     17  C   UNL     1      38.592 -24.710 -12.968  0.00  0.00    +0.115 C 
ATOM     18  C   UNL     1      38.018 -26.210 -14.791  0.00  0.00    +0.256 C 
ATOM     19  C   UNL     1      39.454 -26.062 -15.145  0.00  0.00    +0.079 C 
ATOM     20  C   UNL     1      40.235 -25.281 -14.384  0.00  0.00    +0.105 C 
ENDBRANCH   9  14
ENDBRANCH   4   8
BRANCH   1  21
ATOM     21  C   UNL     1      33.662 -21.429 -19.496  0.00  0.00    +0.005 C 
BRANCH  21  24
ATOM     22  N   UNL     1      34.467 -19.661 -21.036  0.00  0.00    +0.388 N 
ATOM     23  C   UNL     1      35.737 -19.274 -21.669  0.00  0.00    -0.030 C 
ATOM     24  C   UNL     1      34.714 -21.011 -20.511  0.00  0.00    -0.057 C 
ATOM     25  C   UNL     1      36.829 -19.898 -20.799  0.00  0.00    -0.021 C 
ATOM     26  C   UNL     1      36.109 -20.905 -19.912  0.00  0.00    -0.023 C 
ATOM     27  H   UNL     1      33.713 -19.674 -21.722  0.00  0.00    -0.084 HD
ATOM     28  H   UNL     1      34.182 -19.007 -20.308  0.00  0.00    -0.084 HD
BRANCH  23  29
ATOM     29  C   UNL     1      35.868 -17.763 -21.794  0.00  0.00    +0.113 C 
BRANCH  29  30
ATOM     30  C   UNL     1      35.255 -17.241 -23.074  0.00  0.00    +0.002 C 
ATOM     31  C   UNL     1      34.826 -15.916 -23.152  0.00  0.00    -0.002 C 
ATOM     32  C   UNL     1      35.117 -18.084 -24.176  0.00  0.00    -0.002 C 
ATOM     33  C   UNL     1      34.259 -15.435 -24.332  0.00  0.00    -0.000 C 
ATOM     34  C   UNL     1      34.550 -17.604 -25.356  0.00  0.00    -0.000 C 
ATOM     35  C   UNL     1      34.121 -16.278 -25.434  0.00  0.00    -0.000 C 
ENDBRANCH  29  30
BRANCH  29  36
ATOM     36  O   UNL     1      35.235 -17.131 -20.682  0.00  0.00    -0.382 OA
ATOM     37  H   UNL     1      34.633 -16.442 -21.003  0.00  0.00    +0.211 HD
ENDBRANCH  29  36
ENDBRANCH  23  29
ENDBRANCH  21  24
ENDBRANCH   1  21
TORSDOF 7
ENDMDL
