MODEL 1
REMARK VINA RESULT:     -13.6      0.000      0.000
REMARK  Name = 11538992
REMARK  4 active torsions:
REMARK  status: ('A' for Active; 'I' for Inactive)
REMARK    1  A    between atoms: C_1  and  N_7
REMARK    2  A    between atoms: C_3  and  C_24
REMARK    3  A    between atoms: C_4  and  N_30
REMARK    4  A    between atoms: C_15  and  C_20
REMARK                            x       y       z     vdW  Elec       q    Type
REMARK                         _______ _______ _______ _____ _____    ______ ____
ROOT
ATOM      1  C   UNL     1      35.353 -21.650 -19.888  0.00  0.00    -0.059 C 
ATOM      2  C   UNL     1      36.540 -20.682 -19.920  0.00  0.00    -0.042 C 
ATOM      3  C   UNL     1      35.160 -19.034 -21.284  0.00  0.00    +0.005 C 
ATOM      4  C   UNL     1      36.507 -19.794 -21.175  0.00  0.00    -0.064 C 
ATOM      5  C   UNL     1      34.025 -20.894 -19.977  0.00  0.00    -0.021 C 
ATOM      6  C   UNL     1      33.972 -20.014 -21.224  0.00  0.00    +0.000 C 
ENDROOT
BRANCH   1   7
ATOM      7  N   UNL     1      35.390 -22.441 -18.658  0.00  0.00    +0.394 N 
ATOM      8  N   UNL     1      35.207 -23.265 -16.005  0.00  0.00    -0.299 N 
ATOM      9  N   UNL     1      33.090 -23.786 -16.069  0.00  0.00    -0.136 NA
ATOM     10  N   UNL     1      33.621 -24.216 -14.863  0.00  0.00    -0.125 NA
ATOM     11  C   UNL     1      36.328 -21.852 -17.685  0.00  0.00    -0.052 C 
ATOM     12  C   UNL     1      34.035 -22.560 -18.081  0.00  0.00    -0.009 C 
ATOM     13  C   UNL     1      36.484 -22.771 -16.464  0.00  0.00    +0.086 C 
ATOM     14  C   UNL     1      34.063 -23.217 -16.748  0.00  0.00    +0.122 A 
ATOM     15  C   UNL     1      34.896 -23.893 -14.847  0.00  0.00    +0.238 A 
ATOM     16  H   UNL     1      35.724 -23.378 -18.887  0.00  0.00    -0.079 HD
BRANCH  15  20
ATOM     17  F   UNL     1      36.924 -24.955 -14.150  0.00  0.00    -0.163 F 
ATOM     18  F   UNL     1      36.461 -23.034 -13.255  0.00  0.00    -0.163 F 
ATOM     19  F   UNL     1      35.320 -24.798 -12.690  0.00  0.00    -0.163 F 
ATOM     20  C   UNL     1      35.868 -24.160 -13.774  0.00  0.00    +0.452 C 
ENDBRANCH  15  20
ENDBRANCH   1   7
BRANCH   3  24
ATOM     21  F   UNL     1      34.967 -20.088 -23.913  0.00  0.00    -0.204 F 
ATOM     22  F   UNL     1      34.975 -14.641 -23.417  0.00  0.00    -0.202 F 
ATOM     23  F   UNL     1      34.794 -15.792 -25.889  0.00  0.00    -0.202 F 
ATOM     24  C   UNL     1      35.062 -18.162 -22.529  0.00  0.00    +0.005 C 
ATOM     25  C   UNL     1      34.970 -18.754 -23.784  0.00  0.00    +0.138 C 
ATOM     26  C   UNL     1      35.064 -16.777 -22.399  0.00  0.00    +0.030 C 
ATOM     27  C   UNL     1      34.973 -15.975 -23.536  0.00  0.00    +0.167 C 
ATOM     28  C   UNL     1      34.880 -17.951 -24.921  0.00  0.00    +0.061 C 
ATOM     29  C   UNL     1      34.882 -16.563 -24.798  0.00  0.00    +0.170 C 
ENDBRANCH   3  24
BRANCH   4  30
ATOM     30  N   UNL     1      37.632 -18.854 -21.136  0.00  0.00    +0.382 N 
ATOM     31  H   UNL     1      37.427 -18.106 -20.474  0.00  0.00    -0.089 HD
ATOM     32  H   UNL     1      37.776 -18.456 -22.064  0.00  0.00    -0.089 HD
ATOM     33  H   UNL     1      38.476 -19.346 -20.842  0.00  0.00    -0.089 HD
ENDBRANCH   4  30
TORSDOF 4
ENDMDL
MODEL 2
REMARK VINA RESULT:     -13.3      7.054     10.809
REMARK  Name = 11538992
REMARK  4 active torsions:
REMARK  status: ('A' for Active; 'I' for Inactive)
REMARK    1  A    between atoms: C_1  and  N_7
REMARK    2  A    between atoms: C_3  and  C_24
REMARK    3  A    between atoms: C_4  and  N_30
REMARK    4  A    between atoms: C_15  and  C_20
REMARK                            x       y       z     vdW  Elec       q    Type
REMARK                         _______ _______ _______ _____ _____    ______ ____
ROOT
ATOM      1  C   UNL     1      33.984 -12.476 -22.795  0.00  0.00    -0.059 C 
ATOM      2  C   UNL     1      32.500 -12.498 -22.413  0.00  0.00    -0.042 C 
ATOM      3  C   UNL     1      32.295 -10.047 -23.072  0.00  0.00    +0.005 C 
ATOM      4  C   UNL     1      32.013 -11.106 -21.975  0.00  0.00    -0.064 C 
ATOM      5  C   UNL     1      34.254 -11.442 -23.891  0.00  0.00    -0.021 C 
ATOM      6  C   UNL     1      33.784 -10.052 -23.469  0.00  0.00    +0.000 C 
ENDROOT
BRANCH   1   7
ATOM      7  N   UNL     1      34.397 -13.802 -23.253  0.00  0.00    +0.394 N 
ATOM      8  N   UNL     1      34.432 -16.495 -23.958  0.00  0.00    -0.299 N 
ATOM      9  N   UNL     1      33.699 -16.213 -25.993  0.00  0.00    -0.136 NA
ATOM     10  N   UNL     1      34.098 -17.531 -25.840  0.00  0.00    -0.125 NA
ATOM     11  C   UNL     1      34.242 -14.800 -22.179  0.00  0.00    -0.052 C 
ATOM     12  C   UNL     1      33.631 -14.194 -24.454  0.00  0.00    -0.009 C 
ATOM     13  C   UNL     1      34.828 -16.152 -22.612  0.00  0.00    +0.086 C 
ATOM     14  C   UNL     1      33.912 -15.600 -24.848  0.00  0.00    +0.122 A 
ATOM     15  C   UNL     1      34.536 -17.678 -24.608  0.00  0.00    +0.238 A 
ATOM     16  H   UNL     1      35.386 -13.763 -23.503  0.00  0.00    -0.079 HD
BRANCH  15  20
ATOM     17  F   UNL     1      36.379 -18.806 -23.581  0.00  0.00    -0.163 F 
ATOM     18  F   UNL     1      34.393 -19.321 -22.876  0.00  0.00    -0.163 F 
ATOM     19  F   UNL     1      35.055 -19.987 -24.838  0.00  0.00    -0.163 F 
ATOM     20  C   UNL     1      35.073 -18.904 -23.995  0.00  0.00    +0.452 C 
ENDBRANCH  15  20
ENDBRANCH   1   7
BRANCH   3  24
ATOM     21  F   UNL     1      31.042  -8.243 -24.869  0.00  0.00    -0.204 F 
ATOM     22  F   UNL     1      31.877  -6.476 -19.761  0.00  0.00    -0.202 F 
ATOM     23  F   UNL     1      30.680  -4.844 -21.597  0.00  0.00    -0.202 F 
ATOM     24  C   UNL     1      31.859  -8.642 -22.677  0.00  0.00    +0.005 C 
ATOM     25  C   UNL     1      31.250  -7.816 -23.616  0.00  0.00    +0.138 C 
ATOM     26  C   UNL     1      32.072  -8.197 -21.376  0.00  0.00    +0.030 C 
ATOM     27  C   UNL     1      31.674  -6.911 -21.011  0.00  0.00    +0.167 C 
ATOM     28  C   UNL     1      30.852  -6.530 -23.250  0.00  0.00    +0.061 C 
ATOM     29  C   UNL     1      31.064  -6.078 -21.949  0.00  0.00    +0.170 C 
ENDBRANCH   3  24
BRANCH   4  30
ATOM     30  N   UNL     1      30.580 -11.167 -21.668  0.00  0.00    +0.382 N 
ATOM     31  H   UNL     1      30.453 -11.318 -20.667  0.00  0.00    -0.089 HD
ATOM     32  H   UNL     1      30.154 -11.936 -22.184  0.00  0.00    -0.089 HD
ATOM     33  H   UNL     1      30.137 -10.289 -21.937  0.00  0.00    -0.089 HD
ENDBRANCH   4  30
TORSDOF 4
ENDMDL
MODEL 3
REMARK VINA RESULT:     -13.3      0.858      1.605
REMARK  Name = 11538992
REMARK  4 active torsions:
REMARK  status: ('A' for Active; 'I' for Inactive)
REMARK    1  A    between atoms: C_1  and  N_7
REMARK    2  A    between atoms: C_3  and  C_24
REMARK    3  A    between atoms: C_4  and  N_30
REMARK    4  A    between atoms: C_15  and  C_20
REMARK                            x       y       z     vdW  Elec       q    Type
REMARK                         _______ _______ _______ _____ _____    ______ ____
ROOT
ATOM      1  C   UNL     1      35.184 -21.879 -19.567  0.00  0.00    -0.059 C 
ATOM      2  C   UNL     1      36.360 -20.897 -19.521  0.00  0.00    -0.042 C 
ATOM      3  C   UNL     1      35.047 -19.257 -20.959  0.00  0.00    +0.005 C 
ATOM      4  C   UNL     1      36.394 -20.002 -20.772  0.00  0.00    -0.064 C 
ATOM      5  C   UNL     1      33.856 -21.137 -19.733  0.00  0.00    -0.021 C 
ATOM      6  C   UNL     1      33.869 -20.250 -20.977  0.00  0.00    +0.000 C 
ENDROOT
BRANCH   1   7
ATOM      7  N   UNL     1      35.155 -22.676 -18.341  0.00  0.00    +0.394 N 
ATOM      8  N   UNL     1      34.885 -23.500 -15.696  0.00  0.00    -0.299 N 
ATOM      9  N   UNL     1      32.740 -23.889 -15.792  0.00  0.00    -0.136 NA
ATOM     10  N   UNL     1      33.227 -24.357 -14.581  0.00  0.00    -0.125 NA
ATOM     11  C   UNL     1      36.114 -22.150 -17.352  0.00  0.00    -0.052 C 
ATOM     12  C   UNL     1      33.787 -22.714 -17.784  0.00  0.00    -0.009 C 
ATOM     13  C   UNL     1      36.196 -23.083 -16.134  0.00  0.00    +0.086 C 
ATOM     14  C   UNL     1      33.756 -23.378 -16.455  0.00  0.00    +0.122 A 
ATOM     15  C   UNL     1      34.519 -24.113 -14.546  0.00  0.00    +0.238 A 
ATOM     16  H   UNL     1      35.434 -23.630 -18.571  0.00  0.00    -0.079 HD
BRANCH  15  20
ATOM     17  F   UNL     1      36.388 -25.401 -13.788  0.00  0.00    -0.163 F 
ATOM     18  F   UNL     1      36.206 -23.382 -13.016  0.00  0.00    -0.163 F 
ATOM     19  F   UNL     1      34.839 -24.931 -12.336  0.00  0.00    -0.163 F 
ATOM     20  C   UNL     1      35.458 -24.445 -13.461  0.00  0.00    +0.452 C 
ENDBRANCH  15  20
ENDBRANCH   1   7
BRANCH   3  24
ATOM     21  F   UNL     1      35.176 -16.423 -20.866  0.00  0.00    -0.204 F 
ATOM     22  F   UNL     1      34.798 -18.729 -25.812  0.00  0.00    -0.202 F 
ATOM     23  F   UNL     1      34.930 -16.010 -25.574  0.00  0.00    -0.202 F 
ATOM     24  C   UNL     1      35.015 -18.379 -22.203  0.00  0.00    +0.005 C 
ATOM     25  C   UNL     1      35.083 -16.995 -22.075  0.00  0.00    +0.138 C 
ATOM     26  C   UNL     1      34.920 -18.969 -23.459  0.00  0.00    +0.030 C 
ATOM     27  C   UNL     1      34.890 -18.167 -24.600  0.00  0.00    +0.167 C 
ATOM     28  C   UNL     1      35.053 -16.194 -23.216  0.00  0.00    +0.061 C 
ATOM     29  C   UNL     1      34.957 -16.779 -24.478  0.00  0.00    +0.170 C 
ENDBRANCH   3  24
BRANCH   4  30
ATOM     30  N   UNL     1      37.504 -19.050 -20.659  0.00  0.00    +0.382 N 
ATOM     31  H   UNL     1      38.106 -19.322 -19.883  0.00  0.00    -0.089 HD
ATOM     32  H   UNL     1      37.133 -18.115 -20.491  0.00  0.00    -0.089 HD
ATOM     33  H   UNL     1      38.043 -19.052 -21.525  0.00  0.00    -0.089 HD
ENDBRANCH   4  30
TORSDOF 4
ENDMDL
MODEL 4
REMARK VINA RESULT:     -13.2      7.061     11.111
REMARK  Name = 11538992
REMARK  4 active torsions:
REMARK  status: ('A' for Active; 'I' for Inactive)
REMARK    1  A    between atoms: C_1  and  N_7
REMARK    2  A    between atoms: C_3  and  C_24
REMARK    3  A    between atoms: C_4  and  N_30
REMARK    4  A    between atoms: C_15  and  C_20
REMARK                            x       y       z     vdW  Elec       q    Type
REMARK                         _______ _______ _______ _____ _____    ______ ____
ROOT
ATOM      1  C   UNL     1      33.232 -12.052 -23.696  0.00  0.00    -0.059 C 
ATOM      2  C   UNL     1      34.284 -10.940 -23.766  0.00  0.00    -0.042 C 
ATOM      3  C   UNL     1      32.853  -9.490 -22.239  0.00  0.00    +0.005 C 
ATOM      4  C   UNL     1      33.649  -9.552 -23.569  0.00  0.00    -0.064 C 
ATOM      5  C   UNL     1      32.462 -11.997 -22.374  0.00  0.00    -0.021 C 
ATOM      6  C   UNL     1      31.817 -10.628 -22.166  0.00  0.00    +0.000 C 
ENDROOT
BRANCH   1   7
ATOM      7  N   UNL     1      33.879 -13.356 -23.837  0.00  0.00    +0.394 N 
ATOM      8  N   UNL     1      34.365 -16.090 -24.036  0.00  0.00    -0.299 N 
ATOM      9  N   UNL     1      33.995 -16.237 -26.181  0.00  0.00    -0.136 NA
ATOM     10  N   UNL     1      34.512 -17.442 -25.732  0.00  0.00    -0.125 NA
ATOM     11  C   UNL     1      33.647 -14.188 -22.642  0.00  0.00    -0.052 C 
ATOM     12  C   UNL     1      33.401 -14.038 -25.058  0.00  0.00    -0.009 C 
ATOM     13  C   UNL     1      34.460 -15.489 -22.726  0.00  0.00    +0.086 C 
ATOM     14  C   UNL     1      33.916 -15.430 -25.144  0.00  0.00    +0.122 A 
ATOM     15  C   UNL     1      34.729 -17.330 -24.439  0.00  0.00    +0.238 A 
ATOM     16  H   UNL     1      34.885 -13.209 -23.925  0.00  0.00    -0.079 HD
BRANCH  15  20
ATOM     17  F   UNL     1      36.526 -18.051 -23.033  0.00  0.00    -0.163 F 
ATOM     18  F   UNL     1      34.518 -18.603 -22.425  0.00  0.00    -0.163 F 
ATOM     19  F   UNL     1      35.441 -19.578 -24.137  0.00  0.00    -0.163 F 
ATOM     20  C   UNL     1      35.284 -18.353 -23.538  0.00  0.00    +0.452 C 
ENDBRANCH  15  20
ENDBRANCH   1   7
BRANCH   3  24
ATOM     21  F   UNL     1      31.162  -8.248 -24.151  0.00  0.00    -0.204 F 
ATOM     22  F   UNL     1      31.953  -5.586 -19.440  0.00  0.00    -0.202 F 
ATOM     23  F   UNL     1      30.348  -4.507 -21.370  0.00  0.00    -0.202 F 
ATOM     24  C   UNL     1      32.177  -8.145 -22.008  0.00  0.00    +0.005 C 
ATOM     25  C   UNL     1      31.361  -7.601 -22.995  0.00  0.00    +0.138 C 
ATOM     26  C   UNL     1      32.380  -7.471 -20.808  0.00  0.00    +0.030 C 
ATOM     27  C   UNL     1      31.762  -6.240 -20.592  0.00  0.00    +0.167 C 
ATOM     28  C   UNL     1      30.743  -6.370 -22.779  0.00  0.00    +0.061 C 
ATOM     29  C   UNL     1      30.943  -5.689 -21.579  0.00  0.00    +0.170 C 
ENDBRANCH   3  24
BRANCH   4  30
ATOM     30  N   UNL     1      34.699  -8.528 -23.595  0.00  0.00    +0.382 N 
ATOM     31  H   UNL     1      35.150  -8.482 -22.682  0.00  0.00    -0.089 HD
ATOM     32  H   UNL     1      34.285  -7.623 -23.816  0.00  0.00    -0.089 HD
ATOM     33  H   UNL     1      35.391  -8.769 -24.305  0.00  0.00    -0.089 HD
ENDBRANCH   4  30
TORSDOF 4
ENDMDL
MODEL 5
REMARK VINA RESULT:     -12.5      6.781     10.655
REMARK  Name = 11538992
REMARK  4 active torsions:
REMARK  status: ('A' for Active; 'I' for Inactive)
REMARK    1  A    between atoms: C_1  and  N_7
REMARK    2  A    between atoms: C_3  and  C_24
REMARK    3  A    between atoms: C_4  and  N_30
REMARK    4  A    between atoms: C_15  and  C_20
REMARK                            x       y       z     vdW  Elec       q    Type
REMARK                         _______ _______ _______ _____ _____    ______ ____
ROOT
ATOM      1  C   UNL     1      33.426 -12.700 -22.390  0.00  0.00    -0.059 C 
ATOM      2  C   UNL     1      32.113 -12.423 -21.651  0.00  0.00    -0.042 C 
ATOM      3  C   UNL     1      32.035 -10.089 -22.666  0.00  0.00    +0.005 C 
ATOM      4  C   UNL     1      31.938 -10.922 -21.362  0.00  0.00    -0.064 C 
ATOM      5  C   UNL     1      33.508 -11.890 -23.687  0.00  0.00    -0.021 C 
ATOM      6  C   UNL     1      33.346 -10.396 -23.417  0.00  0.00    +0.000 C 
ENDROOT
BRANCH   1   7
ATOM      7  N   UNL     1      33.533 -14.128 -22.692  0.00  0.00    +0.394 N 
ATOM      8  N   UNL     1      34.480 -16.637 -23.438  0.00  0.00    -0.299 N 
ATOM      9  N   UNL     1      35.299 -17.167 -21.487  0.00  0.00    -0.136 NA
ATOM     10  N   UNL     1      35.349 -18.280 -22.310  0.00  0.00    -0.125 NA
ATOM     11  C   UNL     1      33.892 -14.339 -24.107  0.00  0.00    -0.052 C 
ATOM     12  C   UNL     1      34.516 -14.771 -21.795  0.00  0.00    -0.009 C 
ATOM     13  C   UNL     1      33.844 -15.834 -24.456  0.00  0.00    +0.086 C 
ATOM     14  C   UNL     1      34.767 -16.184 -22.182  0.00  0.00    +0.122 A 
ATOM     15  C   UNL     1      34.850 -17.938 -23.479  0.00  0.00    +0.238 A 
ATOM     16  H   UNL     1      32.623 -14.560 -22.532  0.00  0.00    -0.079 HD
BRANCH  15  20
ATOM     17  F   UNL     1      35.274 -20.036 -24.548  0.00  0.00    -0.163 F 
ATOM     18  F   UNL     1      33.383 -19.070 -24.992  0.00  0.00    -0.163 F 
ATOM     19  F   UNL     1      35.232 -18.261 -25.803  0.00  0.00    -0.163 F 
ATOM     20  C   UNL     1      34.689 -18.798 -24.663  0.00  0.00    +0.452 C 
ENDBRANCH  15  20
ENDBRANCH   1   7
BRANCH   3  24
ATOM     21  F   UNL     1      30.948  -8.308 -24.590  0.00  0.00    -0.204 F 
ATOM     22  F   UNL     1      32.598  -6.135 -19.850  0.00  0.00    -0.202 F 
ATOM     23  F   UNL     1      31.532  -4.536 -21.793  0.00  0.00    -0.202 F 
ATOM     24  C   UNL     1      31.898  -8.591 -22.434  0.00  0.00    +0.005 C 
ATOM     25  C   UNL     1      31.355  -7.782 -23.427  0.00  0.00    +0.138 C 
ATOM     26  C   UNL     1      32.319  -8.042 -21.226  0.00  0.00    +0.030 C 
ATOM     27  C   UNL     1      32.195  -6.670 -21.009  0.00  0.00    +0.167 C 
ATOM     28  C   UNL     1      31.232  -6.410 -23.210  0.00  0.00    +0.061 C 
ATOM     29  C   UNL     1      31.652  -5.854 -22.002  0.00  0.00    +0.170 C 
ENDBRANCH   3  24
BRANCH   4  30
ATOM     30  N   UNL     1      30.648 -10.701 -20.699  0.00  0.00    +0.382 N 
ATOM     31  H   UNL     1      29.899 -10.747 -21.390  0.00  0.00    -0.089 HD
ATOM     32  H   UNL     1      30.646  -9.783 -20.256  0.00  0.00    -0.089 HD
ATOM     33  H   UNL     1      30.502 -11.421 -19.991  0.00  0.00    -0.089 HD
ENDBRANCH   4  30
TORSDOF 4
ENDMDL
MODEL 6
REMARK VINA RESULT:     -12.5      6.849     10.893
REMARK  Name = 11538992
REMARK  4 active torsions:
REMARK  status: ('A' for Active; 'I' for Inactive)
REMARK    1  A    between atoms: C_1  and  N_7
REMARK    2  A    between atoms: C_3  and  C_24
REMARK    3  A    between atoms: C_4  and  N_30
REMARK    4  A    between atoms: C_15  and  C_20
REMARK                            x       y       z     vdW  Elec       q    Type
REMARK                         _______ _______ _______ _____ _____    ______ ____
ROOT
ATOM      1  C   UNL     1      32.399 -12.300 -23.086  0.00  0.00    -0.059 C 
ATOM      2  C   UNL     1      33.571 -11.373 -23.422  0.00  0.00    -0.042 C 
ATOM      3  C   UNL     1      32.479  -9.506 -22.079  0.00  0.00    +0.005 C 
ATOM      4  C   UNL     1      33.136  -9.897 -23.428  0.00  0.00    -0.064 C 
ATOM      5  C   UNL     1      31.766 -11.922 -21.745  0.00  0.00    -0.021 C 
ATOM      6  C   UNL     1      31.319 -10.461 -21.737  0.00  0.00    +0.000 C 
ENDROOT
BRANCH   1   7
ATOM      7  N   UNL     1      32.861 -13.687 -23.040  0.00  0.00    +0.394 N 
ATOM      8  N   UNL     1      34.447 -15.975 -22.995  0.00  0.00    -0.299 N 
ATOM      9  N   UNL     1      34.803 -15.969 -20.843  0.00  0.00    -0.136 NA
ATOM     10  N   UNL     1      35.289 -17.154 -21.374  0.00  0.00    -0.125 NA
ATOM     11  C   UNL     1      33.618 -14.028 -24.259  0.00  0.00    -0.052 C 
ATOM     12  C   UNL     1      33.676 -13.919 -21.829  0.00  0.00    -0.009 C 
ATOM     13  C   UNL     1      33.961 -15.525 -24.278  0.00  0.00    +0.086 C 
ATOM     14  C   UNL     1      34.294 -15.271 -21.836  0.00  0.00    +0.122 A 
ATOM     15  C   UNL     1      35.062 -17.136 -22.670  0.00  0.00    +0.238 A 
ATOM     16  H   UNL     1      32.045 -14.298 -22.999  0.00  0.00    -0.079 HD
BRANCH  15  20
ATOM     17  F   UNL     1      34.503 -19.230 -23.682  0.00  0.00    -0.163 F 
ATOM     18  F   UNL     1      35.460 -17.751 -24.947  0.00  0.00    -0.163 F 
ATOM     19  F   UNL     1      36.613 -18.777 -23.415  0.00  0.00    -0.163 F 
ATOM     20  C   UNL     1      35.396 -18.187 -23.646  0.00  0.00    +0.452 C 
ENDBRANCH  15  20
ENDBRANCH   1   7
BRANCH   3  24
ATOM     21  F   UNL     1      32.421  -7.948 -19.708  0.00  0.00    -0.204 F 
ATOM     22  F   UNL     1      30.709  -5.532 -24.307  0.00  0.00    -0.202 F 
ATOM     23  F   UNL     1      30.707  -4.149 -21.950  0.00  0.00    -0.202 F 
ATOM     24  C   UNL     1      32.001  -8.061 -22.041  0.00  0.00    +0.005 C 
ATOM     25  C   UNL     1      32.002  -7.362 -20.838  0.00  0.00    +0.138 C 
ATOM     26  C   UNL     1      31.567  -7.450 -23.213  0.00  0.00    +0.030 C 
ATOM     27  C   UNL     1      31.128  -6.126 -23.183  0.00  0.00    +0.167 C 
ATOM     28  C   UNL     1      31.564  -6.038 -20.808  0.00  0.00    +0.061 C 
ATOM     29  C   UNL     1      31.127  -5.421 -21.979  0.00  0.00    +0.170 C 
ENDBRANCH   3  24
BRANCH   4  30
ATOM     30  N   UNL     1      34.299  -9.048 -23.705  0.00  0.00    +0.382 N 
ATOM     31  H   UNL     1      34.483  -8.450 -22.899  0.00  0.00    -0.089 HD
ATOM     32  H   UNL     1      34.110  -8.468 -24.522  0.00  0.00    -0.089 HD
ATOM     33  H   UNL     1      35.114  -9.635 -23.885  0.00  0.00    -0.089 HD
ENDBRANCH   4  30
TORSDOF 4
ENDMDL
MODEL 7
REMARK VINA RESULT:     -12.4      7.117     12.343
REMARK  Name = 11538992
REMARK  4 active torsions:
REMARK  status: ('A' for Active; 'I' for Inactive)
REMARK    1  A    between atoms: C_1  and  N_7
REMARK    2  A    between atoms: C_3  and  C_24
REMARK    3  A    between atoms: C_4  and  N_30
REMARK    4  A    between atoms: C_15  and  C_20
REMARK                            x       y       z     vdW  Elec       q    Type
REMARK                         _______ _______ _______ _____ _____    ______ ____
ROOT
ATOM      1  C   UNL     1      32.447 -12.120 -22.687  0.00  0.00    -0.059 C 
ATOM      2  C   UNL     1      32.391 -13.001 -21.434  0.00  0.00    -0.042 C 
ATOM      3  C   UNL     1      34.154 -14.540 -22.436  0.00  0.00    +0.005 C 
ATOM      4  C   UNL     1      32.764 -14.458 -21.754  0.00  0.00    -0.064 C 
ATOM      5  C   UNL     1      33.828 -12.190 -23.345  0.00  0.00    -0.021 C 
ATOM      6  C   UNL     1      34.210 -13.630 -23.679  0.00  0.00    +0.000 C 
ENDROOT
BRANCH   1   7
ATOM      7  N   UNL     1      32.137 -10.735 -22.334  0.00  0.00    +0.394 N 
ATOM      8  N   UNL     1      32.292  -8.116 -21.402  0.00  0.00    -0.299 N 
ATOM      9  N   UNL     1      33.166  -7.275 -23.216  0.00  0.00    -0.136 NA
ATOM     10  N   UNL     1      32.823  -6.239 -22.362  0.00  0.00    -0.125 NA
ATOM     11  C   UNL     1      32.258 -10.525 -20.880  0.00  0.00    -0.052 C 
ATOM     12  C   UNL     1      33.013  -9.806 -23.078  0.00  0.00    -0.009 C 
ATOM     13  C   UNL     1      31.776  -9.117 -20.498  0.00  0.00    +0.086 C 
ATOM     14  C   UNL     1      32.835  -8.402 -22.622  0.00  0.00    +0.122 A 
ATOM     15  C   UNL     1      32.297  -6.769 -21.278  0.00  0.00    +0.238 A 
ATOM     16  H   UNL     1      31.170 -10.544 -22.599  0.00  0.00    -0.079 HD
BRANCH  15  20
ATOM     17  F   UNL     1      31.233  -6.868 -19.137  0.00  0.00    -0.163 F 
ATOM     18  F   UNL     1      32.718  -5.313 -19.427  0.00  0.00    -0.163 F 
ATOM     19  F   UNL     1      30.781  -5.160 -20.404  0.00  0.00    -0.163 F 
ATOM     20  C   UNL     1      31.777  -6.053 -20.101  0.00  0.00    +0.452 C 
ENDBRANCH  15  20
ENDBRANCH   1   7
BRANCH   3  24
ATOM     21  F   UNL     1      35.246 -16.378 -20.570  0.00  0.00    -0.204 F 
ATOM     22  F   UNL     1      34.613 -18.140 -25.709  0.00  0.00    -0.202 F 
ATOM     23  F   UNL     1      35.653 -19.805 -23.808  0.00  0.00    -0.202 F 
ATOM     24  C   UNL     1      34.560 -15.961 -22.804  0.00  0.00    +0.005 C 
ATOM     25  C   UNL     1      35.089 -16.804 -21.831  0.00  0.00    +0.138 C 
ATOM     26  C   UNL     1      34.397 -16.405 -24.111  0.00  0.00    +0.030 C 
ATOM     27  C   UNL     1      34.768 -17.706 -24.452  0.00  0.00    +0.167 C 
ATOM     28  C   UNL     1      35.459 -18.104 -22.172  0.00  0.00    +0.061 C 
ATOM     29  C   UNL     1      35.299 -18.555 -23.481  0.00  0.00    +0.170 C 
ENDBRANCH   3  24
BRANCH   4  30
ATOM     30  N   UNL     1      32.743 -15.248 -20.519  0.00  0.00    +0.382 N 
ATOM     31  H   UNL     1      32.114 -16.042 -20.634  0.00  0.00    -0.089 HD
ATOM     32  H   UNL     1      32.418 -14.666 -19.748  0.00  0.00    -0.089 HD
ATOM     33  H   UNL     1      33.684 -15.587 -20.317  0.00  0.00    -0.089 HD
ENDBRANCH   4  30
TORSDOF 4
ENDMDL
MODEL 8
REMARK VINA RESULT:     -12.3      1.478      1.862
REMARK  Name = 11538992
REMARK  4 active torsions:
REMARK  status: ('A' for Active; 'I' for Inactive)
REMARK    1  A    between atoms: C_1  and  N_7
REMARK    2  A    between atoms: C_3  and  C_24
REMARK    3  A    between atoms: C_4  and  N_30
REMARK    4  A    between atoms: C_15  and  C_20
REMARK                            x       y       z     vdW  Elec       q    Type
REMARK                         _______ _______ _______ _____ _____    ______ ____
ROOT
ATOM      1  C   UNL     1      36.066 -20.948 -18.940  0.00  0.00    -0.059 C 
ATOM      2  C   UNL     1      34.721 -21.213 -19.625  0.00  0.00    -0.042 C 
ATOM      3  C   UNL     1      35.496 -19.891 -21.658  0.00  0.00    +0.005 C 
ATOM      4  C   UNL     1      34.365 -20.092 -20.617  0.00  0.00    -0.064 C 
ATOM      5  C   UNL     1      37.182 -20.769 -19.972  0.00  0.00    -0.021 C 
ATOM      6  C   UNL     1      36.849 -19.652 -20.959  0.00  0.00    +0.000 C 
ENDROOT
BRANCH   1   7
ATOM      7  N   UNL     1      36.394 -22.057 -18.045  0.00  0.00    +0.394 N 
ATOM      8  N   UNL     1      36.726 -23.671 -15.800  0.00  0.00    -0.299 N 
ATOM      9  N   UNL     1      34.712 -24.509 -15.816  0.00  0.00    -0.136 NA
ATOM     10  N   UNL     1      35.472 -25.187 -14.876  0.00  0.00    -0.125 NA
ATOM     11  C   UNL     1      37.381 -21.639 -17.033  0.00  0.00    -0.052 C 
ATOM     12  C   UNL     1      35.169 -22.581 -17.404  0.00  0.00    -0.009 C 
ATOM     13  C   UNL     1      37.842 -22.845 -16.200  0.00  0.00    +0.086 C 
ATOM     14  C   UNL     1      35.486 -23.599 -16.368  0.00  0.00    +0.122 A 
ATOM     15  C   UNL     1      36.681 -24.667 -14.885  0.00  0.00    +0.238 A 
ATOM     16  H   UNL     1      36.811 -22.806 -18.598  0.00  0.00    -0.079 HD
BRANCH  15  20
ATOM     17  F   UNL     1      38.952 -25.410 -14.780  0.00  0.00    -0.163 F 
ATOM     18  F   UNL     1      38.266 -24.112 -13.182  0.00  0.00    -0.163 F 
ATOM     19  F   UNL     1      37.577 -26.173 -13.279  0.00  0.00    -0.163 F 
ATOM     20  C   UNL     1      37.831 -25.075 -14.061  0.00  0.00    +0.452 C 
ENDBRANCH  15  20
ENDBRANCH   1   7
BRANCH   3  24
ATOM     21  F   UNL     1      35.062 -20.334 -24.428  0.00  0.00    -0.204 F 
ATOM     22  F   UNL     1      34.827 -15.158 -22.675  0.00  0.00    -0.202 F 
ATOM     23  F   UNL     1      34.429 -15.729 -25.318  0.00  0.00    -0.202 F 
ATOM     24  C   UNL     1      35.209 -18.770 -22.648  0.00  0.00    +0.005 C 
ATOM     25  C   UNL     1      35.007 -19.068 -23.992  0.00  0.00    +0.138 C 
ATOM     26  C   UNL     1      35.149 -17.455 -22.198  0.00  0.00    +0.030 C 
ATOM     27  C   UNL     1      34.886 -16.426 -23.101  0.00  0.00    +0.167 C 
ATOM     28  C   UNL     1      34.743 -18.038 -24.895  0.00  0.00    +0.061 C 
ATOM     29  C   UNL     1      34.683 -16.718 -24.451  0.00  0.00    +0.170 C 
ENDBRANCH   3  24
BRANCH   4  30
ATOM     30  N   UNL     1      33.098 -20.415 -21.281  0.00  0.00    +0.382 N 
ATOM     31  H   UNL     1      32.321 -20.084 -20.710  0.00  0.00    -0.089 HD
ATOM     32  H   UNL     1      33.025 -21.425 -21.402  0.00  0.00    -0.089 HD
ATOM     33  H   UNL     1      33.067 -19.960 -22.194  0.00  0.00    -0.089 HD
ENDBRANCH   4  30
TORSDOF 4
ENDMDL
MODEL 9
REMARK VINA RESULT:     -12.2      6.986     12.240
REMARK  Name = 11538992
REMARK  4 active torsions:
REMARK  status: ('A' for Active; 'I' for Inactive)
REMARK    1  A    between atoms: C_1  and  N_7
REMARK    2  A    between atoms: C_3  and  C_24
REMARK    3  A    between atoms: C_4  and  N_30
REMARK    4  A    between atoms: C_15  and  C_20
REMARK                            x       y       z     vdW  Elec       q    Type
REMARK                         _______ _______ _______ _____ _____    ______ ____
ROOT
ATOM      1  C   UNL     1      32.442 -12.182 -22.868  0.00  0.00    -0.059 C 
ATOM      2  C   UNL     1      32.635 -13.062 -21.629  0.00  0.00    -0.042 C 
ATOM      3  C   UNL     1      34.221 -14.561 -22.941  0.00  0.00    +0.005 C 
ATOM      4  C   UNL     1      32.977 -14.511 -22.016  0.00  0.00    -0.064 C 
ATOM      5  C   UNL     1      33.680 -12.220 -23.767  0.00  0.00    -0.021 C 
ATOM      6  C   UNL     1      34.027 -13.652 -24.170  0.00  0.00    +0.000 C 
ENDROOT
BRANCH   1   7
ATOM      7  N   UNL     1      32.170 -10.804 -22.460  0.00  0.00    +0.394 N 
ATOM      8  N   UNL     1      32.384  -8.240 -21.394  0.00  0.00    -0.299 N 
ATOM      9  N   UNL     1      33.362  -7.349 -23.129  0.00  0.00    -0.136 NA
ATOM     10  N   UNL     1      33.023  -6.342 -22.239  0.00  0.00    -0.125 NA
ATOM     11  C   UNL     1      32.239 -10.668 -20.993  0.00  0.00    -0.052 C 
ATOM     12  C   UNL     1      33.110  -9.875 -23.122  0.00  0.00    -0.009 C 
ATOM     13  C   UNL     1      31.795  -9.262 -20.562  0.00  0.00    +0.086 C 
ATOM     14  C   UNL     1      32.965  -8.489 -22.605  0.00  0.00    +0.122 A 
ATOM     15  C   UNL     1      32.435  -6.902 -21.204  0.00  0.00    +0.238 A 
ATOM     16  H   UNL     1      31.222 -10.562 -22.752  0.00  0.00    -0.079 HD
BRANCH  15  20
ATOM     17  F   UNL     1      30.822  -5.403 -20.268  0.00  0.00    -0.163 F 
ATOM     18  F   UNL     1      31.444  -7.074 -19.034  0.00  0.00    -0.163 F 
ATOM     19  F   UNL     1      32.808  -5.417 -19.385  0.00  0.00    -0.163 F 
ATOM     20  C   UNL     1      31.894  -6.223 -20.014  0.00  0.00    +0.452 C 
ENDBRANCH  15  20
ENDBRANCH   1   7
BRANCH   3  24
ATOM     21  F   UNL     1      33.223 -15.758 -25.313  0.00  0.00    -0.204 F 
ATOM     22  F   UNL     1      36.616 -18.766 -22.254  0.00  0.00    -0.202 F 
ATOM     23  F   UNL     1      35.579 -19.793 -24.565  0.00  0.00    -0.202 F 
ATOM     24  C   UNL     1      34.585 -15.973 -23.381  0.00  0.00    +0.005 C 
ATOM     25  C   UNL     1      34.054 -16.490 -24.558  0.00  0.00    +0.138 C 
ATOM     26  C   UNL     1      35.449 -16.734 -22.601  0.00  0.00    +0.030 C 
ATOM     27  C   UNL     1      35.785 -18.027 -23.001  0.00  0.00    +0.167 C 
ATOM     28  C   UNL     1      34.391 -17.783 -24.958  0.00  0.00    +0.061 C 
ATOM     29  C   UNL     1      35.255 -18.551 -24.180  0.00  0.00    +0.170 C 
ENDBRANCH   3  24
BRANCH   4  30
ATOM     30  N   UNL     1      33.201 -15.300 -20.801  0.00  0.00    +0.382 N 
ATOM     31  H   UNL     1      32.653 -14.908 -20.035  0.00  0.00    -0.089 HD
ATOM     32  H   UNL     1      34.190 -15.276 -20.557  0.00  0.00    -0.089 HD
ATOM     33  H   UNL     1      32.914 -16.265 -20.964  0.00  0.00    -0.089 HD
ENDBRANCH   4  30
TORSDOF 4
ENDMDL
