MODEL 1
REMARK VINA RESULT:     -13.9      0.000      0.000
REMARK  Name = 23635314
REMARK  9 active torsions:
REMARK  status: ('A' for Active; 'I' for Inactive)
REMARK    1  A    between atoms: C_2  and  C_8
REMARK    2  A    between atoms: C_3  and  C_23
REMARK    3  A    between atoms: C_7  and  O_13
REMARK    4  A    between atoms: O_13  and  C_14
REMARK    5  A    between atoms: C_14  and  C_15
REMARK    6  A    between atoms: C_15  and  N_17
REMARK    7  A    between atoms: C_23  and  C_26
REMARK    8  A    between atoms: N_25  and  C_28
REMARK    9  A    between atoms: C_28  and  C_29
REMARK                            x       y       z     vdW  Elec       q    Type
REMARK                         _______ _______ _______ _____ _____    ______ ____
ROOT
ATOM      1  N   UNL     1      35.292 -17.100 -23.125  0.00  0.00    -0.248 NA
ATOM      2  C   UNL     1      35.151 -19.329 -22.203  0.00  0.00    +0.019 C 
ATOM      3  C   UNL     1      35.064 -17.642 -24.343  0.00  0.00    +0.068 C 
ATOM      4  C   UNL     1      34.920 -19.849 -23.471  0.00  0.00    +0.003 C 
ATOM      5  C   UNL     1      35.329 -17.961 -22.083  0.00  0.00    +0.098 C 
ATOM      6  C   UNL     1      34.875 -18.995 -24.567  0.00  0.00    +0.015 C 
ENDROOT
BRANCH   2   8
ATOM      7  C   UNL     1      35.307 -21.847 -18.812  0.00  0.00    +0.138 C 
ATOM      8  C   UNL     1      35.204 -20.191 -21.043  0.00  0.00    +0.002 C 
ATOM      9  C   UNL     1      34.080 -21.549 -19.392  0.00  0.00    +0.037 C 
ATOM     10  C   UNL     1      36.485 -21.324 -19.336  0.00  0.00    +0.037 C 
ATOM     11  C   UNL     1      34.028 -20.718 -20.511  0.00  0.00    +0.003 C 
ATOM     12  C   UNL     1      36.432 -20.494 -20.455  0.00  0.00    +0.003 C 
BRANCH   7  13
ATOM     13  O   UNL     1      35.358 -22.663 -17.712  0.00  0.00    -0.478 OA
BRANCH  13  14
ATOM     14  C   UNL     1      36.447 -22.466 -16.818  0.00  0.00    +0.183 C 
BRANCH  14  15
ATOM     15  C   UNL     1      36.185 -23.259 -15.548  0.00  0.00    -0.029 C 
BRANCH  15  17
ATOM     16  O   UNL     1      37.945 -26.856 -14.292  0.00  0.00    -0.358 OA
ATOM     17  N   UNL     1      36.955 -24.501 -15.547  0.00  0.00    +0.393 N 
ATOM     18  C   UNL     1      38.034 -24.445 -14.550  0.00  0.00    -0.044 C 
ATOM     19  C   UNL     1      36.085 -25.655 -15.283  0.00  0.00    -0.044 C 
ATOM     20  C   UNL     1      38.816 -25.756 -14.560  0.00  0.00    +0.119 C 
ATOM     21  C   UNL     1      36.912 -26.937 -15.275  0.00  0.00    +0.119 C 
ATOM     22  H   UNL     1      37.372 -24.611 -16.471  0.00  0.00    -0.079 HD
ENDBRANCH  15  17
ENDBRANCH  14  15
ENDBRANCH  13  14
ENDBRANCH   7  13
ENDBRANCH   2   8
BRANCH   3  23
ATOM     23  C   UNL     1      35.023 -16.696 -25.497  0.00  0.00    +0.131 C 
BRANCH  23  26
ATOM     24  O   UNL     1      32.825 -16.008 -26.247  0.00  0.00    -0.275 OA
ATOM     25  N   UNL     1      33.899 -14.749 -24.619  0.00  0.00    -0.300 N 
ATOM     26  C   UNL     1      33.790 -15.804 -25.515  0.00  0.00    +0.229 C 
ATOM     27  H   UNL     1      34.717 -14.674 -24.075  0.00  0.00    +0.150 HD
BRANCH  25  28
ATOM     28  C   UNL     1      32.861 -13.760 -24.452  0.00  0.00    +0.116 C 
BRANCH  28  29
ATOM     29  C   UNL     1      32.638 -13.420 -23.006  0.00  0.00    -0.003 C 
ATOM     30  C   UNL     1      32.939 -14.357 -22.025  0.00  0.00    -0.003 C 
ATOM     31  C   UNL     1      32.132 -12.171 -22.664  0.00  0.00    -0.003 C 
ATOM     32  C   UNL     1      32.732 -14.041 -20.682  0.00  0.00    -0.000 C 
ATOM     33  C   UNL     1      31.925 -11.855 -21.321  0.00  0.00    -0.000 C 
ATOM     34  C   UNL     1      32.224 -12.791 -20.330  0.00  0.00    -0.000 C 
ENDBRANCH  28  29
ENDBRANCH  25  28
ENDBRANCH  23  26
ENDBRANCH   3  23
TORSDOF 9
ENDMDL
MODEL 2
REMARK VINA RESULT:     -13.9      0.516      1.277
REMARK  Name = 23635314
REMARK  9 active torsions:
REMARK  status: ('A' for Active; 'I' for Inactive)
REMARK    1  A    between atoms: C_2  and  C_8
REMARK    2  A    between atoms: C_3  and  C_23
REMARK    3  A    between atoms: C_7  and  O_13
REMARK    4  A    between atoms: O_13  and  C_14
REMARK    5  A    between atoms: C_14  and  C_15
REMARK    6  A    between atoms: C_15  and  N_17
REMARK    7  A    between atoms: C_23  and  C_26
REMARK    8  A    between atoms: N_25  and  C_28
REMARK    9  A    between atoms: C_28  and  C_29
REMARK                            x       y       z     vdW  Elec       q    Type
REMARK                         _______ _______ _______ _____ _____    ______ ____
ROOT
ATOM      1  N   UNL     1      35.329 -17.159 -22.857  0.00  0.00    -0.248 NA
ATOM      2  C   UNL     1      34.990 -19.407 -22.039  0.00  0.00    +0.019 C 
ATOM      3  C   UNL     1      35.103 -17.631 -24.104  0.00  0.00    +0.068 C 
ATOM      4  C   UNL     1      34.764 -19.855 -23.335  0.00  0.00    +0.003 C 
ATOM      5  C   UNL     1      35.266 -18.062 -21.853  0.00  0.00    +0.098 C 
ATOM      6  C   UNL     1      34.820 -18.956 -24.393  0.00  0.00    +0.015 C 
ENDROOT
BRANCH   2   8
ATOM      7  C   UNL     1      34.839 -22.068 -18.759  0.00  0.00    +0.138 C 
ATOM      8  C   UNL     1      34.938 -20.317 -20.916  0.00  0.00    +0.002 C 
ATOM      9  C   UNL     1      36.070 -21.643 -19.244  0.00  0.00    +0.037 C 
ATOM     10  C   UNL     1      33.656 -21.627 -19.342  0.00  0.00    +0.037 C 
ATOM     11  C   UNL     1      36.120 -20.765 -20.326  0.00  0.00    +0.003 C 
ATOM     12  C   UNL     1      33.707 -20.749 -20.424  0.00  0.00    +0.003 C 
BRANCH   7  13
ATOM     13  O   UNL     1      34.789 -22.932 -17.696  0.00  0.00    -0.478 OA
BRANCH  13  14
ATOM     14  C   UNL     1      35.779 -22.766 -16.689  0.00  0.00    +0.183 C 
BRANCH  14  15
ATOM     15  C   UNL     1      35.295 -23.434 -15.413  0.00  0.00    -0.029 C 
BRANCH  15  17
ATOM     16  O   UNL     1      38.408 -26.239 -15.168  0.00  0.00    -0.358 OA
ATOM     17  N   UNL     1      36.321 -24.326 -14.876  0.00  0.00    +0.393 N 
ATOM     18  C   UNL     1      36.038 -25.723 -15.235  0.00  0.00    -0.044 C 
ATOM     19  C   UNL     1      37.654 -23.941 -15.360  0.00  0.00    -0.044 C 
ATOM     20  C   UNL     1      37.127 -26.632 -14.673  0.00  0.00    +0.119 C 
ATOM     21  C   UNL     1      38.705 -24.893 -14.796  0.00  0.00    +0.119 C 
ATOM     22  H   UNL     1      36.306 -24.242 -13.859  0.00  0.00    -0.079 HD
ENDBRANCH  15  17
ENDBRANCH  14  15
ENDBRANCH  13  14
ENDBRANCH   7  13
ENDBRANCH   2   8
BRANCH   3  23
ATOM     23  C   UNL     1      35.173 -16.638 -25.217  0.00  0.00    +0.131 C 
BRANCH  23  26
ATOM     24  O   UNL     1      33.044 -16.015 -26.190  0.00  0.00    -0.275 OA
ATOM     25  N   UNL     1      33.896 -14.740 -24.447  0.00  0.00    -0.300 N 
ATOM     26  C   UNL     1      33.919 -15.787 -25.358  0.00  0.00    +0.229 C 
ATOM     27  H   UNL     1      34.648 -14.644 -23.819  0.00  0.00    +0.150 HD
BRANCH  25  28
ATOM     28  C   UNL     1      32.812 -13.788 -24.383  0.00  0.00    +0.116 C 
BRANCH  28  29
ATOM     29  C   UNL     1      32.565 -13.312 -22.981  0.00  0.00    -0.003 C 
ATOM     30  C   UNL     1      32.775 -14.179 -21.914  0.00  0.00    -0.003 C 
ATOM     31  C   UNL     1      32.130 -12.010 -22.763  0.00  0.00    -0.003 C 
ATOM     32  C   UNL     1      32.546 -13.737 -20.611  0.00  0.00    -0.000 C 
ATOM     33  C   UNL     1      31.900 -11.569 -21.459  0.00  0.00    -0.000 C 
ATOM     34  C   UNL     1      32.108 -12.433 -20.383  0.00  0.00    -0.000 C 
ENDBRANCH  28  29
ENDBRANCH  25  28
ENDBRANCH  23  26
ENDBRANCH   3  23
TORSDOF 9
ENDMDL
MODEL 3
REMARK VINA RESULT:     -13.8      2.434      3.204
REMARK  Name = 23635314
REMARK  9 active torsions:
REMARK  status: ('A' for Active; 'I' for Inactive)
REMARK    1  A    between atoms: C_2  and  C_8
REMARK    2  A    between atoms: C_3  and  C_23
REMARK    3  A    between atoms: C_7  and  O_13
REMARK    4  A    between atoms: O_13  and  C_14
REMARK    5  A    between atoms: C_14  and  C_15
REMARK    6  A    between atoms: C_15  and  N_17
REMARK    7  A    between atoms: C_23  and  C_26
REMARK    8  A    between atoms: N_25  and  C_28
REMARK    9  A    between atoms: C_28  and  C_29
REMARK                            x       y       z     vdW  Elec       q    Type
REMARK                         _______ _______ _______ _____ _____    ______ ____
ROOT
ATOM      1  N   UNL     1      35.282 -17.126 -22.950  0.00  0.00    -0.248 NA
ATOM      2  C   UNL     1      34.952 -19.380 -22.149  0.00  0.00    +0.019 C 
ATOM      3  C   UNL     1      35.063 -17.590 -24.201  0.00  0.00    +0.068 C 
ATOM      4  C   UNL     1      34.733 -19.821 -23.448  0.00  0.00    +0.003 C 
ATOM      5  C   UNL     1      35.219 -18.036 -21.953  0.00  0.00    +0.098 C 
ATOM      6  C   UNL     1      34.788 -18.914 -24.500  0.00  0.00    +0.015 C 
ENDROOT
BRANCH   2   8
ATOM      7  C   UNL     1      34.804 -22.065 -18.886  0.00  0.00    +0.138 C 
ATOM      8  C   UNL     1      34.901 -20.299 -21.032  0.00  0.00    +0.002 C 
ATOM      9  C   UNL     1      33.621 -21.593 -19.444  0.00  0.00    +0.037 C 
ATOM     10  C   UNL     1      36.036 -21.661 -19.391  0.00  0.00    +0.037 C 
ATOM     11  C   UNL     1      33.670 -20.708 -20.520  0.00  0.00    +0.003 C 
ATOM     12  C   UNL     1      36.084 -20.776 -20.468  0.00  0.00    +0.003 C 
BRANCH   7  13
ATOM     13  O   UNL     1      34.757 -22.934 -17.828  0.00  0.00    -0.478 OA
BRANCH  13  14
ATOM     14  C   UNL     1      33.480 -23.171 -17.250  0.00  0.00    +0.183 C 
BRANCH  14  15
ATOM     15  C   UNL     1      33.635 -23.258 -15.741  0.00  0.00    -0.029 C 
BRANCH  15  17
ATOM     16  O   UNL     1      29.871 -24.770 -14.660  0.00  0.00    -0.358 OA
ATOM     17  N   UNL     1      32.332 -23.407 -15.096  0.00  0.00    +0.393 N 
ATOM     18  C   UNL     1      31.250 -23.376 -16.089  0.00  0.00    -0.044 C 
ATOM     19  C   UNL     1      32.271 -24.656 -14.324  0.00  0.00    -0.044 C 
ATOM     20  C   UNL     1      29.903 -23.544 -15.393  0.00  0.00    +0.119 C 
ATOM     21  C   UNL     1      30.900 -24.795 -13.670  0.00  0.00    +0.119 C 
ATOM     22  H   UNL     1      32.209 -22.622 -14.456  0.00  0.00    -0.079 HD
ENDBRANCH  15  17
ENDBRANCH  14  15
ENDBRANCH  13  14
ENDBRANCH   7  13
ENDBRANCH   2   8
BRANCH   3  23
ATOM     23  C   UNL     1      35.131 -16.589 -25.307  0.00  0.00    +0.131 C 
BRANCH  23  26
ATOM     24  O   UNL     1      33.014 -15.915 -26.271  0.00  0.00    -0.275 OA
ATOM     25  N   UNL     1      33.866 -14.706 -24.482  0.00  0.00    -0.300 N 
ATOM     26  C   UNL     1      33.885 -15.723 -25.427  0.00  0.00    +0.229 C 
ATOM     27  H   UNL     1      34.616 -14.638 -23.847  0.00  0.00    +0.150 HD
BRANCH  25  28
ATOM     28  C   UNL     1      32.791 -13.747 -24.393  0.00  0.00    +0.116 C 
BRANCH  28  29
ATOM     29  C   UNL     1      32.552 -13.302 -22.979  0.00  0.00    -0.003 C 
ATOM     30  C   UNL     1      32.121 -12.004 -22.730  0.00  0.00    -0.003 C 
ATOM     31  C   UNL     1      32.764 -14.192 -21.932  0.00  0.00    -0.003 C 
ATOM     32  C   UNL     1      31.900 -11.590 -21.417  0.00  0.00    -0.000 C 
ATOM     33  C   UNL     1      32.542 -13.778 -20.619  0.00  0.00    -0.000 C 
ATOM     34  C   UNL     1      32.111 -12.476 -20.361  0.00  0.00    -0.000 C 
ENDBRANCH  28  29
ENDBRANCH  25  28
ENDBRANCH  23  26
ENDBRANCH   3  23
TORSDOF 9
ENDMDL
MODEL 4
REMARK VINA RESULT:     -12.9      4.200      7.310
REMARK  Name = 23635314
REMARK  9 active torsions:
REMARK  status: ('A' for Active; 'I' for Inactive)
REMARK    1  A    between atoms: C_2  and  C_8
REMARK    2  A    between atoms: C_3  and  C_23
REMARK    3  A    between atoms: C_7  and  O_13
REMARK    4  A    between atoms: O_13  and  C_14
REMARK    5  A    between atoms: C_14  and  C_15
REMARK    6  A    between atoms: C_15  and  N_17
REMARK    7  A    between atoms: C_23  and  C_26
REMARK    8  A    between atoms: N_25  and  C_28
REMARK    9  A    between atoms: C_28  and  C_29
REMARK                            x       y       z     vdW  Elec       q    Type
REMARK                         _______ _______ _______ _____ _____    ______ ____
ROOT
ATOM      1  N   UNL     1      32.574 -11.511 -22.985  0.00  0.00    -0.248 NA
ATOM      2  C   UNL     1      33.271 -13.651 -22.109  0.00  0.00    +0.019 C 
ATOM      3  C   UNL     1      31.884 -11.320 -21.839  0.00  0.00    +0.068 C 
ATOM      4  C   UNL     1      32.549 -13.421 -20.945  0.00  0.00    +0.003 C 
ATOM      5  C   UNL     1      33.253 -12.675 -23.091  0.00  0.00    +0.098 C 
ATOM      6  C   UNL     1      31.839 -12.235 -20.799  0.00  0.00    +0.015 C 
ENDROOT
BRANCH   2   8
ATOM      7  C   UNL     1      35.460 -17.228 -22.640  0.00  0.00    +0.138 C 
ATOM      8  C   UNL     1      34.020 -14.875 -22.291  0.00  0.00    +0.002 C 
ATOM      9  C   UNL     1      35.067 -16.490 -23.751  0.00  0.00    +0.037 C 
ATOM     10  C   UNL     1      35.138 -16.801 -21.355  0.00  0.00    +0.037 C 
ATOM     11  C   UNL     1      34.346 -15.310 -23.576  0.00  0.00    +0.003 C 
ATOM     12  C   UNL     1      34.416 -15.621 -21.182  0.00  0.00    +0.003 C 
BRANCH   7  13
ATOM     13  O   UNL     1      36.169 -18.388 -22.812  0.00  0.00    -0.478 OA
BRANCH  13  14
ATOM     14  C   UNL     1      35.566 -19.584 -22.334  0.00  0.00    +0.183 C 
BRANCH  14  15
ATOM     15  C   UNL     1      36.140 -19.908 -20.964  0.00  0.00    -0.029 C 
BRANCH  15  17
ATOM     16  O   UNL     1      33.047 -22.342 -19.506  0.00  0.00    -0.358 OA
ATOM     17  N   UNL     1      35.111 -20.472 -20.093  0.00  0.00    +0.393 N 
ATOM     18  C   UNL     1      33.785 -20.376 -20.720  0.00  0.00    -0.044 C 
ATOM     19  C   UNL     1      35.413 -21.872 -19.767  0.00  0.00    -0.044 C 
ATOM     20  C   UNL     1      32.732 -20.980 -19.797  0.00  0.00    +0.119 C 
ATOM     21  C   UNL     1      34.321 -22.442 -18.867  0.00  0.00    +0.119 C 
ATOM     22  H   UNL     1      35.103 -19.930 -19.229  0.00  0.00    -0.079 HD
ENDBRANCH  15  17
ENDBRANCH  14  15
ENDBRANCH  13  14
ENDBRANCH   7  13
ENDBRANCH   2   8
BRANCH   3  23
ATOM     23  C   UNL     1      31.132 -10.036 -21.717  0.00  0.00    +0.131 C 
BRANCH  23  26
ATOM     24  O   UNL     1      31.939  -8.203 -20.354  0.00  0.00    -0.275 OA
ATOM     25  N   UNL     1      32.892  -8.554 -22.442  0.00  0.00    -0.300 N 
ATOM     26  C   UNL     1      32.014  -8.836 -21.405  0.00  0.00    +0.229 C 
ATOM     27  H   UNL     1      32.873  -9.124 -23.245  0.00  0.00    +0.150 HD
BRANCH  25  28
ATOM     28  C   UNL     1      33.832  -7.458 -22.390  0.00  0.00    +0.116 C 
BRANCH  28  29
ATOM     29  C   UNL     1      33.856  -6.678 -23.672  0.00  0.00    -0.003 C 
ATOM     30  C   UNL     1      32.734  -5.952 -24.056  0.00  0.00    -0.003 C 
ATOM     31  C   UNL     1      34.999  -6.689 -24.463  0.00  0.00    -0.003 C 
ATOM     32  C   UNL     1      32.756  -5.226 -25.247  0.00  0.00    -0.000 C 
ATOM     33  C   UNL     1      35.021  -5.964 -25.654  0.00  0.00    -0.000 C 
ATOM     34  C   UNL     1      33.899  -5.233 -26.047  0.00  0.00    -0.000 C 
ENDBRANCH  28  29
ENDBRANCH  25  28
ENDBRANCH  23  26
ENDBRANCH   3  23
TORSDOF 9
ENDMDL
MODEL 5
REMARK VINA RESULT:     -12.8      3.424     11.355
REMARK  Name = 23635314
REMARK  9 active torsions:
REMARK  status: ('A' for Active; 'I' for Inactive)
REMARK    1  A    between atoms: C_2  and  C_8
REMARK    2  A    between atoms: C_3  and  C_23
REMARK    3  A    between atoms: C_7  and  O_13
REMARK    4  A    between atoms: O_13  and  C_14
REMARK    5  A    between atoms: C_14  and  C_15
REMARK    6  A    between atoms: C_15  and  N_17
REMARK    7  A    between atoms: C_23  and  C_26
REMARK    8  A    between atoms: N_25  and  C_28
REMARK    9  A    between atoms: C_28  and  C_29
REMARK                            x       y       z     vdW  Elec       q    Type
REMARK                         _______ _______ _______ _____ _____    ______ ____
ROOT
ATOM      1  N   UNL     1      34.193 -23.865 -16.741  0.00  0.00    -0.248 NA
ATOM      2  C   UNL     1      35.065 -22.195 -18.253  0.00  0.00    +0.019 C 
ATOM      3  C   UNL     1      35.327 -23.733 -16.017  0.00  0.00    +0.068 C 
ATOM      4  C   UNL     1      36.217 -22.087 -17.484  0.00  0.00    +0.003 C 
ATOM      5  C   UNL     1      34.091 -23.090 -17.844  0.00  0.00    +0.098 C 
ATOM      6  C   UNL     1      36.359 -22.868 -16.343  0.00  0.00    +0.015 C 
ENDROOT
BRANCH   2   8
ATOM      7  C   UNL     1      34.547 -19.861 -21.738  0.00  0.00    +0.138 C 
ATOM      8  C   UNL     1      34.888 -21.396 -19.445  0.00  0.00    +0.002 C 
ATOM      9  C   UNL     1      35.829 -20.193 -21.317  0.00  0.00    +0.037 C 
ATOM     10  C   UNL     1      33.433 -20.288 -21.024  0.00  0.00    +0.037 C 
ATOM     11  C   UNL     1      36.000 -20.964 -20.167  0.00  0.00    +0.003 C 
ATOM     12  C   UNL     1      33.605 -21.058 -19.874  0.00  0.00    +0.003 C 
BRANCH   7  13
ATOM     13  O   UNL     1      34.379 -19.103 -22.868  0.00  0.00    -0.478 OA
BRANCH  13  14
ATOM     14  C   UNL     1      35.377 -18.129 -23.141  0.00  0.00    +0.183 C 
BRANCH  14  15
ATOM     15  C   UNL     1      35.080 -17.487 -24.485  0.00  0.00    -0.029 C 
BRANCH  15  17
ATOM     16  O   UNL     1      33.879 -13.467 -24.605  0.00  0.00    -0.358 OA
ATOM     17  N   UNL     1      34.292 -16.268 -24.313  0.00  0.00    +0.393 N 
ATOM     18  C   UNL     1      35.013 -15.293 -23.482  0.00  0.00    -0.044 C 
ATOM     19  C   UNL     1      33.960 -15.672 -25.614  0.00  0.00    -0.044 C 
ATOM     20  C   UNL     1      34.177 -14.027 -23.326  0.00  0.00    +0.119 C 
ATOM     21  C   UNL     1      33.149 -14.396 -25.408  0.00  0.00    +0.119 C 
ATOM     22  H   UNL     1      33.425 -16.521 -23.839  0.00  0.00    -0.079 HD
ENDBRANCH  15  17
ENDBRANCH  14  15
ENDBRANCH  13  14
ENDBRANCH   7  13
ENDBRANCH   2   8
BRANCH   3  23
ATOM     23  C   UNL     1      35.446 -24.587 -14.799  0.00  0.00    +0.131 C 
BRANCH  23  26
ATOM     24  O   UNL     1      34.370 -23.846 -12.759  0.00  0.00    -0.275 OA
ATOM     25  N   UNL     1      33.131 -25.057 -14.304  0.00  0.00    -0.300 N 
ATOM     26  C   UNL     1      34.281 -24.440 -13.831  0.00  0.00    +0.229 C 
ATOM     27  H   UNL     1      33.163 -25.508 -15.179  0.00  0.00    +0.150 HD
BRANCH  25  28
ATOM     28  C   UNL     1      31.889 -25.061 -13.566  0.00  0.00    +0.116 C 
BRANCH  28  29
ATOM     29  C   UNL     1      30.760 -24.477 -14.365  0.00  0.00    -0.003 C 
ATOM     30  C   UNL     1      29.776 -25.314 -14.877  0.00  0.00    -0.003 C 
ATOM     31  C   UNL     1      30.710 -23.105 -14.584  0.00  0.00    -0.003 C 
ATOM     32  C   UNL     1      28.726 -24.772 -15.619  0.00  0.00    -0.000 C 
ATOM     33  C   UNL     1      29.660 -22.563 -15.326  0.00  0.00    -0.000 C 
ATOM     34  C   UNL     1      28.669 -23.397 -15.844  0.00  0.00    -0.000 C 
ENDBRANCH  28  29
ENDBRANCH  25  28
ENDBRANCH  23  26
ENDBRANCH   3  23
TORSDOF 9
ENDMDL
MODEL 6
REMARK VINA RESULT:     -12.4      2.320     11.899
REMARK  Name = 23635314
REMARK  9 active torsions:
REMARK  status: ('A' for Active; 'I' for Inactive)
REMARK    1  A    between atoms: C_2  and  C_8
REMARK    2  A    between atoms: C_3  and  C_23
REMARK    3  A    between atoms: C_7  and  O_13
REMARK    4  A    between atoms: O_13  and  C_14
REMARK    5  A    between atoms: C_14  and  C_15
REMARK    6  A    between atoms: C_15  and  N_17
REMARK    7  A    between atoms: C_23  and  C_26
REMARK    8  A    between atoms: N_25  and  C_28
REMARK    9  A    between atoms: C_28  and  C_29
REMARK                            x       y       z     vdW  Elec       q    Type
REMARK                         _______ _______ _______ _____ _____    ______ ____
ROOT
ATOM      1  N   UNL     1      34.785 -23.575 -16.408  0.00  0.00    -0.248 NA
ATOM      2  C   UNL     1      34.068 -22.263 -18.305  0.00  0.00    +0.019 C 
ATOM      3  C   UNL     1      33.481 -23.814 -16.142  0.00  0.00    +0.068 C 
ATOM      4  C   UNL     1      32.739 -22.529 -18.000  0.00  0.00    +0.003 C 
ATOM      5  C   UNL     1      35.046 -22.803 -17.487  0.00  0.00    +0.098 C 
ATOM      6  C   UNL     1      32.431 -23.319 -16.899  0.00  0.00    +0.015 C 
ENDROOT
BRANCH   2   8
ATOM      7  C   UNL     1      35.100 -19.871 -21.635  0.00  0.00    +0.138 C 
ATOM      8  C   UNL     1      34.421 -21.444 -19.444  0.00  0.00    +0.002 C 
ATOM      9  C   UNL     1      33.762 -20.040 -21.297  0.00  0.00    +0.037 C 
ATOM     10  C   UNL     1      36.102 -20.482 -20.888  0.00  0.00    +0.037 C 
ATOM     11  C   UNL     1      33.421 -20.829 -20.198  0.00  0.00    +0.003 C 
ATOM     12  C   UNL     1      35.761 -21.270 -19.790  0.00  0.00    +0.003 C 
BRANCH   7  13
ATOM     13  O   UNL     1      35.435 -19.097 -22.715  0.00  0.00    -0.478 OA
BRANCH  13  14
ATOM     14  C   UNL     1      34.427 -18.897 -23.697  0.00  0.00    +0.183 C 
BRANCH  14  15
ATOM     15  C   UNL     1      34.887 -17.813 -24.657  0.00  0.00    -0.029 C 
BRANCH  15  17
ATOM     16  O   UNL     1      34.184 -13.686 -24.367  0.00  0.00    -0.358 OA
ATOM     17  N   UNL     1      34.275 -16.530 -24.320  0.00  0.00    +0.393 N 
ATOM     18  C   UNL     1      35.182 -15.719 -23.496  0.00  0.00    -0.044 C 
ATOM     19  C   UNL     1      33.904 -15.793 -25.536  0.00  0.00    -0.044 C 
ATOM     20  C   UNL     1      34.525 -14.382 -23.167  0.00  0.00    +0.119 C 
ATOM     21  C   UNL     1      33.277 -14.454 -25.159  0.00  0.00    +0.119 C 
ATOM     22  H   UNL     1      33.429 -16.720 -23.783  0.00  0.00    -0.079 HD
ENDBRANCH  15  17
ENDBRANCH  14  15
ENDBRANCH  13  14
ENDBRANCH   7  13
ENDBRANCH   2   8
BRANCH   3  23
ATOM     23  C   UNL     1      33.187 -24.665 -14.952  0.00  0.00    +0.131 C 
BRANCH  23  26
ATOM     24  O   UNL     1      33.922 -23.828 -12.801  0.00  0.00    -0.275 OA
ATOM     25  N   UNL     1      35.376 -25.137 -14.051  0.00  0.00    -0.300 N 
ATOM     26  C   UNL     1      34.175 -24.484 -13.809  0.00  0.00    +0.229 C 
ATOM     27  H   UNL     1      35.479 -25.638 -14.893  0.00  0.00    +0.150 HD
BRANCH  25  28
ATOM     28  C   UNL     1      36.478 -25.113 -13.118  0.00  0.00    +0.116 C 
BRANCH  28  29
ATOM     29  C   UNL     1      37.806 -25.096 -13.818  0.00  0.00    -0.003 C 
ATOM     30  C   UNL     1      37.961 -24.349 -14.980  0.00  0.00    -0.003 C 
ATOM     31  C   UNL     1      38.866 -25.829 -13.297  0.00  0.00    -0.003 C 
ATOM     32  C   UNL     1      39.195 -24.334 -15.630  0.00  0.00    -0.000 C 
ATOM     33  C   UNL     1      40.100 -25.813 -13.948  0.00  0.00    -0.000 C 
ATOM     34  C   UNL     1      40.264 -25.066 -15.115  0.00  0.00    -0.000 C 
ENDBRANCH  28  29
ENDBRANCH  25  28
ENDBRANCH  23  26
ENDBRANCH   3  23
TORSDOF 9
ENDMDL
MODEL 7
REMARK VINA RESULT:     -12.4      2.997     11.195
REMARK  Name = 23635314
REMARK  9 active torsions:
REMARK  status: ('A' for Active; 'I' for Inactive)
REMARK    1  A    between atoms: C_2  and  C_8
REMARK    2  A    between atoms: C_3  and  C_23
REMARK    3  A    between atoms: C_7  and  O_13
REMARK    4  A    between atoms: O_13  and  C_14
REMARK    5  A    between atoms: C_14  and  C_15
REMARK    6  A    between atoms: C_15  and  N_17
REMARK    7  A    between atoms: C_23  and  C_26
REMARK    8  A    between atoms: N_25  and  C_28
REMARK    9  A    between atoms: C_28  and  C_29
REMARK                            x       y       z     vdW  Elec       q    Type
REMARK                         _______ _______ _______ _____ _____    ______ ____
ROOT
ATOM      1  N   UNL     1      33.822 -21.016 -19.944  0.00  0.00    -0.248 NA
ATOM      2  C   UNL     1      34.981 -19.687 -21.595  0.00  0.00    +0.019 C 
ATOM      3  C   UNL     1      35.031 -21.407 -19.481  0.00  0.00    +0.068 C 
ATOM      4  C   UNL     1      36.205 -20.111 -21.092  0.00  0.00    +0.003 C 
ATOM      5  C   UNL     1      33.828 -20.163 -20.993  0.00  0.00    +0.098 C 
ATOM      6  C   UNL     1      36.238 -20.988 -20.015  0.00  0.00    +0.015 C 
ENDROOT
BRANCH   2   8
ATOM      7  C   UNL     1      34.779 -17.022 -24.871  0.00  0.00    +0.138 C 
ATOM      8  C   UNL     1      34.912 -18.775 -22.716  0.00  0.00    +0.002 C 
ATOM      9  C   UNL     1      35.127 -16.543 -23.613  0.00  0.00    +0.037 C 
ATOM     10  C   UNL     1      34.496 -18.371 -25.061  0.00  0.00    +0.037 C 
ATOM     11  C   UNL     1      35.194 -17.422 -22.533  0.00  0.00    +0.003 C 
ATOM     12  C   UNL     1      34.563 -19.249 -23.980  0.00  0.00    +0.003 C 
BRANCH   7  13
ATOM     13  O   UNL     1      34.713 -16.159 -25.932  0.00  0.00    -0.478 OA
BRANCH  13  14
ATOM     14  C   UNL     1      33.441 -15.593 -26.219  0.00  0.00    +0.183 C 
BRANCH  14  15
ATOM     15  C   UNL     1      33.580 -14.081 -26.278  0.00  0.00    -0.029 C 
BRANCH  15  17
ATOM     16  O   UNL     1      32.739 -11.903 -22.790  0.00  0.00    -0.358 OA
ATOM     17  N   UNL     1      33.686 -13.519 -24.933  0.00  0.00    +0.393 N 
ATOM     18  C   UNL     1      33.765 -12.053 -24.983  0.00  0.00    -0.044 C 
ATOM     19  C   UNL     1      32.546 -13.934 -24.103  0.00  0.00    -0.044 C 
ATOM     20  C   UNL     1      33.863 -11.491 -23.568  0.00  0.00    +0.119 C 
ATOM     21  C   UNL     1      32.673 -13.327 -22.709  0.00  0.00    +0.119 C 
ATOM     22  H   UNL     1      34.543 -13.877 -24.512  0.00  0.00    -0.079 HD
ENDBRANCH  15  17
ENDBRANCH  14  15
ENDBRANCH  13  14
ENDBRANCH   7  13
ENDBRANCH   2   8
BRANCH   3  23
ATOM     23  C   UNL     1      35.030 -22.349 -18.323  0.00  0.00    +0.131 C 
BRANCH  23  26
ATOM     24  O   UNL     1      33.613 -24.290 -18.631  0.00  0.00    -0.275 OA
ATOM     25  N   UNL     1      32.758 -22.443 -17.514  0.00  0.00    -0.300 N 
ATOM     26  C   UNL     1      33.744 -23.152 -18.187  0.00  0.00    +0.229 C 
ATOM     27  H   UNL     1      32.964 -21.534 -17.196  0.00  0.00    +0.150 HD
BRANCH  25  28
ATOM     28  C   UNL     1      31.445 -22.987 -17.260  0.00  0.00    +0.116 C 
BRANCH  28  29
ATOM     29  C   UNL     1      31.366 -23.663 -15.922  0.00  0.00    -0.003 C 
ATOM     30  C   UNL     1      32.288 -23.341 -14.934  0.00  0.00    -0.003 C 
ATOM     31  C   UNL     1      30.371 -24.605 -15.685  0.00  0.00    -0.003 C 
ATOM     32  C   UNL     1      32.216 -23.969 -13.690  0.00  0.00    -0.000 C 
ATOM     33  C   UNL     1      30.298 -25.233 -14.442  0.00  0.00    -0.000 C 
ATOM     34  C   UNL     1      31.222 -24.916 -13.444  0.00  0.00    -0.000 C 
ENDBRANCH  28  29
ENDBRANCH  25  28
ENDBRANCH  23  26
ENDBRANCH   3  23
TORSDOF 9
ENDMDL
MODEL 8
REMARK VINA RESULT:     -12.4      1.905     11.472
REMARK  Name = 23635314
REMARK  9 active torsions:
REMARK  status: ('A' for Active; 'I' for Inactive)
REMARK    1  A    between atoms: C_2  and  C_8
REMARK    2  A    between atoms: C_3  and  C_23
REMARK    3  A    between atoms: C_7  and  O_13
REMARK    4  A    between atoms: O_13  and  C_14
REMARK    5  A    between atoms: C_14  and  C_15
REMARK    6  A    between atoms: C_15  and  N_17
REMARK    7  A    between atoms: C_23  and  C_26
REMARK    8  A    between atoms: N_25  and  C_28
REMARK    9  A    between atoms: C_28  and  C_29
REMARK                            x       y       z     vdW  Elec       q    Type
REMARK                         _______ _______ _______ _____ _____    ______ ____
ROOT
ATOM      1  N   UNL     1      35.597 -22.146 -19.148  0.00  0.00    -0.248 NA
ATOM      2  C   UNL     1      34.605 -20.474 -20.582  0.00  0.00    +0.019 C 
ATOM      3  C   UNL     1      34.351 -22.448 -18.719  0.00  0.00    +0.068 C 
ATOM      4  C   UNL     1      33.340 -20.812 -20.118  0.00  0.00    +0.003 C 
ATOM      5  C   UNL     1      35.693 -21.163 -20.072  0.00  0.00    +0.098 C 
ATOM      6  C   UNL     1      33.202 -21.817 -19.167  0.00  0.00    +0.015 C 
ENDROOT
BRANCH   2   8
ATOM      7  C   UNL     1      35.123 -17.430 -23.469  0.00  0.00    +0.138 C 
ATOM      8  C   UNL     1      34.782 -19.433 -21.570  0.00  0.00    +0.002 C 
ATOM      9  C   UNL     1      34.792 -18.717 -23.878  0.00  0.00    +0.037 C 
ATOM     10  C   UNL     1      35.286 -17.135 -22.120  0.00  0.00    +0.037 C 
ATOM     11  C   UNL     1      34.620 -19.721 -22.925  0.00  0.00    +0.003 C 
ATOM     12  C   UNL     1      35.115 -18.139 -21.168  0.00  0.00    +0.003 C 
BRANCH   7  13
ATOM     13  O   UNL     1      35.291 -16.443 -24.405  0.00  0.00    -0.478 OA
BRANCH  13  14
ATOM     14  C   UNL     1      34.177 -15.594 -24.649  0.00  0.00    +0.183 C 
BRANCH  14  15
ATOM     15  C   UNL     1      34.436 -14.247 -23.996  0.00  0.00    -0.029 C 
BRANCH  15  17
ATOM     16  O   UNL     1      32.199 -12.475 -20.918  0.00  0.00    -0.358 OA
ATOM     17  N   UNL     1      33.319 -13.868 -23.134  0.00  0.00    +0.393 N 
ATOM     18  C   UNL     1      33.553 -14.308 -21.751  0.00  0.00    -0.044 C 
ATOM     19  C   UNL     1      33.102 -12.415 -23.170  0.00  0.00    -0.044 C 
ATOM     20  C   UNL     1      32.380 -13.891 -20.870  0.00  0.00    +0.119 C 
ATOM     21  C   UNL     1      31.939 -12.042 -22.254  0.00  0.00    +0.119 C 
ATOM     22  H   UNL     1      32.482 -14.332 -23.486  0.00  0.00    -0.079 HD
ENDBRANCH  15  17
ENDBRANCH  14  15
ENDBRANCH  13  14
ENDBRANCH   7  13
ENDBRANCH   2   8
BRANCH   3  23
ATOM     23  C   UNL     1      34.240 -23.532 -17.699  0.00  0.00    +0.131 C 
BRANCH  23  26
ATOM     24  O   UNL     1      34.015 -22.798 -15.401  0.00  0.00    -0.275 OA
ATOM     25  N   UNL     1      36.140 -23.192 -16.250  0.00  0.00    -0.300 N 
ATOM     26  C   UNL     1      34.755 -23.133 -16.323  0.00  0.00    +0.229 C 
ATOM     27  H   UNL     1      36.644 -23.474 -17.048  0.00  0.00    +0.150 HD
BRANCH  25  28
ATOM     28  C   UNL     1      36.871 -22.857 -15.050  0.00  0.00    +0.116 C 
BRANCH  28  29
ATOM     29  C   UNL     1      37.873 -23.915 -14.690  0.00  0.00    -0.003 C 
ATOM     30  C   UNL     1      38.949 -24.159 -15.536  0.00  0.00    -0.003 C 
ATOM     31  C   UNL     1      37.716 -24.640 -13.514  0.00  0.00    -0.003 C 
ATOM     32  C   UNL     1      39.880 -25.142 -15.202  0.00  0.00    -0.000 C 
ATOM     33  C   UNL     1      38.648 -25.623 -13.180  0.00  0.00    -0.000 C 
ATOM     34  C   UNL     1      39.730 -25.875 -14.025  0.00  0.00    -0.000 C 
ENDBRANCH  28  29
ENDBRANCH  25  28
ENDBRANCH  23  26
ENDBRANCH   3  23
TORSDOF 9
ENDMDL
MODEL 9
REMARK VINA RESULT:     -12.3      2.047     11.665
REMARK  Name = 23635314
REMARK  9 active torsions:
REMARK  status: ('A' for Active; 'I' for Inactive)
REMARK    1  A    between atoms: C_2  and  C_8
REMARK    2  A    between atoms: C_3  and  C_23
REMARK    3  A    between atoms: C_7  and  O_13
REMARK    4  A    between atoms: O_13  and  C_14
REMARK    5  A    between atoms: C_14  and  C_15
REMARK    6  A    between atoms: C_15  and  N_17
REMARK    7  A    between atoms: C_23  and  C_26
REMARK    8  A    between atoms: N_25  and  C_28
REMARK    9  A    between atoms: C_28  and  C_29
REMARK                            x       y       z     vdW  Elec       q    Type
REMARK                         _______ _______ _______ _____ _____    ______ ____
ROOT
ATOM      1  N   UNL     1      33.047 -21.773 -19.569  0.00  0.00    -0.248 NA
ATOM      2  C   UNL     1      34.561 -20.318 -20.762  0.00  0.00    +0.019 C 
ATOM      3  C   UNL     1      34.129 -22.413 -19.073  0.00  0.00    +0.068 C 
ATOM      4  C   UNL     1      35.650 -21.000 -20.234  0.00  0.00    +0.003 C 
ATOM      5  C   UNL     1      33.292 -20.738 -20.403  0.00  0.00    +0.098 C 
ATOM      6  C   UNL     1      35.438 -22.070 -19.372  0.00  0.00    +0.015 C 
ENDROOT
BRANCH   2   8
ATOM      7  C   UNL     1      35.108 -17.053 -23.392  0.00  0.00    +0.138 C 
ATOM      8  C   UNL     1      34.749 -19.201 -21.662  0.00  0.00    +0.002 C 
ATOM      9  C   UNL     1      35.123 -16.841 -22.018  0.00  0.00    +0.037 C 
ATOM     10  C   UNL     1      34.914 -18.330 -23.910  0.00  0.00    +0.037 C 
ATOM     11  C   UNL     1      34.943 -17.918 -21.150  0.00  0.00    +0.003 C 
ATOM     12  C   UNL     1      34.734 -19.406 -23.041  0.00  0.00    +0.003 C 
BRANCH   7  13
ATOM     13  O   UNL     1      35.285 -15.995 -24.244  0.00  0.00    -0.478 OA
BRANCH  13  14
ATOM     14  C   UNL     1      34.615 -16.063 -25.497  0.00  0.00    +0.183 C 
BRANCH  14  15
ATOM     15  C   UNL     1      33.444 -15.094 -25.478  0.00  0.00    -0.029 C 
BRANCH  15  17
ATOM     16  O   UNL     1      32.919 -11.644 -23.145  0.00  0.00    -0.358 OA
ATOM     17  N   UNL     1      33.652 -14.052 -24.474  0.00  0.00    +0.393 N 
ATOM     18  C   UNL     1      33.825 -12.740 -25.111  0.00  0.00    -0.044 C 
ATOM     19  C   UNL     1      32.529 -14.008 -23.527  0.00  0.00    -0.044 C 
ATOM     20  C   UNL     1      34.029 -11.669 -24.044  0.00  0.00    +0.119 C 
ATOM     21  C   UNL     1      32.763 -12.907 -22.497  0.00  0.00    +0.119 C 
ATOM     22  H   UNL     1      34.503 -14.280 -23.960  0.00  0.00    -0.079 HD
ENDBRANCH  15  17
ENDBRANCH  14  15
ENDBRANCH  13  14
ENDBRANCH   7  13
ENDBRANCH   2   8
BRANCH   3  23
ATOM     23  C   UNL     1      33.865 -23.558 -18.152  0.00  0.00    +0.131 C 
BRANCH  23  26
ATOM     24  O   UNL     1      33.082 -22.972 -15.936  0.00  0.00    -0.275 OA
ATOM     25  N   UNL     1      35.365 -23.193 -16.297  0.00  0.00    -0.300 N 
ATOM     26  C   UNL     1      34.031 -23.210 -16.680  0.00  0.00    +0.229 C 
ATOM     27  H   UNL     1      36.052 -23.399 -16.972  0.00  0.00    +0.150 HD
BRANCH  25  28
ATOM     28  C   UNL     1      35.784 -22.886 -14.950  0.00  0.00    +0.116 C 
BRANCH  28  29
ATOM     29  C   UNL     1      36.724 -23.923 -14.405  0.00  0.00    -0.003 C 
ATOM     30  C   UNL     1      37.441 -23.658 -13.244  0.00  0.00    -0.003 C 
ATOM     31  C   UNL     1      36.867 -25.137 -15.067  0.00  0.00    -0.003 C 
ATOM     32  C   UNL     1      38.314 -24.621 -12.737  0.00  0.00    -0.000 C 
ATOM     33  C   UNL     1      37.740 -26.100 -14.560  0.00  0.00    -0.000 C 
ATOM     34  C   UNL     1      38.464 -25.841 -13.396  0.00  0.00    -0.000 C 
ENDBRANCH  28  29
ENDBRANCH  25  28
ENDBRANCH  23  26
ENDBRANCH   3  23
TORSDOF 9
ENDMDL
