MODEL 1
REMARK VINA RESULT:     -13.6      0.000      0.000
REMARK  Name = 446399
REMARK  4 active torsions:
REMARK  status: ('A' for Active; 'I' for Inactive)
REMARK    1  A    between atoms: N_3  and  S_21
REMARK    2  A    between atoms: C_4  and  C_10
REMARK    3  A    between atoms: N_9  and  C_16
REMARK    4  A    between atoms: S_21  and  C_25
REMARK                            x       y       z     vdW  Elec       q    Type
REMARK                         _______ _______ _______ _____ _____    ______ ____
ROOT
ATOM      1  O   UNL     1      33.417 -13.842 -25.788  0.00  0.00    -0.275 OA
ATOM      2  N   UNL     1      33.795 -15.243 -23.975  0.00  0.00    -0.277 N 
ATOM      3  N   UNL     1      35.118 -17.604 -23.096  0.00  0.00    -0.152 NA
ATOM      4  C   UNL     1      33.601 -14.002 -24.579  0.00  0.00    +0.225 C 
ATOM      5  C   UNL     1      34.016 -15.467 -22.541  0.00  0.00    +0.113 C 
ATOM      6  C   UNL     1      33.718 -16.466 -24.774  0.00  0.00    +0.113 C 
ATOM      7  C   UNL     1      35.250 -16.337 -22.315  0.00  0.00    +0.117 C 
ATOM      8  C   UNL     1      34.951 -17.336 -24.557  0.00  0.00    +0.117 C 
ENDROOT
BRANCH   4  10
ATOM      9  N   UNL     1      32.619 -10.206 -22.898  0.00  0.00    -0.307 N 
ATOM     10  C   UNL     1      33.625 -12.798 -23.671  0.00  0.00    +0.080 C 
ATOM     11  C   UNL     1      32.264 -12.641 -22.998  0.00  0.00    +0.031 C 
ATOM     12  C   UNL     1      33.961 -11.543 -24.472  0.00  0.00    +0.031 C 
ATOM     13  C   UNL     1      32.211 -11.386 -22.127  0.00  0.00    +0.091 C 
ATOM     14  C   UNL     1      33.910 -10.294 -23.595  0.00  0.00    +0.091 C 
BRANCH   9  16
ATOM     15  N   UNL     1      31.336  -6.377 -21.667  0.00  0.00    -0.242 NA
ATOM     16  C   UNL     1      32.193  -8.936 -22.490  0.00  0.00    +0.051 C 
ATOM     17  C   UNL     1      31.492  -8.091 -23.364  0.00  0.00    +0.035 C 
ATOM     18  C   UNL     1      32.455  -8.468 -21.192  0.00  0.00    +0.035 C 
ATOM     19  C   UNL     1      31.093  -6.843 -22.912  0.00  0.00    +0.100 C 
ATOM     20  C   UNL     1      32.012  -7.204 -20.837  0.00  0.00    +0.100 C 
ENDBRANCH   9  16
ENDBRANCH   4  10
BRANCH   3  21
ATOM     21  S   UNL     1      36.246 -18.830 -22.700  0.00  0.00    +0.063 S 
ATOM     22  O   UNL     1      37.351 -18.240 -21.978  0.00  0.00    -0.153 OA
ATOM     23  O   UNL     1      36.472 -19.653 -23.869  0.00  0.00    -0.153 OA
BRANCH  21  25
ATOM     24 CL   UNL     1      32.731 -23.651 -16.693  0.00  0.00    -0.082 Cl
ATOM     25  C   UNL     1      35.289 -19.769 -21.552  0.00  0.00    +0.122 C 
ATOM     26  C   UNL     1      35.935 -20.495 -20.565  0.00  0.00    +0.020 C 
ATOM     27  C   UNL     1      33.910 -19.762 -21.656  0.00  0.00    +0.020 C 
ATOM     28  C   UNL     1      35.187 -21.247 -19.643  0.00  0.00    +0.001 C 
ATOM     29  C   UNL     1      33.775 -21.250 -19.736  0.00  0.00    +0.001 C 
ATOM     30  C   UNL     1      33.153 -20.503 -20.748  0.00  0.00    +0.001 C 
ATOM     31  C   UNL     1      35.811 -21.994 -18.630  0.00  0.00    +0.001 C 
ATOM     32  C   UNL     1      33.028 -22.001 -18.813  0.00  0.00    +0.011 C 
ATOM     33  C   UNL     1      35.053 -22.735 -17.723  0.00  0.00    +0.011 C 
ATOM     34  C   UNL     1      33.664 -22.738 -17.815  0.00  0.00    +0.058 C 
ENDBRANCH  21  25
ENDBRANCH   3  21
TORSDOF 4
ENDMDL
MODEL 2
REMARK VINA RESULT:     -13.4      4.681     11.500
REMARK  Name = 446399
REMARK  4 active torsions:
REMARK  status: ('A' for Active; 'I' for Inactive)
REMARK    1  A    between atoms: N_3  and  S_21
REMARK    2  A    between atoms: C_4  and  C_10
REMARK    3  A    between atoms: N_9  and  C_16
REMARK    4  A    between atoms: S_21  and  C_25
REMARK                            x       y       z     vdW  Elec       q    Type
REMARK                         _______ _______ _______ _____ _____    ______ ____
ROOT
ATOM      1  O   UNL     1      33.911 -15.875 -25.521  0.00  0.00    -0.275 OA
ATOM      2  N   UNL     1      34.174 -14.306 -23.829  0.00  0.00    -0.277 N 
ATOM      3  N   UNL     1      32.963 -12.109 -22.487  0.00  0.00    -0.152 NA
ATOM      4  C   UNL     1      34.320 -15.570 -24.397  0.00  0.00    +0.225 C 
ATOM      5  C   UNL     1      34.648 -13.910 -22.498  0.00  0.00    +0.113 C 
ATOM      6  C   UNL     1      33.564 -13.222 -24.601  0.00  0.00    +0.113 C 
ATOM      7  C   UNL     1      33.528 -13.247 -21.701  0.00  0.00    +0.117 C 
ATOM      8  C   UNL     1      32.440 -12.560 -23.812  0.00  0.00    +0.117 C 
ENDROOT
BRANCH   4  10
ATOM      9  N   UNL     1      34.954 -18.904 -21.813  0.00  0.00    -0.307 N 
ATOM     10  C   UNL     1      35.024 -16.608 -23.561  0.00  0.00    +0.080 C 
ATOM     11  C   UNL     1      34.687 -18.001 -24.088  0.00  0.00    +0.031 C 
ATOM     12  C   UNL     1      34.596 -16.484 -22.101  0.00  0.00    +0.031 C 
ATOM     13  C   UNL     1      35.312 -19.094 -23.223  0.00  0.00    +0.091 C 
ATOM     14  C   UNL     1      35.228 -17.578 -21.242  0.00  0.00    +0.091 C 
BRANCH   9  16
ATOM     15  N   UNL     1      35.050 -22.205 -19.183  0.00  0.00    -0.242 NA
ATOM     16  C   UNL     1      34.986 -19.999 -20.941  0.00  0.00    +0.051 C 
ATOM     17  C   UNL     1      33.801 -20.614 -20.508  0.00  0.00    +0.035 C 
ATOM     18  C   UNL     1      36.204 -20.515 -20.471  0.00  0.00    +0.035 C 
ATOM     19  C   UNL     1      33.886 -21.695 -19.645  0.00  0.00    +0.100 C 
ATOM     20  C   UNL     1      36.182 -21.601 -19.610  0.00  0.00    +0.100 C 
ENDBRANCH   9  16
ENDBRANCH   4  10
BRANCH   3  21
ATOM     21  S   UNL     1      31.934 -11.054 -21.614  0.00  0.00    +0.063 S 
ATOM     22  O   UNL     1      32.504 -10.813 -20.307  0.00  0.00    -0.153 OA
ATOM     23  O   UNL     1      30.567 -11.505 -21.761  0.00  0.00    -0.153 OA
BRANCH  21  25
ATOM     24 CL   UNL     1      34.056  -4.193 -26.099  0.00  0.00    -0.082 Cl
ATOM     25  C   UNL     1      32.125  -9.580 -22.568  0.00  0.00    +0.122 C 
ATOM     26  C   UNL     1      33.398  -9.142 -22.890  0.00  0.00    +0.020 C 
ATOM     27  C   UNL     1      30.999  -8.890 -22.977  0.00  0.00    +0.020 C 
ATOM     28  C   UNL     1      33.567  -7.972 -23.649  0.00  0.00    +0.001 C 
ATOM     29  C   UNL     1      32.425  -7.253 -24.076  0.00  0.00    +0.001 C 
ATOM     30  C   UNL     1      31.149  -7.725 -23.731  0.00  0.00    +0.001 C 
ATOM     31  C   UNL     1      34.844  -7.500 -23.993  0.00  0.00    +0.001 C 
ATOM     32  C   UNL     1      32.594  -6.083 -24.835  0.00  0.00    +0.011 C 
ATOM     33  C   UNL     1      34.993  -6.335 -24.747  0.00  0.00    +0.011 C 
ATOM     34  C   UNL     1      33.870  -5.628 -25.167  0.00  0.00    +0.058 C 
ENDBRANCH  21  25
ENDBRANCH   3  21
TORSDOF 4
ENDMDL
MODEL 3
REMARK VINA RESULT:     -12.7      4.656     11.603
REMARK  Name = 446399
REMARK  4 active torsions:
REMARK  status: ('A' for Active; 'I' for Inactive)
REMARK    1  A    between atoms: N_3  and  S_21
REMARK    2  A    between atoms: C_4  and  C_10
REMARK    3  A    between atoms: N_9  and  C_16
REMARK    4  A    between atoms: S_21  and  C_25
REMARK                            x       y       z     vdW  Elec       q    Type
REMARK                         _______ _______ _______ _____ _____    ______ ____
ROOT
ATOM      1  O   UNL     1      32.438 -21.756 -18.368  0.00  0.00    -0.275 OA
ATOM      2  N   UNL     1      34.235 -21.592 -19.830  0.00  0.00    -0.277 N 
ATOM      3  N   UNL     1      35.613 -19.880 -21.638  0.00  0.00    -0.152 NA
ATOM      4  C   UNL     1      33.605 -22.026 -18.665  0.00  0.00    +0.225 C 
ATOM      5  C   UNL     1      35.620 -21.893 -20.212  0.00  0.00    +0.113 C 
ATOM      6  C   UNL     1      33.487 -20.822 -20.824  0.00  0.00    +0.113 C 
ATOM      7  C   UNL     1      36.369 -20.616 -20.580  0.00  0.00    +0.117 C 
ATOM      8  C   UNL     1      34.227 -19.541 -21.190  0.00  0.00    +0.117 C 
ENDROOT
BRANCH   4  10
ATOM      9  N   UNL     1      35.464 -23.435 -15.093  0.00  0.00    -0.307 N 
ATOM     10  C   UNL     1      34.428 -22.873 -17.728  0.00  0.00    +0.080 C 
ATOM     11  C   UNL     1      33.533 -23.425 -16.621  0.00  0.00    +0.031 C 
ATOM     12  C   UNL     1      35.556 -22.042 -17.123  0.00  0.00    +0.031 C 
ATOM     13  C   UNL     1      34.336 -24.226 -15.598  0.00  0.00    +0.091 C 
ATOM     14  C   UNL     1      36.357 -22.851 -16.104  0.00  0.00    +0.091 C 
BRANCH   9  16
ATOM     15  N   UNL     1      37.139 -24.373 -11.334  0.00  0.00    -0.242 NA
ATOM     16  C   UNL     1      36.020 -23.746 -13.846  0.00  0.00    +0.051 C 
ATOM     17  C   UNL     1      37.382 -23.530 -13.587  0.00  0.00    +0.035 C 
ATOM     18  C   UNL     1      35.231 -24.284 -12.817  0.00  0.00    +0.035 C 
ATOM     19  C   UNL     1      37.884 -23.855 -12.336  0.00  0.00    +0.100 C 
ATOM     20  C   UNL     1      35.829 -24.574 -11.601  0.00  0.00    +0.100 C 
ENDBRANCH   9  16
ENDBRANCH   4  10
BRANCH   3  21
ATOM     21  S   UNL     1      36.468 -18.607 -22.400  0.00  0.00    +0.063 S 
ATOM     22  O   UNL     1      36.400 -18.785 -23.834  0.00  0.00    -0.153 OA
ATOM     23  O   UNL     1      37.737 -18.428 -21.729  0.00  0.00    -0.153 OA
BRANCH  21  25
ATOM     24 CL   UNL     1      31.428 -11.855 -21.570  0.00  0.00    -0.082 Cl
ATOM     25  C   UNL     1      35.431 -17.243 -21.975  0.00  0.00    +0.122 C 
ATOM     26  C   UNL     1      34.918 -16.443 -22.982  0.00  0.00    +0.020 C 
ATOM     27  C   UNL     1      35.149 -16.998 -20.645  0.00  0.00    +0.020 C 
ATOM     28  C   UNL     1      34.091 -15.353 -22.661  0.00  0.00    +0.001 C 
ATOM     29  C   UNL     1      33.792 -15.089 -21.303  0.00  0.00    +0.001 C 
ATOM     30  C   UNL     1      34.329 -15.920 -20.307  0.00  0.00    +0.001 C 
ATOM     31  C   UNL     1      33.554 -14.522 -23.657  0.00  0.00    +0.001 C 
ATOM     32  C   UNL     1      32.965 -14.000 -20.981  0.00  0.00    +0.011 C 
ATOM     33  C   UNL     1      32.735 -13.444 -23.319  0.00  0.00    +0.011 C 
ATOM     34  C   UNL     1      32.441 -13.183 -21.984  0.00  0.00    +0.058 C 
ENDBRANCH  21  25
ENDBRANCH   3  21
TORSDOF 4
ENDMDL
MODEL 4
REMARK VINA RESULT:     -12.6      5.233     11.972
REMARK  Name = 446399
REMARK  4 active torsions:
REMARK  status: ('A' for Active; 'I' for Inactive)
REMARK    1  A    between atoms: N_3  and  S_21
REMARK    2  A    between atoms: C_4  and  C_10
REMARK    3  A    between atoms: N_9  and  C_16
REMARK    4  A    between atoms: S_21  and  C_25
REMARK                            x       y       z     vdW  Elec       q    Type
REMARK                         _______ _______ _______ _____ _____    ______ ____
ROOT
ATOM      1  O   UNL     1      32.034 -21.949 -18.385  0.00  0.00    -0.275 OA
ATOM      2  N   UNL     1      34.032 -21.746 -19.552  0.00  0.00    -0.277 N 
ATOM      3  N   UNL     1      35.759 -19.937 -20.908  0.00  0.00    -0.152 NA
ATOM      4  C   UNL     1      33.214 -22.271 -18.554  0.00  0.00    +0.225 C 
ATOM      5  C   UNL     1      35.437 -22.106 -19.780  0.00  0.00    +0.113 C 
ATOM      6  C   UNL     1      33.484 -20.801 -20.527  0.00  0.00    +0.113 C 
ATOM      7  C   UNL     1      36.308 -20.856 -19.866  0.00  0.00    +0.117 C 
ATOM      8  C   UNL     1      34.347 -19.547 -20.612  0.00  0.00    +0.117 C 
ENDROOT
BRANCH   4  10
ATOM      9  N   UNL     1      34.891 -24.050 -15.058  0.00  0.00    -0.307 N 
ATOM     10  C   UNL     1      33.839 -23.292 -17.637  0.00  0.00    +0.080 C 
ATOM     11  C   UNL     1      32.920 -23.531 -16.441  0.00  0.00    +0.031 C 
ATOM     12  C   UNL     1      35.203 -22.802 -17.158  0.00  0.00    +0.031 C 
ATOM     13  C   UNL     1      33.547 -24.499 -15.438  0.00  0.00    +0.091 C 
ATOM     14  C   UNL     1      35.824 -23.776 -16.160  0.00  0.00    +0.091 C 
BRANCH   9  16
ATOM     15  N   UNL     1      36.542 -25.320 -11.386  0.00  0.00    -0.242 NA
ATOM     16  C   UNL     1      35.439 -24.471 -13.840  0.00  0.00    +0.051 C 
ATOM     17  C   UNL     1      36.466 -25.427 -13.800  0.00  0.00    +0.035 C 
ATOM     18  C   UNL     1      34.976 -23.951 -12.621  0.00  0.00    +0.035 C 
ATOM     19  C   UNL     1      36.974 -25.810 -12.569  0.00  0.00    +0.100 C 
ATOM     20  C   UNL     1      35.552 -24.401 -11.443  0.00  0.00    +0.100 C 
ENDBRANCH   9  16
ENDBRANCH   4  10
BRANCH   3  21
ATOM     21  S   UNL     1      36.792 -18.650 -21.368  0.00  0.00    +0.063 S 
ATOM     22  O   UNL     1      37.999 -19.198 -21.946  0.00  0.00    -0.153 OA
ATOM     23  O   UNL     1      36.851 -17.688 -20.289  0.00  0.00    -0.153 OA
BRANCH  21  25
ATOM     24 CL   UNL     1      32.340 -14.198 -27.029  0.00  0.00    -0.082 Cl
ATOM     25  C   UNL     1      35.839 -17.943 -22.675  0.00  0.00    +0.122 C 
ATOM     26  C   UNL     1      35.541 -16.591 -22.641  0.00  0.00    +0.020 C 
ATOM     27  C   UNL     1      35.407 -18.751 -23.710  0.00  0.00    +0.020 C 
ATOM     28  C   UNL     1      34.783 -16.013 -23.674  0.00  0.00    +0.001 C 
ATOM     29  C   UNL     1      34.334 -16.827 -24.740  0.00  0.00    +0.001 C 
ATOM     30  C   UNL     1      34.654 -18.193 -24.744  0.00  0.00    +0.001 C 
ATOM     31  C   UNL     1      34.463 -14.646 -23.670  0.00  0.00    +0.001 C 
ATOM     32  C   UNL     1      33.577 -16.249 -25.774  0.00  0.00    +0.011 C 
ATOM     33  C   UNL     1      33.710 -14.089 -24.704  0.00  0.00    +0.011 C 
ATOM     34  C   UNL     1      33.267 -14.889 -25.753  0.00  0.00    +0.058 C 
ENDBRANCH  21  25
ENDBRANCH   3  21
TORSDOF 4
ENDMDL
MODEL 5
REMARK VINA RESULT:     -12.6      1.686      2.277
REMARK  Name = 446399
REMARK  4 active torsions:
REMARK  status: ('A' for Active; 'I' for Inactive)
REMARK    1  A    between atoms: N_3  and  S_21
REMARK    2  A    between atoms: C_4  and  C_10
REMARK    3  A    between atoms: N_9  and  C_16
REMARK    4  A    between atoms: S_21  and  C_25
REMARK                            x       y       z     vdW  Elec       q    Type
REMARK                         _______ _______ _______ _____ _____    ______ ____
ROOT
ATOM      1  O   UNL     1      32.339 -13.777 -20.010  0.00  0.00    -0.275 OA
ATOM      2  N   UNL     1      33.945 -14.589 -21.478  0.00  0.00    -0.277 N 
ATOM      3  N   UNL     1      35.227 -16.933 -22.458  0.00  0.00    -0.152 NA
ATOM      4  C   UNL     1      32.923 -13.722 -21.095  0.00  0.00    +0.225 C 
ATOM      5  C   UNL     1      34.660 -14.551 -22.759  0.00  0.00    +0.113 C 
ATOM      6  C   UNL     1      34.434 -15.603 -20.542  0.00  0.00    +0.113 C 
ATOM      7  C   UNL     1      34.669 -15.930 -23.414  0.00  0.00    +0.117 C 
ATOM      8  C   UNL     1      34.439 -16.983 -21.189  0.00  0.00    +0.117 C 
ENDROOT
BRANCH   4  10
ATOM      9  N   UNL     1      32.539  -9.918 -22.988  0.00  0.00    -0.307 N 
ATOM     10  C   UNL     1      32.529 -12.663 -22.093  0.00  0.00    +0.080 C 
ATOM     11  C   UNL     1      33.785 -12.020 -22.675  0.00  0.00    +0.031 C 
ATOM     12  C   UNL     1      31.664 -11.602 -21.417  0.00  0.00    +0.031 C 
ATOM     13  C   UNL     1      33.438 -10.881 -23.634  0.00  0.00    +0.091 C 
ATOM     14  C   UNL     1      31.318 -10.470 -22.382  0.00  0.00    +0.091 C 
BRANCH   9  16
ATOM     15  N   UNL     1      32.375  -5.949 -24.415  0.00  0.00    -0.242 NA
ATOM     16  C   UNL     1      32.484  -8.602 -23.462  0.00  0.00    +0.051 C 
ATOM     17  C   UNL     1      33.655  -7.851 -23.649  0.00  0.00    +0.035 C 
ATOM     18  C   UNL     1      31.256  -7.991 -23.762  0.00  0.00    +0.035 C 
ATOM     19  C   UNL     1      33.548  -6.552 -24.120  0.00  0.00    +0.100 C 
ATOM     20  C   UNL     1      31.257  -6.686 -24.228  0.00  0.00    +0.100 C 
ENDBRANCH   9  16
ENDBRANCH   4  10
BRANCH   3  21
ATOM     21  S   UNL     1      35.617 -18.456 -23.138  0.00  0.00    +0.063 S 
ATOM     22  O   UNL     1      37.056 -18.597 -23.185  0.00  0.00    -0.153 OA
ATOM     23  O   UNL     1      34.807 -18.663 -24.319  0.00  0.00    -0.153 OA
BRANCH  21  25
ATOM     24 CL   UNL     1      33.879 -23.668 -16.696  0.00  0.00    -0.082 Cl
ATOM     25  C   UNL     1      35.011 -19.523 -21.869  0.00  0.00    +0.122 C 
ATOM     26  C   UNL     1      35.903 -20.082 -20.970  0.00  0.00    +0.020 C 
ATOM     27  C   UNL     1      33.655 -19.782 -21.795  0.00  0.00    +0.020 C 
ATOM     28  C   UNL     1      35.436 -20.933 -19.954  0.00  0.00    +0.001 C 
ATOM     29  C   UNL     1      34.051 -21.208 -19.864  0.00  0.00    +0.001 C 
ATOM     30  C   UNL     1      33.174 -20.625 -20.792  0.00  0.00    +0.001 C 
ATOM     31  C   UNL     1      36.315 -21.516 -19.026  0.00  0.00    +0.001 C 
ATOM     32  C   UNL     1      33.584 -22.058 -18.848  0.00  0.00    +0.011 C 
ATOM     33  C   UNL     1      35.833 -22.359 -18.023  0.00  0.00    +0.011 C 
ATOM     34  C   UNL     1      34.470 -22.630 -17.935  0.00  0.00    +0.058 C 
ENDBRANCH  21  25
ENDBRANCH   3  21
TORSDOF 4
ENDMDL
MODEL 6
REMARK VINA RESULT:     -12.5      3.018      4.888
REMARK  Name = 446399
REMARK  4 active torsions:
REMARK  status: ('A' for Active; 'I' for Inactive)
REMARK    1  A    between atoms: N_3  and  S_21
REMARK    2  A    between atoms: C_4  and  C_10
REMARK    3  A    between atoms: N_9  and  C_16
REMARK    4  A    between atoms: S_21  and  C_25
REMARK                            x       y       z     vdW  Elec       q    Type
REMARK                         _______ _______ _______ _____ _____    ______ ____
ROOT
ATOM      1  O   UNL     1      31.141 -10.628 -21.597  0.00  0.00    -0.275 OA
ATOM      2  N   UNL     1      32.843 -11.584 -22.855  0.00  0.00    -0.277 N 
ATOM      3  N   UNL     1      33.538 -13.757 -24.555  0.00  0.00    -0.152 NA
ATOM      4  C   UNL     1      32.121 -10.510 -22.336  0.00  0.00    +0.225 C 
ATOM      5  C   UNL     1      34.012 -11.479 -23.737  0.00  0.00    +0.113 C 
ATOM      6  C   UNL     1      32.494 -12.954 -22.474  0.00  0.00    +0.113 C 
ATOM      7  C   UNL     1      33.835 -12.354 -24.974  0.00  0.00    +0.117 C 
ATOM      8  C   UNL     1      32.310 -13.831 -23.707  0.00  0.00    +0.117 C 
ENDROOT
BRANCH   4  10
ATOM      9  N   UNL     1      32.064  -6.338 -23.223  0.00  0.00    -0.307 N 
ATOM     10  C   UNL     1      32.592  -9.132 -22.724  0.00  0.00    +0.080 C 
ATOM     11  C   UNL     1      32.310  -8.158 -21.582  0.00  0.00    +0.031 C 
ATOM     12  C   UNL     1      31.879  -8.670 -23.992  0.00  0.00    +0.031 C 
ATOM     13  C   UNL     1      32.696  -6.728 -21.957  0.00  0.00    +0.091 C 
ATOM     14  C   UNL     1      32.272  -7.242 -24.362  0.00  0.00    +0.091 C 
BRANCH   9  16
ATOM     15  N   UNL     1      31.471  -2.246 -24.074  0.00  0.00    -0.242 NA
ATOM     16  C   UNL     1      31.868  -4.980 -23.505  0.00  0.00    +0.051 C 
ATOM     17  C   UNL     1      31.273  -4.125 -22.565  0.00  0.00    +0.035 C 
ATOM     18  C   UNL     1      32.258  -4.434 -24.738  0.00  0.00    +0.035 C 
ATOM     19  C   UNL     1      31.101  -2.789 -22.893  0.00  0.00    +0.100 C 
ATOM     20  C   UNL     1      32.042  -3.085 -24.968  0.00  0.00    +0.100 C 
ENDBRANCH   9  16
ENDBRANCH   4  10
BRANCH   3  21
ATOM     21  S   UNL     1      33.641 -14.932 -25.798  0.00  0.00    +0.063 S 
ATOM     22  O   UNL     1      34.725 -14.582 -26.689  0.00  0.00    -0.153 OA
ATOM     23  O   UNL     1      32.312 -15.193 -26.306  0.00  0.00    -0.153 OA
BRANCH  21  25
ATOM     24 CL   UNL     1      36.345 -20.854 -20.384  0.00  0.00    -0.082 Cl
ATOM     25  C   UNL     1      34.147 -16.334 -24.854  0.00  0.00    +0.122 C 
ATOM     26  C   UNL     1      34.643 -16.147 -23.574  0.00  0.00    +0.020 C 
ATOM     27  C   UNL     1      34.039 -17.597 -25.407  0.00  0.00    +0.020 C 
ATOM     28  C   UNL     1      35.049 -17.253 -22.809  0.00  0.00    +0.001 C 
ATOM     29  C   UNL     1      34.945 -18.552 -23.362  0.00  0.00    +0.001 C 
ATOM     30  C   UNL     1      34.438 -18.706 -24.662  0.00  0.00    +0.001 C 
ATOM     31  C   UNL     1      35.556 -17.098 -21.509  0.00  0.00    +0.001 C 
ATOM     32  C   UNL     1      35.351 -19.658 -22.597  0.00  0.00    +0.011 C 
ATOM     33  C   UNL     1      35.956 -18.208 -20.764  0.00  0.00    +0.011 C 
ATOM     34  C   UNL     1      35.854 -19.486 -21.307  0.00  0.00    +0.058 C 
ENDBRANCH  21  25
ENDBRANCH   3  21
TORSDOF 4
ENDMDL
MODEL 7
REMARK VINA RESULT:     -12.2      2.056      3.383
REMARK  Name = 446399
REMARK  4 active torsions:
REMARK  status: ('A' for Active; 'I' for Inactive)
REMARK    1  A    between atoms: N_3  and  S_21
REMARK    2  A    between atoms: C_4  and  C_10
REMARK    3  A    between atoms: N_9  and  C_16
REMARK    4  A    between atoms: S_21  and  C_25
REMARK                            x       y       z     vdW  Elec       q    Type
REMARK                         _______ _______ _______ _____ _____    ______ ____
ROOT
ATOM      1  O   UNL     1      32.267 -12.341 -20.722  0.00  0.00    -0.275 OA
ATOM      2  N   UNL     1      33.522 -13.123 -22.514  0.00  0.00    -0.277 N 
ATOM      3  N   UNL     1      34.401 -15.449 -23.897  0.00  0.00    -0.152 NA
ATOM      4  C   UNL     1      32.662 -12.223 -21.885  0.00  0.00    +0.225 C 
ATOM      5  C   UNL     1      34.010 -13.013 -23.893  0.00  0.00    +0.113 C 
ATOM      6  C   UNL     1      34.068 -14.257 -21.767  0.00  0.00    +0.113 C 
ATOM      7  C   UNL     1      33.783 -14.318 -24.652  0.00  0.00    +0.117 C 
ATOM      8  C   UNL     1      33.838 -15.564 -22.517  0.00  0.00    +0.117 C 
ENDROOT
BRANCH   4  10
ATOM      9  N   UNL     1      31.768  -8.208 -23.014  0.00  0.00    -0.307 N 
ATOM     10  C   UNL     1      32.203 -11.045 -22.706  0.00  0.00    +0.080 C 
ATOM     11  C   UNL     1      33.368 -10.078 -22.903  0.00  0.00    +0.031 C 
ATOM     12  C   UNL     1      31.048 -10.335 -22.004  0.00  0.00    +0.031 C 
ATOM     13  C   UNL     1      32.932  -8.824 -23.661  0.00  0.00    +0.091 C 
ATOM     14  C   UNL     1      30.616  -9.086 -22.769  0.00  0.00    +0.091 C 
BRANCH   9  16
ATOM     15  N   UNL     1      30.986  -4.104 -23.621  0.00  0.00    -0.242 NA
ATOM     16  C   UNL     1      31.509  -6.846 -23.215  0.00  0.00    +0.051 C 
ATOM     17  C   UNL     1      31.090  -6.025 -22.157  0.00  0.00    +0.035 C 
ATOM     18  C   UNL     1      31.659  -6.261 -24.483  0.00  0.00    +0.035 C 
ATOM     19  C   UNL     1      30.847  -4.684 -22.408  0.00  0.00    +0.100 C 
ATOM     20  C   UNL     1      31.390  -4.910 -24.629  0.00  0.00    +0.100 C 
ENDBRANCH   9  16
ENDBRANCH   4  10
BRANCH   3  21
ATOM     21  S   UNL     1      34.531 -16.923 -24.760  0.00  0.00    +0.063 S 
ATOM     22  O   UNL     1      35.595 -16.808 -25.733  0.00  0.00    -0.153 OA
ATOM     23  O   UNL     1      33.206 -17.356 -25.149  0.00  0.00    -0.153 OA
BRANCH  21  25
ATOM     24 CL   UNL     1      36.041 -22.313 -18.408  0.00  0.00    -0.082 Cl
ATOM     25  C   UNL     1      35.092 -17.986 -23.468  0.00  0.00    +0.122 C 
ATOM     26  C   UNL     1      34.169 -18.729 -22.752  0.00  0.00    +0.020 C 
ATOM     27  C   UNL     1      36.445 -18.060 -23.194  0.00  0.00    +0.020 C 
ATOM     28  C   UNL     1      34.599 -19.581 -21.721  0.00  0.00    +0.001 C 
ATOM     29  C   UNL     1      35.981 -19.668 -21.428  0.00  0.00    +0.001 C 
ATOM     30  C   UNL     1      36.891 -18.901 -22.173  0.00  0.00    +0.001 C 
ATOM     31  C   UNL     1      33.689 -20.348 -20.976  0.00  0.00    +0.001 C 
ATOM     32  C   UNL     1      36.412 -20.520 -20.397  0.00  0.00    +0.011 C 
ATOM     33  C   UNL     1      34.135 -21.188 -19.955  0.00  0.00    +0.011 C 
ATOM     34  C   UNL     1      35.494 -21.274 -19.666  0.00  0.00    +0.058 C 
ENDBRANCH  21  25
ENDBRANCH   3  21
TORSDOF 4
ENDMDL
MODEL 8
REMARK VINA RESULT:     -11.5      3.242      5.267
REMARK  Name = 446399
REMARK  4 active torsions:
REMARK  status: ('A' for Active; 'I' for Inactive)
REMARK    1  A    between atoms: N_3  and  S_21
REMARK    2  A    between atoms: C_4  and  C_10
REMARK    3  A    between atoms: N_9  and  C_16
REMARK    4  A    between atoms: S_21  and  C_25
REMARK                            x       y       z     vdW  Elec       q    Type
REMARK                         _______ _______ _______ _____ _____    ______ ____
ROOT
ATOM      1  O   UNL     1      30.992 -10.549 -21.314  0.00  0.00    -0.275 OA
ATOM      2  N   UNL     1      32.685 -11.310 -22.710  0.00  0.00    -0.277 N 
ATOM      3  N   UNL     1      33.447 -13.347 -24.545  0.00  0.00    -0.152 NA
ATOM      4  C   UNL     1      31.914 -10.321 -22.102  0.00  0.00    +0.225 C 
ATOM      5  C   UNL     1      33.787 -11.074 -23.650  0.00  0.00    +0.113 C 
ATOM      6  C   UNL     1      32.469 -12.718 -22.373  0.00  0.00    +0.113 C 
ATOM      7  C   UNL     1      33.607 -11.909 -24.915  0.00  0.00    +0.117 C 
ATOM      8  C   UNL     1      32.281 -13.556 -23.633  0.00  0.00    +0.117 C 
ENDROOT
BRANCH   4  10
ATOM      9  N   UNL     1      33.144  -6.908 -24.347  0.00  0.00    -0.307 N 
ATOM     10  C   UNL     1      32.250  -8.893 -22.451  0.00  0.00    +0.080 C 
ATOM     11  C   UNL     1      31.354  -8.425 -23.595  0.00  0.00    +0.031 C 
ATOM     12  C   UNL     1      33.718  -8.785 -22.859  0.00  0.00    +0.031 C 
ATOM     13  C   UNL     1      31.712  -7.007 -24.042  0.00  0.00    +0.091 C 
ATOM     14  C   UNL     1      34.068  -7.365 -23.300  0.00  0.00    +0.091 C 
BRANCH   9  16
ATOM     15  N   UNL     1      34.506  -3.877 -26.950  0.00  0.00    -0.242 NA
ATOM     16  C   UNL     1      33.595  -5.903 -25.211  0.00  0.00    +0.051 C 
ATOM     17  C   UNL     1      34.883  -5.951 -25.767  0.00  0.00    +0.035 C 
ATOM     18  C   UNL     1      32.774  -4.814 -25.546  0.00  0.00    +0.035 C 
ATOM     19  C   UNL     1      35.282  -4.931 -26.616  0.00  0.00    +0.100 C 
ATOM     20  C   UNL     1      33.268  -3.846 -26.405  0.00  0.00    +0.100 C 
ENDBRANCH   9  16
ENDBRANCH   4  10
BRANCH   3  21
ATOM     21  S   UNL     1      33.567 -14.457 -25.844  0.00  0.00    +0.063 S 
ATOM     22  O   UNL     1      34.660 -14.060 -26.704  0.00  0.00    -0.153 OA
ATOM     23  O   UNL     1      32.245 -14.696 -26.380  0.00  0.00    -0.153 OA
BRANCH  21  25
ATOM     24 CL   UNL     1      36.212 -20.640 -20.700  0.00  0.00    -0.082 Cl
ATOM     25  C   UNL     1      34.068 -15.904 -24.966  0.00  0.00    +0.122 C 
ATOM     26  C   UNL     1      34.529 -15.782 -23.666  0.00  0.00    +0.020 C 
ATOM     27  C   UNL     1      33.990 -17.134 -25.592  0.00  0.00    +0.020 C 
ATOM     28  C   UNL     1      34.931 -16.925 -22.954  0.00  0.00    +0.001 C 
ATOM     29  C   UNL     1      34.857 -18.192 -23.580  0.00  0.00    +0.001 C 
ATOM     30  C   UNL     1      34.384 -18.279 -24.898  0.00  0.00    +0.001 C 
ATOM     31  C   UNL     1      35.404 -16.836 -21.634  0.00  0.00    +0.001 C 
ATOM     32  C   UNL     1      35.258 -19.334 -22.867  0.00  0.00    +0.011 C 
ATOM     33  C   UNL     1      35.799 -17.982 -20.942  0.00  0.00    +0.011 C 
ATOM     34  C   UNL     1      35.726 -19.228 -21.558  0.00  0.00    +0.058 C 
ENDBRANCH  21  25
ENDBRANCH   3  21
TORSDOF 4
ENDMDL
MODEL 9
REMARK VINA RESULT:     -11.0      3.412      5.841
REMARK  Name = 446399
REMARK  4 active torsions:
REMARK  status: ('A' for Active; 'I' for Inactive)
REMARK    1  A    between atoms: N_3  and  S_21
REMARK    2  A    between atoms: C_4  and  C_10
REMARK    3  A    between atoms: N_9  and  C_16
REMARK    4  A    between atoms: S_21  and  C_25
REMARK                            x       y       z     vdW  Elec       q    Type
REMARK                         _______ _______ _______ _____ _____    ______ ____
ROOT
ATOM      1  O   UNL     1      36.870 -18.050 -20.855  0.00  0.00    -0.275 OA
ATOM      2  N   UNL     1      35.239 -19.701 -20.955  0.00  0.00    -0.277 N 
ATOM      3  N   UNL     1      34.185 -22.008 -19.667  0.00  0.00    -0.152 NA
ATOM      4  C   UNL     1      35.718 -18.403 -21.123  0.00  0.00    +0.225 C 
ATOM      5  C   UNL     1      33.877 -20.153 -21.263  0.00  0.00    +0.113 C 
ATOM      6  C   UNL     1      36.139 -20.760 -20.498  0.00  0.00    +0.113 C 
ATOM      7  C   UNL     1      33.274 -20.897 -20.075  0.00  0.00    +0.117 C 
ATOM      8  C   UNL     1      35.545 -21.503 -19.307  0.00  0.00    +0.117 C 
ENDROOT
BRANCH   4  10
ATOM      9  N   UNL     1      34.085 -14.682 -22.420  0.00  0.00    -0.307 N 
ATOM     10  C   UNL     1      34.743 -17.389 -21.666  0.00  0.00    +0.080 C 
ATOM     11  C   UNL     1      35.322 -16.750 -22.926  0.00  0.00    +0.031 C 
ATOM     12  C   UNL     1      34.465 -16.315 -20.616  0.00  0.00    +0.031 C 
ATOM     13  C   UNL     1      34.405 -15.655 -23.470  0.00  0.00    +0.091 C 
ATOM     14  C   UNL     1      33.545 -15.227 -21.166  0.00  0.00    +0.091 C 
BRANCH   9  16
ATOM     15  N   UNL     1      32.910 -10.774 -23.502  0.00  0.00    -0.242 NA
ATOM     16  C   UNL     1      33.695 -13.385 -22.778  0.00  0.00    +0.051 C 
ATOM     17  C   UNL     1      32.683 -12.713 -22.076  0.00  0.00    +0.035 C 
ATOM     18  C   UNL     1      34.305 -12.718 -23.853  0.00  0.00    +0.035 C 
ATOM     19  C   UNL     1      32.334 -11.431 -22.471  0.00  0.00    +0.100 C 
ATOM     20  C   UNL     1      33.883 -11.436 -24.167  0.00  0.00    +0.100 C 
ENDBRANCH   9  16
ENDBRANCH   4  10
BRANCH   3  21
ATOM     21  S   UNL     1      33.513 -23.145 -18.576  0.00  0.00    +0.063 S 
ATOM     22  O   UNL     1      33.569 -24.461 -19.171  0.00  0.00    -0.153 OA
ATOM     23  O   UNL     1      32.273 -22.614 -18.051  0.00  0.00    -0.153 OA
BRANCH  21  25
ATOM     24 CL   UNL     1      38.531 -23.573 -11.769  0.00  0.00    -0.082 Cl
ATOM     25  C   UNL     1      34.719 -23.083 -17.288  0.00  0.00    +0.122 C 
ATOM     26  C   UNL     1      34.486 -23.769 -16.108  0.00  0.00    +0.020 C 
ATOM     27  C   UNL     1      35.875 -22.350 -17.480  0.00  0.00    +0.020 C 
ATOM     28  C   UNL     1      35.435 -23.730 -15.073  0.00  0.00    +0.001 C 
ATOM     29  C   UNL     1      36.625 -22.985 -15.254  0.00  0.00    +0.001 C 
ATOM     30  C   UNL     1      36.829 -22.301 -16.462  0.00  0.00    +0.001 C 
ATOM     31  C   UNL     1      35.230 -24.415 -13.864  0.00  0.00    +0.001 C 
ATOM     32  C   UNL     1      37.575 -22.946 -14.220  0.00  0.00    +0.011 C 
ATOM     33  C   UNL     1      36.185 -24.364 -12.847  0.00  0.00    +0.011 C 
ATOM     34  C   UNL     1      37.355 -23.631 -13.025  0.00  0.00    +0.058 C 
ENDBRANCH  21  25
ENDBRANCH   3  21
TORSDOF 4
ENDMDL
