MODEL 1
REMARK VINA RESULT:     -12.4      0.000      0.000
REMARK  Name = 4470378
REMARK  6 active torsions:
REMARK  status: ('A' for Active; 'I' for Inactive)
REMARK    1  A    between atoms: C_5  and  O_10
REMARK    2  A    between atoms: C_6  and  O_24
REMARK    3  A    between atoms: O_10  and  C_11
REMARK    4  A    between atoms: C_12  and  C_19
REMARK    5  A    between atoms: O_24  and  C_25
REMARK    6  A    between atoms: C_26  and  C_33
REMARK                            x       y       z     vdW  Elec       q    Type
REMARK                         _______ _______ _______ _____ _____    ______ ____
ROOT
ATOM      1  F   UNL     1      32.475 -23.806 -17.991  0.00  0.00    -0.221 F 
ATOM      2  F   UNL     1      34.281 -23.186 -13.638  0.00  0.00    -0.199 F 
ATOM      3  N   UNL     1      35.787 -22.789 -16.915  0.00  0.00    -0.331 NA
ATOM      4  C   UNL     1      33.331 -23.511 -15.793  0.00  0.00    +0.031 C 
ATOM      5  C   UNL     1      34.724 -23.123 -17.681  0.00  0.00    +0.298 C 
ATOM      6  C   UNL     1      35.586 -22.828 -15.585  0.00  0.00    +0.312 C 
ATOM      7  C   UNL     1      33.487 -23.487 -17.175  0.00  0.00    +0.270 C 
ATOM      8  C   UNL     1      34.401 -23.174 -14.971  0.00  0.00    +0.201 C 
ATOM      9  C   UNL     1      32.021 -23.897 -15.194  0.00  0.00    +0.032 C 
ENDROOT
BRANCH   5  10
ATOM     10  O   UNL     1      34.904 -23.093 -19.038  0.00  0.00    -0.428 OA
BRANCH  10  11
ATOM     11  C   UNL     1      34.658 -21.899 -19.685  0.00  0.00    +0.148 C 
ATOM     12  C   UNL     1      35.475 -19.925 -20.777  0.00  0.00    +0.032 C 
ATOM     13  C   UNL     1      35.725 -21.132 -20.123  0.00  0.00    +0.040 C 
ATOM     14  C   UNL     1      33.348 -21.493 -19.883  0.00  0.00    +0.038 C 
ATOM     15  C   UNL     1      34.162 -19.502 -20.983  0.00  0.00    +0.003 C 
ATOM     16  C   UNL     1      33.098 -20.286 -20.535  0.00  0.00    +0.003 C 
BRANCH  12  19
ATOM     17  N   UNL     1      37.637 -18.884 -20.446  0.00  0.00    -0.387 N 
ATOM     18  N   UNL     1      36.555 -18.572 -22.470  0.00  0.00    -0.345 N 
ATOM     19  C   UNL     1      36.577 -19.112 -21.240  0.00  0.00    +0.096 C 
ATOM     20  H   UNL     1      38.383 -18.329 -20.768  0.00  0.00    +0.157 HD
ATOM     21  H   UNL     1      37.667 -19.272 -19.541  0.00  0.00    +0.157 HD
ATOM     22  H   UNL     1      37.309 -18.019 -22.779  0.00  0.00    +0.144 HD
ATOM     23  H   UNL     1      35.785 -18.729 -23.063  0.00  0.00    +0.144 HD
ENDBRANCH  12  19
ENDBRANCH  10  11
ENDBRANCH   5  10
BRANCH   6  24
ATOM     24  O   UNL     1      36.669 -22.490 -14.790  0.00  0.00    -0.426 OA
BRANCH  24  25
ATOM     25  C   UNL     1      37.348 -23.501 -14.185  0.00  0.00    +0.148 C 
ATOM     26  C   UNL     1      39.045 -25.220 -14.259  0.00  0.00    +0.034 C 
ATOM     27  C   UNL     1      38.349 -24.182 -14.879  0.00  0.00    +0.040 C 
ATOM     28  C   UNL     1      37.044 -23.858 -12.872  0.00  0.00    +0.038 C 
ATOM     29  C   UNL     1      38.741 -25.577 -12.945  0.00  0.00    +0.003 C 
ATOM     30  C   UNL     1      37.740 -24.896 -12.252  0.00  0.00    +0.003 C 
BRANCH  26  33
ATOM     31  N   UNL     1      40.908 -26.859 -14.344  0.00  0.00    -0.343 N 
ATOM     32  N   UNL     1      40.275 -25.694 -16.269  0.00  0.00    -0.285 NA
ATOM     33  C   UNL     1      40.088 -25.930 -14.982  0.00  0.00    +0.117 C 
ATOM     34  H   UNL     1      41.608 -27.328 -14.852  0.00  0.00    +0.144 HD
ATOM     35  H   UNL     1      40.787 -27.046 -13.385  0.00  0.00    +0.144 HD
ATOM     36  H   UNL     1      40.980 -26.174 -16.759  0.00  0.00    +0.188 HD
ENDBRANCH  26  33
ENDBRANCH  24  25
ENDBRANCH   6  24
TORSDOF 6
ENDMDL
MODEL 2
REMARK VINA RESULT:     -11.9      5.595     10.963
REMARK  Name = 4470378
REMARK  6 active torsions:
REMARK  status: ('A' for Active; 'I' for Inactive)
REMARK    1  A    between atoms: C_5  and  O_10
REMARK    2  A    between atoms: C_6  and  O_24
REMARK    3  A    between atoms: O_10  and  C_11
REMARK    4  A    between atoms: C_12  and  C_19
REMARK    5  A    between atoms: O_24  and  C_25
REMARK    6  A    between atoms: C_26  and  C_33
REMARK                            x       y       z     vdW  Elec       q    Type
REMARK                         _______ _______ _______ _____ _____    ______ ____
ROOT
ATOM      1  F   UNL     1      35.509 -20.226 -23.661  0.00  0.00    -0.221 F 
ATOM      2  F   UNL     1      33.609 -16.062 -24.941  0.00  0.00    -0.199 F 
ATOM      3  N   UNL     1      36.090 -16.867 -22.420  0.00  0.00    -0.331 NA
ATOM      4  C   UNL     1      34.528 -18.169 -24.338  0.00  0.00    +0.031 C 
ATOM      5  C   UNL     1      36.151 -18.206 -22.600  0.00  0.00    +0.298 C 
ATOM      6  C   UNL     1      35.233 -16.207 -23.220  0.00  0.00    +0.312 C 
ATOM      7  C   UNL     1      35.399 -18.898 -23.536  0.00  0.00    +0.270 C 
ATOM      8  C   UNL     1      34.437 -16.790 -24.183  0.00  0.00    +0.201 C 
ATOM      9  C   UNL     1      33.694 -18.863 -25.361  0.00  0.00    +0.032 C 
ENDROOT
BRANCH   5  10
ATOM     10  O   UNL     1      37.016 -18.901 -21.796  0.00  0.00    -0.428 OA
BRANCH  10  11
ATOM     11  C   UNL     1      36.471 -19.817 -20.920  0.00  0.00    +0.148 C 
ATOM     12  C   UNL     1      34.544 -20.897 -19.981  0.00  0.00    +0.032 C 
ATOM     13  C   UNL     1      35.095 -19.971 -20.868  0.00  0.00    +0.040 C 
ATOM     14  C   UNL     1      37.311 -20.563 -20.110  0.00  0.00    +0.038 C 
ATOM     15  C   UNL     1      35.378 -21.655 -19.159  0.00  0.00    +0.003 C 
ATOM     16  C   UNL     1      36.761 -21.489 -19.223  0.00  0.00    +0.003 C 
BRANCH  12  19
ATOM     17  N   UNL     1      32.562 -21.848 -18.966  0.00  0.00    -0.387 N 
ATOM     18  N   UNL     1      32.308 -20.456 -20.800  0.00  0.00    -0.345 N 
ATOM     19  C   UNL     1      33.111 -21.069 -19.914  0.00  0.00    +0.096 C 
ATOM     20  H   UNL     1      31.585 -21.961 -18.927  0.00  0.00    +0.157 HD
ATOM     21  H   UNL     1      33.137 -22.305 -18.309  0.00  0.00    +0.157 HD
ATOM     22  H   UNL     1      31.333 -20.579 -20.749  0.00  0.00    +0.144 HD
ATOM     23  H   UNL     1      32.696 -19.884 -21.501  0.00  0.00    +0.144 HD
ENDBRANCH  12  19
ENDBRANCH  10  11
ENDBRANCH   5  10
BRANCH   6  24
ATOM     24  O   UNL     1      35.161 -14.836 -23.043  0.00  0.00    -0.426 OA
BRANCH  24  25
ATOM     25  C   UNL     1      34.146 -14.349 -22.279  0.00  0.00    +0.148 C 
ATOM     26  C   UNL     1      32.472 -12.660 -21.852  0.00  0.00    +0.034 C 
ATOM     27  C   UNL     1      33.512 -13.159 -22.636  0.00  0.00    +0.040 C 
ATOM     28  C   UNL     1      33.740 -15.039 -21.137  0.00  0.00    +0.038 C 
ATOM     29  C   UNL     1      32.066 -13.350 -20.710  0.00  0.00    +0.003 C 
ATOM     30  C   UNL     1      32.700 -14.540 -20.353  0.00  0.00    +0.003 C 
BRANCH  26  33
ATOM     31  N   UNL     1      32.506 -10.391 -22.862  0.00  0.00    -0.343 N 
ATOM     32  N   UNL     1      30.529 -11.248 -21.956  0.00  0.00    -0.285 NA
ATOM     33  C   UNL     1      31.811 -11.419 -22.226  0.00  0.00    +0.117 C 
ATOM     34  H   UNL     1      32.039  -9.560 -23.105  0.00  0.00    +0.144 HD
ATOM     35  H   UNL     1      33.463 -10.497 -23.068  0.00  0.00    +0.144 HD
ATOM     36  H   UNL     1      30.081 -10.409 -22.208  0.00  0.00    +0.188 HD
ENDBRANCH  26  33
ENDBRANCH  24  25
ENDBRANCH   6  24
TORSDOF 6
ENDMDL
MODEL 3
REMARK VINA RESULT:     -11.9      5.646      8.984
REMARK  Name = 4470378
REMARK  6 active torsions:
REMARK  status: ('A' for Active; 'I' for Inactive)
REMARK    1  A    between atoms: C_5  and  O_10
REMARK    2  A    between atoms: C_6  and  O_24
REMARK    3  A    between atoms: O_10  and  C_11
REMARK    4  A    between atoms: C_12  and  C_19
REMARK    5  A    between atoms: O_24  and  C_25
REMARK    6  A    between atoms: C_26  and  C_33
REMARK                            x       y       z     vdW  Elec       q    Type
REMARK                         _______ _______ _______ _____ _____    ______ ____
ROOT
ATOM      1  F   UNL     1      33.476 -15.986 -24.940  0.00  0.00    -0.221 F 
ATOM      2  F   UNL     1      35.373 -20.196 -23.812  0.00  0.00    -0.199 F 
ATOM      3  N   UNL     1      36.065 -16.864 -22.554  0.00  0.00    -0.331 NA
ATOM      4  C   UNL     1      34.393 -18.116 -24.412  0.00  0.00    +0.031 C 
ATOM      5  C   UNL     1      35.179 -16.166 -23.300  0.00  0.00    +0.298 C 
ATOM      6  C   UNL     1      36.088 -18.193 -22.764  0.00  0.00    +0.312 C 
ATOM      7  C   UNL     1      34.330 -16.738 -24.233  0.00  0.00    +0.270 C 
ATOM      8  C   UNL     1      35.291 -18.868 -23.663  0.00  0.00    +0.201 C 
ATOM      9  C   UNL     1      33.502 -18.783 -25.404  0.00  0.00    +0.032 C 
ENDROOT
BRANCH   5  10
ATOM     10  O   UNL     1      35.138 -14.811 -23.106  0.00  0.00    -0.428 OA
BRANCH  10  11
ATOM     11  C   UNL     1      34.111 -14.312 -22.331  0.00  0.00    +0.148 C 
ATOM     12  C   UNL     1      32.464 -12.617 -21.911  0.00  0.00    +0.032 C 
ATOM     13  C   UNL     1      33.502 -13.122 -22.696  0.00  0.00    +0.040 C 
ATOM     14  C   UNL     1      33.711 -15.011 -21.203  0.00  0.00    +0.038 C 
ATOM     15  C   UNL     1      32.050 -13.310 -20.773  0.00  0.00    +0.003 C 
ATOM     16  C   UNL     1      32.674 -14.506 -20.419  0.00  0.00    +0.003 C 
BRANCH  12  19
ATOM     17  N   UNL     1      30.537 -11.151 -21.940  0.00  0.00    -0.387 N 
ATOM     18  N   UNL     1      32.488 -10.436 -22.963  0.00  0.00    -0.345 N 
ATOM     19  C   UNL     1      31.818 -11.378 -22.277  0.00  0.00    +0.096 C 
ATOM     20  H   UNL     1      30.104 -10.304 -22.193  0.00  0.00    +0.157 HD
ATOM     21  H   UNL     1      30.032 -11.831 -21.438  0.00  0.00    +0.157 HD
ATOM     22  H   UNL     1      32.041  -9.595 -23.210  0.00  0.00    +0.144 HD
ATOM     23  H   UNL     1      33.427 -10.589 -23.220  0.00  0.00    +0.144 HD
ENDBRANCH  12  19
ENDBRANCH  10  11
ENDBRANCH   5  10
BRANCH   6  24
ATOM     24  O   UNL     1      36.992 -18.918 -22.006  0.00  0.00    -0.426 OA
BRANCH  24  25
ATOM     25  C   UNL     1      36.492 -19.778 -21.078  0.00  0.00    +0.148 C 
ATOM     26  C   UNL     1      34.603 -20.867 -20.036  0.00  0.00    +0.034 C 
ATOM     27  C   UNL     1      35.115 -19.986 -20.989  0.00  0.00    +0.040 C 
ATOM     28  C   UNL     1      37.356 -20.451 -20.213  0.00  0.00    +0.038 C 
ATOM     29  C   UNL     1      35.466 -21.540 -19.172  0.00  0.00    +0.003 C 
ATOM     30  C   UNL     1      36.843 -21.332 -19.261  0.00  0.00    +0.003 C 
BRANCH  26  33
ATOM     31  N   UNL     1      32.625 -21.952 -18.998  0.00  0.00    -0.343 N 
ATOM     32  N   UNL     1      32.352 -20.454 -20.771  0.00  0.00    -0.285 NA
ATOM     33  C   UNL     1      33.167 -21.083 -19.944  0.00  0.00    +0.117 C 
ATOM     34  H   UNL     1      31.651 -22.084 -18.953  0.00  0.00    +0.144 HD
ATOM     35  H   UNL     1      33.216 -22.433 -18.375  0.00  0.00    +0.144 HD
ATOM     36  H   UNL     1      31.380 -20.599 -20.709  0.00  0.00    +0.188 HD
ENDBRANCH  26  33
ENDBRANCH  24  25
ENDBRANCH   6  24
TORSDOF 6
ENDMDL
MODEL 4
REMARK VINA RESULT:     -11.9      0.492      7.552
REMARK  Name = 4470378
REMARK  6 active torsions:
REMARK  status: ('A' for Active; 'I' for Inactive)
REMARK    1  A    between atoms: C_5  and  O_10
REMARK    2  A    between atoms: C_6  and  O_24
REMARK    3  A    between atoms: O_10  and  C_11
REMARK    4  A    between atoms: C_12  and  C_19
REMARK    5  A    between atoms: O_24  and  C_25
REMARK    6  A    between atoms: C_26  and  C_33
REMARK                            x       y       z     vdW  Elec       q    Type
REMARK                         _______ _______ _______ _____ _____    ______ ____
ROOT
ATOM      1  F   UNL     1      33.510 -23.209 -13.775  0.00  0.00    -0.221 F 
ATOM      2  F   UNL     1      32.385 -23.602 -18.377  0.00  0.00    -0.199 F 
ATOM      3  N   UNL     1      35.535 -22.812 -16.760  0.00  0.00    -0.331 NA
ATOM      4  C   UNL     1      32.896 -23.417 -16.063  0.00  0.00    +0.031 C 
ATOM      5  C   UNL     1      35.134 -22.871 -15.469  0.00  0.00    +0.298 C 
ATOM      6  C   UNL     1      34.586 -23.061 -17.680  0.00  0.00    +0.312 C 
ATOM      7  C   UNL     1      33.840 -23.167 -15.072  0.00  0.00    +0.270 C 
ATOM      8  C   UNL     1      33.270 -23.365 -17.401  0.00  0.00    +0.201 C 
ATOM      9  C   UNL     1      31.488 -23.739 -15.692  0.00  0.00    +0.032 C 
ENDROOT
BRANCH   5  10
ATOM     10  O   UNL     1      36.082 -22.620 -14.513  0.00  0.00    -0.428 OA
BRANCH  10  11
ATOM     11  C   UNL     1      36.777 -23.700 -14.009  0.00  0.00    +0.148 C 
ATOM     12  C   UNL     1      38.613 -25.238 -14.159  0.00  0.00    +0.032 C 
ATOM     13  C   UNL     1      37.910 -24.145 -14.669  0.00  0.00    +0.040 C 
ATOM     14  C   UNL     1      36.326 -24.317 -12.853  0.00  0.00    +0.038 C 
ATOM     15  C   UNL     1      38.172 -25.869 -12.997  0.00  0.00    +0.003 C 
ATOM     16  C   UNL     1      37.028 -25.409 -12.343  0.00  0.00    +0.003 C 
BRANCH  12  19
ATOM     17  N   UNL     1      40.558 -26.676 -14.283  0.00  0.00    -0.387 N 
ATOM     18  N   UNL     1      40.156 -25.203 -16.025  0.00  0.00    -0.345 N 
ATOM     19  C   UNL     1      39.797 -25.715 -14.836  0.00  0.00    +0.096 C 
ATOM     20  H   UNL     1      41.364 -26.995 -14.750  0.00  0.00    +0.157 HD
ATOM     21  H   UNL     1      40.309 -27.060 -13.411  0.00  0.00    +0.157 HD
ATOM     22  H   UNL     1      40.965 -25.533 -16.480  0.00  0.00    +0.144 HD
ATOM     23  H   UNL     1      39.610 -24.498 -16.442  0.00  0.00    +0.144 HD
ENDBRANCH  12  19
ENDBRANCH  10  11
ENDBRANCH   5  10
BRANCH   6  24
ATOM     24  O   UNL     1      34.985 -23.001 -19.004  0.00  0.00    -0.426 OA
BRANCH  24  25
ATOM     25  C   UNL     1      34.798 -21.828 -19.668  0.00  0.00    +0.148 C 
ATOM     26  C   UNL     1      35.707 -19.851 -20.720  0.00  0.00    +0.034 C 
ATOM     27  C   UNL     1      35.898 -21.054 -20.041  0.00  0.00    +0.040 C 
ATOM     28  C   UNL     1      33.507 -21.397 -19.975  0.00  0.00    +0.038 C 
ATOM     29  C   UNL     1      34.416 -19.420 -21.026  0.00  0.00    +0.003 C 
ATOM     30  C   UNL     1      33.316 -20.194 -20.654  0.00  0.00    +0.003 C 
BRANCH  26  33
ATOM     31  N   UNL     1      37.053 -18.659 -22.432  0.00  0.00    -0.343 N 
ATOM     32  N   UNL     1      37.733 -18.669 -20.197  0.00  0.00    -0.285 NA
ATOM     33  C   UNL     1      36.853 -19.045 -21.108  0.00  0.00    +0.117 C 
ATOM     34  H   UNL     1      37.835 -18.114 -22.673  0.00  0.00    +0.144 HD
ATOM     35  H   UNL     1      36.410 -18.932 -23.127  0.00  0.00    +0.144 HD
ATOM     36  H   UNL     1      38.509 -18.124 -20.458  0.00  0.00    +0.188 HD
ENDBRANCH  26  33
ENDBRANCH  24  25
ENDBRANCH   6  24
TORSDOF 6
ENDMDL
MODEL 5
REMARK VINA RESULT:     -11.9      5.179      8.372
REMARK  Name = 4470378
REMARK  6 active torsions:
REMARK  status: ('A' for Active; 'I' for Inactive)
REMARK    1  A    between atoms: C_5  and  O_10
REMARK    2  A    between atoms: C_6  and  O_24
REMARK    3  A    between atoms: O_10  and  C_11
REMARK    4  A    between atoms: C_12  and  C_19
REMARK    5  A    between atoms: O_24  and  C_25
REMARK    6  A    between atoms: C_26  and  C_33
REMARK                            x       y       z     vdW  Elec       q    Type
REMARK                         _______ _______ _______ _____ _____    ______ ____
ROOT
ATOM      1  F   UNL     1      34.019 -15.871 -24.744  0.00  0.00    -0.221 F 
ATOM      2  F   UNL     1      35.127 -20.385 -23.749  0.00  0.00    -0.199 F 
ATOM      3  N   UNL     1      35.905 -17.305 -21.996  0.00  0.00    -0.331 NA
ATOM      4  C   UNL     1      34.547 -18.144 -24.291  0.00  0.00    +0.031 C 
ATOM      5  C   UNL     1      35.290 -16.428 -22.822  0.00  0.00    +0.298 C 
ATOM      6  C   UNL     1      35.820 -18.600 -22.350  0.00  0.00    +0.312 C 
ATOM      7  C   UNL     1      34.605 -16.792 -23.969  0.00  0.00    +0.270 C 
ATOM      8  C   UNL     1      35.167 -19.077 -23.466  0.00  0.00    +0.201 C 
ATOM      9  C   UNL     1      33.824 -18.592 -25.515  0.00  0.00    +0.032 C 
ENDROOT
BRANCH   5  10
ATOM     10  O   UNL     1      35.363 -15.102 -22.484  0.00  0.00    -0.428 OA
BRANCH  10  11
ATOM     11  C   UNL     1      34.250 -14.534 -21.899  0.00  0.00    +0.148 C 
ATOM     12  C   UNL     1      32.596 -12.796 -21.843  0.00  0.00    +0.032 C 
ATOM     13  C   UNL     1      33.722 -13.371 -22.435  0.00  0.00    +0.040 C 
ATOM     14  C   UNL     1      33.684 -15.138 -20.788  0.00  0.00    +0.038 C 
ATOM     15  C   UNL     1      32.016 -13.393 -20.725  0.00  0.00    +0.003 C 
ATOM     16  C   UNL     1      32.560 -14.564 -20.196  0.00  0.00    +0.003 C 
BRANCH  12  19
ATOM     17  N   UNL     1      30.779 -11.211 -22.076  0.00  0.00    -0.387 N 
ATOM     18  N   UNL     1      32.753 -10.811 -23.221  0.00  0.00    -0.345 N 
ATOM     19  C   UNL     1      32.033 -11.582 -22.390  0.00  0.00    +0.096 C 
ATOM     20  H   UNL     1      30.402 -10.384 -22.452  0.00  0.00    +0.157 HD
ATOM     21  H   UNL     1      30.239 -11.767 -21.469  0.00  0.00    +0.157 HD
ATOM     22  H   UNL     1      32.361  -9.986 -23.591  0.00  0.00    +0.144 HD
ATOM     23  H   UNL     1      33.672 -11.070 -23.462  0.00  0.00    +0.144 HD
ENDBRANCH  12  19
ENDBRANCH  10  11
ENDBRANCH   5  10
BRANCH   6  24
ATOM     24  O   UNL     1      36.447 -19.507 -21.512  0.00  0.00    -0.426 OA
BRANCH  24  25
ATOM     25  C   UNL     1      35.663 -20.253 -20.687  0.00  0.00    +0.148 C 
ATOM     26  C   UNL     1      35.432 -21.723 -18.783  0.00  0.00    +0.034 C 
ATOM     27  C   UNL     1      36.236 -20.957 -19.628  0.00  0.00    +0.040 C 
ATOM     28  C   UNL     1      34.286 -20.314 -20.901  0.00  0.00    +0.038 C 
ATOM     29  C   UNL     1      34.055 -21.784 -18.997  0.00  0.00    +0.003 C 
ATOM     30  C   UNL     1      33.482 -21.080 -20.056  0.00  0.00    +0.003 C 
BRANCH  26  33
ATOM     31  N   UNL     1      37.393 -22.368 -17.404  0.00  0.00    -0.343 N 
ATOM     32  N   UNL     1      35.277 -23.232 -16.919  0.00  0.00    -0.285 NA
ATOM     33  C   UNL     1      36.030 -22.457 -17.679  0.00  0.00    +0.117 C 
ATOM     34  H   UNL     1      37.777 -22.873 -16.652  0.00  0.00    +0.144 HD
ATOM     35  H   UNL     1      37.972 -21.798 -17.961  0.00  0.00    +0.144 HD
ATOM     36  H   UNL     1      35.680 -23.729 -16.172  0.00  0.00    +0.188 HD
ENDBRANCH  26  33
ENDBRANCH  24  25
ENDBRANCH   6  24
TORSDOF 6
ENDMDL
MODEL 6
REMARK VINA RESULT:     -11.9      1.676      2.293
REMARK  Name = 4470378
REMARK  6 active torsions:
REMARK  status: ('A' for Active; 'I' for Inactive)
REMARK    1  A    between atoms: C_5  and  O_10
REMARK    2  A    between atoms: C_6  and  O_24
REMARK    3  A    between atoms: O_10  and  C_11
REMARK    4  A    between atoms: C_12  and  C_19
REMARK    5  A    between atoms: O_24  and  C_25
REMARK    6  A    between atoms: C_26  and  C_33
REMARK                            x       y       z     vdW  Elec       q    Type
REMARK                         _______ _______ _______ _____ _____    ______ ____
ROOT
ATOM      1  F   UNL     1      30.800 -22.065 -17.430  0.00  0.00    -0.221 F 
ATOM      2  F   UNL     1      32.684 -24.279 -13.669  0.00  0.00    -0.199 F 
ATOM      3  N   UNL     1      33.911 -23.896 -17.062  0.00  0.00    -0.331 NA
ATOM      4  C   UNL     1      31.699 -23.158 -15.520  0.00  0.00    +0.031 C 
ATOM      5  C   UNL     1      32.891 -23.172 -17.578  0.00  0.00    +0.298 C 
ATOM      6  C   UNL     1      33.790 -24.236 -15.766  0.00  0.00    +0.312 C 
ATOM      7  C   UNL     1      31.775 -22.781 -16.856  0.00  0.00    +0.270 C 
ATOM      8  C   UNL     1      32.728 -23.903 -14.953  0.00  0.00    +0.201 C 
ATOM      9  C   UNL     1      30.519 -22.766 -14.697  0.00  0.00    +0.032 C 
ENDROOT
BRANCH   5  10
ATOM     10  O   UNL     1      32.989 -22.815 -18.896  0.00  0.00    -0.428 OA
BRANCH  10  11
ATOM     11  C   UNL     1      34.089 -22.072 -19.273  0.00  0.00    +0.148 C 
ATOM     12  C   UNL     1      35.047 -20.297 -20.572  0.00  0.00    +0.032 C 
ATOM     13  C   UNL     1      33.933 -21.047 -20.191  0.00  0.00    +0.040 C 
ATOM     14  C   UNL     1      35.327 -22.368 -18.725  0.00  0.00    +0.038 C 
ATOM     15  C   UNL     1      36.299 -20.583 -20.029  0.00  0.00    +0.003 C 
ATOM     16  C   UNL     1      36.440 -21.619 -19.106  0.00  0.00    +0.003 C 
BRANCH  12  19
ATOM     17  N   UNL     1      34.426 -19.469 -22.762  0.00  0.00    -0.387 N 
ATOM     18  N   UNL     1      35.243 -17.966 -21.200  0.00  0.00    -0.345 N 
ATOM     19  C   UNL     1      34.902 -19.223 -21.529  0.00  0.00    +0.096 C 
ATOM     20  H   UNL     1      34.331 -18.732 -23.408  0.00  0.00    +0.157 HD
ATOM     21  H   UNL     1      34.173 -20.385 -23.019  0.00  0.00    +0.157 HD
ATOM     22  H   UNL     1      35.143 -17.240 -21.858  0.00  0.00    +0.144 HD
ATOM     23  H   UNL     1      35.595 -17.771 -20.301  0.00  0.00    +0.144 HD
ENDBRANCH  12  19
ENDBRANCH  10  11
ENDBRANCH   5  10
BRANCH   6  24
ATOM     24  O   UNL     1      34.828 -24.979 -15.228  0.00  0.00    -0.426 OA
BRANCH  24  25
ATOM     25  C   UNL     1      36.088 -24.476 -15.336  0.00  0.00    +0.148 C 
ATOM     26  C   UNL     1      38.481 -24.792 -15.246  0.00  0.00    +0.034 C 
ATOM     27  C   UNL     1      37.190 -25.308 -15.136  0.00  0.00    +0.040 C 
ATOM     28  C   UNL     1      36.277 -23.129 -15.644  0.00  0.00    +0.038 C 
ATOM     29  C   UNL     1      38.671 -23.445 -15.554  0.00  0.00    +0.003 C 
ATOM     30  C   UNL     1      37.569 -22.614 -15.753  0.00  0.00    +0.003 C 
BRANCH  26  33
ATOM     31  N   UNL     1      39.904 -26.212 -13.787  0.00  0.00    -0.343 N 
ATOM     32  N   UNL     1      40.442 -25.931 -16.044  0.00  0.00    -0.285 NA
ATOM     33  C   UNL     1      39.631 -25.660 -15.037  0.00  0.00    +0.117 C 
ATOM     34  H   UNL     1      40.687 -26.797 -13.668  0.00  0.00    +0.144 HD
ATOM     35  H   UNL     1      39.313 -26.019 -13.023  0.00  0.00    +0.144 HD
ATOM     36  H   UNL     1      41.219 -26.518 -15.904  0.00  0.00    +0.188 HD
ENDBRANCH  26  33
ENDBRANCH  24  25
ENDBRANCH   6  24
TORSDOF 6
ENDMDL
MODEL 7
REMARK VINA RESULT:     -11.6     11.382     15.269
REMARK  Name = 4470378
REMARK  6 active torsions:
REMARK  status: ('A' for Active; 'I' for Inactive)
REMARK    1  A    between atoms: C_5  and  O_10
REMARK    2  A    between atoms: C_6  and  O_24
REMARK    3  A    between atoms: O_10  and  C_11
REMARK    4  A    between atoms: C_12  and  C_19
REMARK    5  A    between atoms: O_24  and  C_25
REMARK    6  A    between atoms: C_26  and  C_33
REMARK                            x       y       z     vdW  Elec       q    Type
REMARK                         _______ _______ _______ _____ _____    ______ ____
ROOT
ATOM      1  F   UNL     1      33.150  -7.511 -20.316  0.00  0.00    -0.221 F 
ATOM      2  F   UNL     1      30.720 -11.540 -20.987  0.00  0.00    -0.199 F 
ATOM      3  N   UNL     1      33.194  -9.883 -23.061  0.00  0.00    -0.331 NA
ATOM      4  C   UNL     1      31.910  -9.518 -20.604  0.00  0.00    +0.031 C 
ATOM      5  C   UNL     1      33.454  -8.816 -22.272  0.00  0.00    +0.298 C 
ATOM      6  C   UNL     1      32.281 -10.752 -22.588  0.00  0.00    +0.312 C 
ATOM      7  C   UNL     1      32.846  -8.590 -21.047  0.00  0.00    +0.270 C 
ATOM      8  C   UNL     1      31.615 -10.629 -21.388  0.00  0.00    +0.201 C 
ATOM      9  C   UNL     1      31.224  -9.323 -19.295  0.00  0.00    +0.032 C 
ENDROOT
BRANCH   5  10
ATOM     10  O   UNL     1      34.379  -7.916 -22.731  0.00  0.00    -0.428 OA
BRANCH  10  11
ATOM     11  C   UNL     1      33.925  -6.903 -23.552  0.00  0.00    +0.148 C 
ATOM     12  C   UNL     1      32.365  -5.136 -23.996  0.00  0.00    +0.032 C 
ATOM     13  C   UNL     1      32.823  -6.159 -23.165  0.00  0.00    +0.040 C 
ATOM     14  C   UNL     1      34.583  -6.653 -24.745  0.00  0.00    +0.038 C 
ATOM     15  C   UNL     1      33.016  -4.871 -25.200  0.00  0.00    +0.003 C 
ATOM     16  C   UNL     1      34.125  -5.630 -25.576  0.00  0.00    +0.003 C 
BRANCH  12  19
ATOM     17  N   UNL     1      30.534  -3.640 -24.523  0.00  0.00    -0.387 N 
ATOM     18  N   UNL     1      30.816  -4.314 -22.325  0.00  0.00    -0.345 N 
ATOM     19  C   UNL     1      31.216  -4.349 -23.607  0.00  0.00    +0.096 C 
ATOM     20  H   UNL     1      29.752  -3.107 -24.251  0.00  0.00    +0.157 HD
ATOM     21  H   UNL     1      30.815  -3.655 -25.467  0.00  0.00    +0.157 HD
ATOM     22  H   UNL     1      30.033  -3.775 -22.068  0.00  0.00    +0.144 HD
ATOM     23  H   UNL     1      31.306  -4.827 -21.642  0.00  0.00    +0.144 HD
ENDBRANCH  12  19
ENDBRANCH  10  11
ENDBRANCH   5  10
BRANCH   6  24
ATOM     24  O   UNL     1      32.005 -11.848 -23.389  0.00  0.00    -0.426 OA
BRANCH  24  25
ATOM     25  C   UNL     1      32.767 -12.962 -23.219  0.00  0.00    +0.148 C 
ATOM     26  C   UNL     1      33.908 -14.879 -24.149  0.00  0.00    +0.034 C 
ATOM     27  C   UNL     1      33.128 -13.735 -24.323  0.00  0.00    +0.040 C 
ATOM     28  C   UNL     1      33.185 -13.334 -21.942  0.00  0.00    +0.038 C 
ATOM     29  C   UNL     1      34.326 -15.250 -22.872  0.00  0.00    +0.003 C 
ATOM     30  C   UNL     1      33.965 -14.477 -21.768  0.00  0.00    +0.003 C 
BRANCH  26  33
ATOM     31  N   UNL     1      35.199 -16.729 -25.185  0.00  0.00    -0.343 N 
ATOM     32  N   UNL     1      33.758 -15.426 -26.485  0.00  0.00    -0.285 NA
ATOM     33  C   UNL     1      34.284 -15.684 -25.301  0.00  0.00    +0.117 C 
ATOM     34  H   UNL     1      35.440 -17.262 -25.977  0.00  0.00    +0.144 HD
ATOM     35  H   UNL     1      35.604 -16.935 -24.312  0.00  0.00    +0.144 HD
ATOM     36  H   UNL     1      34.012 -15.971 -27.264  0.00  0.00    +0.188 HD
ENDBRANCH  26  33
ENDBRANCH  24  25
ENDBRANCH   6  24
TORSDOF 6
ENDMDL
MODEL 8
REMARK VINA RESULT:     -11.5      3.184      5.546
REMARK  Name = 4470378
REMARK  6 active torsions:
REMARK  status: ('A' for Active; 'I' for Inactive)
REMARK    1  A    between atoms: C_5  and  O_10
REMARK    2  A    between atoms: C_6  and  O_24
REMARK    3  A    between atoms: O_10  and  C_11
REMARK    4  A    between atoms: C_12  and  C_19
REMARK    5  A    between atoms: O_24  and  C_25
REMARK    6  A    between atoms: C_26  and  C_33
REMARK                            x       y       z     vdW  Elec       q    Type
REMARK                         _______ _______ _______ _____ _____    ______ ____
ROOT
ATOM      1  F   UNL     1      33.439 -22.635 -19.653  0.00  0.00    -0.221 F 
ATOM      2  F   UNL     1      37.566 -20.786 -18.193  0.00  0.00    -0.199 F 
ATOM      3  N   UNL     1      35.321 -23.144 -16.593  0.00  0.00    -0.331 NA
ATOM      4  C   UNL     1      35.506 -21.682 -18.969  0.00  0.00    +0.031 C 
ATOM      5  C   UNL     1      34.370 -23.218 -17.553  0.00  0.00    +0.298 C 
ATOM      6  C   UNL     1      36.354 -22.325 -16.856  0.00  0.00    +0.312 C 
ATOM      7  C   UNL     1      34.415 -22.516 -18.746  0.00  0.00    +0.270 C 
ATOM      8  C   UNL     1      36.504 -21.579 -18.005  0.00  0.00    +0.201 C 
ATOM      9  C   UNL     1      35.605 -20.901 -20.235  0.00  0.00    +0.032 C 
ENDROOT
BRANCH   5  10
ATOM     10  O   UNL     1      33.306 -24.045 -17.308  0.00  0.00    -0.428 OA
BRANCH  10  11
ATOM     11  C   UNL     1      32.346 -23.600 -16.422  0.00  0.00    +0.148 C 
ATOM     12  C   UNL     1      30.077 -22.964 -15.969  0.00  0.00    +0.032 C 
ATOM     13  C   UNL     1      31.047 -23.416 -16.866  0.00  0.00    +0.040 C 
ATOM     14  C   UNL     1      32.703 -23.346 -15.108  0.00  0.00    +0.038 C 
ATOM     15  C   UNL     1      30.420 -22.704 -14.643  0.00  0.00    +0.003 C 
ATOM     16  C   UNL     1      31.734 -22.894 -14.212  0.00  0.00    +0.003 C 
BRANCH  12  19
ATOM     17  N   UNL     1      28.344 -23.138 -17.653  0.00  0.00    -0.387 N 
ATOM     18  N   UNL     1      27.806 -22.206 -15.601  0.00  0.00    -0.345 N 
ATOM     19  C   UNL     1      28.717 -22.766 -16.416  0.00  0.00    +0.096 C 
ATOM     20  H   UNL     1      27.416 -23.000 -17.950  0.00  0.00    +0.157 HD
ATOM     21  H   UNL     1      29.000 -23.549 -18.262  0.00  0.00    +0.157 HD
ATOM     22  H   UNL     1      26.882 -22.074 -15.913  0.00  0.00    +0.144 HD
ATOM     23  H   UNL     1      28.064 -21.927 -14.693  0.00  0.00    +0.144 HD
ENDBRANCH  12  19
ENDBRANCH  10  11
ENDBRANCH   5  10
BRANCH   6  24
ATOM     24  O   UNL     1      37.333 -22.239 -15.880  0.00  0.00    -0.426 OA
BRANCH  24  25
ATOM     25  C   UNL     1      37.471 -23.292 -15.029  0.00  0.00    +0.148 C 
ATOM     26  C   UNL     1      36.904 -24.395 -12.955  0.00  0.00    +0.034 C 
ATOM     27  C   UNL     1      36.761 -23.316 -13.828  0.00  0.00    +0.040 C 
ATOM     28  C   UNL     1      38.324 -24.347 -15.356  0.00  0.00    +0.038 C 
ATOM     29  C   UNL     1      37.756 -25.449 -13.282  0.00  0.00    +0.003 C 
ATOM     30  C   UNL     1      38.466 -25.425 -14.483  0.00  0.00    +0.003 C 
BRANCH  26  33
ATOM     31  N   UNL     1      36.647 -23.780 -10.563  0.00  0.00    -0.343 N 
ATOM     32  N   UNL     1      35.012 -25.063 -11.631  0.00  0.00    -0.285 NA
ATOM     33  C   UNL     1      36.164 -24.420 -11.703  0.00  0.00    +0.117 C 
ATOM     34  H   UNL     1      36.131 -23.809  -9.726  0.00  0.00    +0.144 HD
ATOM     35  H   UNL     1      37.506 -23.298 -10.595  0.00  0.00    +0.144 HD
ATOM     36  H   UNL     1      34.511 -25.080 -10.785  0.00  0.00    +0.188 HD
ENDBRANCH  26  33
ENDBRANCH  24  25
ENDBRANCH   6  24
TORSDOF 6
ENDMDL
MODEL 9
REMARK VINA RESULT:     -11.4      2.728      5.144
REMARK  Name = 4470378
REMARK  6 active torsions:
REMARK  status: ('A' for Active; 'I' for Inactive)
REMARK    1  A    between atoms: C_5  and  O_10
REMARK    2  A    between atoms: C_6  and  O_24
REMARK    3  A    between atoms: O_10  and  C_11
REMARK    4  A    between atoms: C_12  and  C_19
REMARK    5  A    between atoms: O_24  and  C_25
REMARK    6  A    between atoms: C_26  and  C_33
REMARK                            x       y       z     vdW  Elec       q    Type
REMARK                         _______ _______ _______ _____ _____    ______ ____
ROOT
ATOM      1  F   UNL     1      32.928 -22.416 -19.910  0.00  0.00    -0.221 F 
ATOM      2  F   UNL     1      37.146 -20.320 -19.274  0.00  0.00    -0.199 F 
ATOM      3  N   UNL     1      35.473 -22.917 -17.372  0.00  0.00    -0.331 NA
ATOM      4  C   UNL     1      35.028 -21.337 -19.635  0.00  0.00    +0.031 C 
ATOM      5  C   UNL     1      34.340 -23.021 -18.104  0.00  0.00    +0.298 C 
ATOM      6  C   UNL     1      36.366 -22.008 -17.803  0.00  0.00    +0.312 C 
ATOM      7  C   UNL     1      34.072 -22.263 -19.232  0.00  0.00    +0.270 C 
ATOM      8  C   UNL     1      36.207 -21.201 -18.909  0.00  0.00    +0.201 C 
ATOM      9  C   UNL     1      34.792 -20.493 -20.842  0.00  0.00    +0.032 C 
ENDROOT
BRANCH   5  10
ATOM     10  O   UNL     1      33.413 -23.939 -17.684  0.00  0.00    -0.428 OA
BRANCH  10  11
ATOM     11  C   UNL     1      32.519 -23.540 -16.712  0.00  0.00    +0.148 C 
ATOM     12  C   UNL     1      30.285 -22.947 -16.067  0.00  0.00    +0.032 C 
ATOM     13  C   UNL     1      31.189 -23.351 -17.051  0.00  0.00    +0.040 C 
ATOM     14  C   UNL     1      32.970 -23.335 -15.419  0.00  0.00    +0.038 C 
ATOM     15  C   UNL     1      30.724 -22.737 -14.760  0.00  0.00    +0.003 C 
ATOM     16  C   UNL     1      32.067 -22.931 -14.436  0.00  0.00    +0.003 C 
BRANCH  12  19
ATOM     17  N   UNL     1      28.045 -22.218 -15.504  0.00  0.00    -0.387 N 
ATOM     18  N   UNL     1      28.430 -23.085 -17.618  0.00  0.00    -0.345 N 
ATOM     19  C   UNL     1      28.894 -22.745 -16.403  0.00  0.00    +0.096 C 
ATOM     20  H   UNL     1      27.098 -22.085 -15.740  0.00  0.00    +0.157 HD
ATOM     21  H   UNL     1      28.369 -21.966 -14.609  0.00  0.00    +0.157 HD
ATOM     22  H   UNL     1      27.480 -22.945 -17.839  0.00  0.00    +0.144 HD
ATOM     23  H   UNL     1      29.039 -23.473 -18.287  0.00  0.00    +0.144 HD
ENDBRANCH  12  19
ENDBRANCH  10  11
ENDBRANCH   5  10
BRANCH   6  24
ATOM     24  O   UNL     1      37.529 -21.891 -17.061  0.00  0.00    -0.426 OA
BRANCH  24  25
ATOM     25  C   UNL     1      37.687 -22.726 -15.998  0.00  0.00    +0.148 C 
ATOM     26  C   UNL     1      38.804 -24.598 -14.956  0.00  0.00    +0.034 C 
ATOM     27  C   UNL     1      38.642 -23.742 -16.045  0.00  0.00    +0.040 C 
ATOM     28  C   UNL     1      36.893 -22.568 -14.862  0.00  0.00    +0.038 C 
ATOM     29  C   UNL     1      38.009 -24.440 -13.820  0.00  0.00    +0.003 C 
ATOM     30  C   UNL     1      37.054 -23.424 -13.774  0.00  0.00    +0.003 C 
BRANCH  26  33
ATOM     31  N   UNL     1      40.137 -26.388 -13.867  0.00  0.00    -0.343 N 
ATOM     32  N   UNL     1      40.407 -25.938 -16.144  0.00  0.00    -0.285 NA
ATOM     33  C   UNL     1      39.800 -25.657 -15.005  0.00  0.00    +0.117 C 
ATOM     34  H   UNL     1      40.814 -27.100 -13.922  0.00  0.00    +0.144 HD
ATOM     35  H   UNL     1      39.698 -26.192 -13.007  0.00  0.00    +0.144 HD
ATOM     36  H   UNL     1      41.081 -26.654 -16.178  0.00  0.00    +0.188 HD
ENDBRANCH  26  33
ENDBRANCH  24  25
ENDBRANCH   6  24
TORSDOF 6
ENDMDL
