MODEL 1
REMARK VINA RESULT:     -13.1      0.000      0.000
REMARK  Name = 71226662
REMARK  4 active torsions:
REMARK  status: ('A' for Active; 'I' for Inactive)
REMARK    1  A    between atoms: C_5  and  C_15
REMARK    2  A    between atoms: C_7  and  C_23
REMARK    3  A    between atoms: C_19  and  C_20
REMARK    4  A    between atoms: C_28  and  C_31
REMARK                            x       y       z     vdW  Elec       q    Type
REMARK                         _______ _______ _______ _____ _____    ______ ____
ROOT
ATOM      1  N   UNL     1      32.437  -7.597 -21.517  0.00  0.00    -0.251 N 
ATOM      2  N   UNL     1      33.111  -8.311 -23.508  0.00  0.00    -0.392 NA
ATOM      3  N   UNL     1      31.699  -8.892 -19.178  0.00  0.00    -0.231 NA
ATOM      4  N   UNL     1      32.048 -11.002 -20.075  0.00  0.00    -0.344 N 
ATOM      5  C   UNL     1      32.843  -7.249 -22.775  0.00  0.00    +0.182 C 
ATOM      6  C   UNL     1      32.448  -8.968 -21.445  0.00  0.00    +0.185 C 
ATOM      7  C   UNL     1      32.867  -9.387 -22.686  0.00  0.00    +0.136 C 
ATOM      8  C   UNL     1      32.056  -6.850 -20.422  0.00  0.00    +0.089 C 
ATOM      9  C   UNL     1      32.058  -9.632 -20.210  0.00  0.00    +0.128 C 
ATOM     10  C   UNL     1      31.706  -7.513 -19.307  0.00  0.00    +0.116 C 
ATOM     11  H   UNL     1      31.777 -11.409 -19.220  0.00  0.00    +0.143 HD
ATOM     12  H   UNL     1      32.313 -11.574 -20.830  0.00  0.00    +0.143 HD
ENDROOT
BRANCH   5  15
ATOM     13  O   UNL     1      35.646  -6.295 -24.192  0.00  0.00    -0.260 OA
ATOM     14  N   UNL     1      33.456  -5.646 -24.599  0.00  0.00    -0.263 N 
ATOM     15  C   UNL     1      32.957  -5.806 -23.230  0.00  0.00    +0.143 C 
ATOM     16  C   UNL     1      31.601  -5.088 -23.248  0.00  0.00    +0.030 C 
ATOM     17  C   UNL     1      31.131  -5.233 -24.692  0.00  0.00    +0.024 C 
ATOM     18  C   UNL     1      32.422  -5.124 -25.489  0.00  0.00    +0.095 C 
ATOM     19  C   UNL     1      34.783  -5.856 -24.944  0.00  0.00    +0.293 C 
BRANCH  19  20
ATOM     20  C   UNL     1      35.174  -5.531 -26.297  0.00  0.00    -0.007 C 
ATOM     21  C   UNL     1      35.498  -5.261 -27.421  0.00  0.00    -0.081 C 
ATOM     22  C   UNL     1      35.893  -4.931 -28.790  0.00  0.00    +0.090 C 
ENDBRANCH  19  20
ENDBRANCH   5  15
BRANCH   7  23
ATOM     23  C   UNL     1      33.045 -10.738 -23.122  0.00  0.00    +0.028 C 
ATOM     24  C   UNL     1      32.215 -11.746 -22.628  0.00  0.00    +0.002 C 
ATOM     25  C   UNL     1      34.049 -11.048 -24.040  0.00  0.00    +0.002 C 
ATOM     26  C   UNL     1      32.390 -13.063 -23.053  0.00  0.00    +0.005 C 
ATOM     27  C   UNL     1      34.223 -12.365 -24.464  0.00  0.00    +0.005 C 
ATOM     28  C   UNL     1      33.394 -13.373 -23.971  0.00  0.00    +0.054 C 
BRANCH  28  31
ATOM     29  O   UNL     1      33.050 -15.109 -25.480  0.00  0.00    -0.270 OA
ATOM     30  N   UNL     1      34.327 -15.569 -23.566  0.00  0.00    -0.266 N 
ATOM     31  C   UNL     1      33.575 -14.746 -24.414  0.00  0.00    +0.251 C 
ATOM     32  H   UNL     1      34.681 -15.139 -22.754  0.00  0.00    +0.157 HD
ATOM     33  N   UNL     1      35.393 -17.543 -22.770  0.00  0.00    -0.229 NA
ATOM     34  C   UNL     1      34.645 -16.941 -23.723  0.00  0.00    +0.134 C 
ATOM     35  C   UNL     1      34.165 -17.583 -24.853  0.00  0.00    +0.034 C 
ATOM     36  C   UNL     1      34.471 -18.930 -25.016  0.00  0.00    +0.004 C 
ATOM     37  C   UNL     1      35.671 -18.852 -22.963  0.00  0.00    +0.100 C 
ATOM     38  C   UNL     1      35.238 -19.584 -24.057  0.00  0.00    +0.021 C 
ENDBRANCH  28  31
ENDBRANCH   7  23
TORSDOF 4
ENDMDL
MODEL 2
REMARK VINA RESULT:     -12.9      8.725     16.026
REMARK  Name = 71226662
REMARK  4 active torsions:
REMARK  status: ('A' for Active; 'I' for Inactive)
REMARK    1  A    between atoms: C_5  and  C_15
REMARK    2  A    between atoms: C_7  and  C_23
REMARK    3  A    between atoms: C_19  and  C_20
REMARK    4  A    between atoms: C_28  and  C_31
REMARK                            x       y       z     vdW  Elec       q    Type
REMARK                         _______ _______ _______ _____ _____    ______ ____
ROOT
ATOM      1  N   UNL     1      32.930 -24.303 -14.945  0.00  0.00    -0.251 N 
ATOM      2  N   UNL     1      34.876 -23.709 -15.832  0.00  0.00    -0.392 NA
ATOM      3  N   UNL     1      30.289 -23.840 -15.659  0.00  0.00    -0.231 NA
ATOM      4  N   UNL     1      30.870 -22.602 -17.532  0.00  0.00    -0.344 N 
ATOM      5  C   UNL     1      34.292 -24.362 -14.848  0.00  0.00    +0.182 C 
ATOM      6  C   UNL     1      32.628 -23.565 -16.064  0.00  0.00    +0.185 C 
ATOM      7  C   UNL     1      33.845 -23.209 -16.595  0.00  0.00    +0.136 C 
ATOM      8  C   UNL     1      31.917 -24.820 -14.164  0.00  0.00    +0.089 C 
ATOM      9  C   UNL     1      31.237 -23.331 -16.424  0.00  0.00    +0.128 C 
ATOM     10  C   UNL     1      30.651 -24.575 -14.543  0.00  0.00    +0.116 C 
ATOM     11  H   UNL     1      29.916 -22.469 -17.739  0.00  0.00    +0.143 HD
ATOM     12  H   UNL     1      31.559 -22.214 -18.117  0.00  0.00    +0.143 HD
ENDROOT
BRANCH   5  15
ATOM     13  O   UNL     1      36.382 -26.757 -15.663  0.00  0.00    -0.260 OA
ATOM     14  N   UNL     1      36.450 -25.228 -13.920  0.00  0.00    -0.263 N 
ATOM     15  C   UNL     1      35.002 -25.099 -13.728  0.00  0.00    +0.143 C 
ATOM     16  C   UNL     1      34.873 -24.381 -12.379  0.00  0.00    +0.030 C 
ATOM     17  C   UNL     1      36.147 -23.548 -12.286  0.00  0.00    +0.024 C 
ATOM     18  C   UNL     1      37.192 -24.438 -12.941  0.00  0.00    +0.095 C 
ATOM     19  C   UNL     1      37.011 -26.097 -14.844  0.00  0.00    +0.293 C 
BRANCH  19  20
ATOM     20  C   UNL     1      38.451 -26.230 -14.837  0.00  0.00    -0.007 C 
ATOM     21  C   UNL     1      39.646 -26.340 -14.830  0.00  0.00    -0.081 C 
ATOM     22  C   UNL     1      41.102 -26.474 -14.822  0.00  0.00    +0.090 C 
ENDBRANCH  19  20
ENDBRANCH   5  15
BRANCH   7  23
ATOM     23  C   UNL     1      34.073 -22.430 -17.773  0.00  0.00    +0.028 C 
ATOM     24  C   UNL     1      32.994 -22.006 -18.549  0.00  0.00    +0.002 C 
ATOM     25  C   UNL     1      35.375 -22.096 -18.147  0.00  0.00    +0.002 C 
ATOM     26  C   UNL     1      33.217 -21.248 -19.699  0.00  0.00    +0.005 C 
ATOM     27  C   UNL     1      35.598 -21.338 -19.296  0.00  0.00    +0.005 C 
ATOM     28  C   UNL     1      34.519 -20.914 -20.072  0.00  0.00    +0.054 C 
BRANCH  28  31
ATOM     29  O   UNL     1      35.028 -20.702 -22.332  0.00  0.00    -0.270 OA
ATOM     30  N   UNL     1      34.662 -18.732 -21.111  0.00  0.00    -0.266 N 
ATOM     31  C   UNL     1      34.751 -20.122 -21.269  0.00  0.00    +0.251 C 
ATOM     32  H   UNL     1      34.433 -18.418 -20.207  0.00  0.00    +0.157 HD
ATOM     33  N   UNL     1      34.721 -16.429 -21.706  0.00  0.00    -0.229 NA
ATOM     34  C   UNL     1      34.860 -17.720 -22.083  0.00  0.00    +0.134 C 
ATOM     35  C   UNL     1      35.184 -18.122 -23.368  0.00  0.00    +0.034 C 
ATOM     36  C   UNL     1      35.381 -17.136 -24.329  0.00  0.00    +0.004 C 
ATOM     37  C   UNL     1      34.919 -15.498 -22.666  0.00  0.00    +0.100 C 
ATOM     38  C   UNL     1      35.248 -15.796 -23.979  0.00  0.00    +0.021 C 
ENDBRANCH  28  31
ENDBRANCH   7  23
TORSDOF 4
ENDMDL
MODEL 3
REMARK VINA RESULT:     -11.1      8.335     15.875
REMARK  Name = 71226662
REMARK  4 active torsions:
REMARK  status: ('A' for Active; 'I' for Inactive)
REMARK    1  A    between atoms: C_5  and  C_15
REMARK    2  A    between atoms: C_7  and  C_23
REMARK    3  A    between atoms: C_19  and  C_20
REMARK    4  A    between atoms: C_28  and  C_31
REMARK                            x       y       z     vdW  Elec       q    Type
REMARK                         _______ _______ _______ _____ _____    ______ ____
ROOT
ATOM      1  N   UNL     1      35.069 -23.831 -15.798  0.00  0.00    -0.251 N 
ATOM      2  N   UNL     1      36.707 -22.919 -16.986  0.00  0.00    -0.392 NA
ATOM      3  N   UNL     1      32.305 -23.824 -16.044  0.00  0.00    -0.231 NA
ATOM      4  N   UNL     1      32.342 -22.513 -17.956  0.00  0.00    -0.344 N 
ATOM      5  C   UNL     1      36.417 -23.658 -15.934  0.00  0.00    +0.182 C 
ATOM      6  C   UNL     1      34.461 -23.159 -16.831  0.00  0.00    +0.185 C 
ATOM      7  C   UNL     1      35.493 -22.603 -17.551  0.00  0.00    +0.136 C 
ATOM      8  C   UNL     1      34.305 -24.509 -14.871  0.00  0.00    +0.089 C 
ATOM      9  C   UNL     1      33.010 -23.165 -16.945  0.00  0.00    +0.128 C 
ATOM     10  C   UNL     1      32.971 -24.484 -15.024  0.00  0.00    +0.116 C 
ATOM     11  H   UNL     1      31.358 -22.544 -17.996  0.00  0.00    +0.143 HD
ATOM     12  H   UNL     1      32.846 -22.016 -18.640  0.00  0.00    +0.143 HD
ENDROOT
BRANCH   5  15
ATOM     13  O   UNL     1      36.557 -22.436 -12.891  0.00  0.00    -0.260 OA
ATOM     14  N   UNL     1      36.862 -24.604 -13.659  0.00  0.00    -0.263 N 
ATOM     15  C   UNL     1      37.422 -24.261 -14.970  0.00  0.00    +0.143 C 
ATOM     16  C   UNL     1      38.001 -25.586 -15.479  0.00  0.00    +0.030 C 
ATOM     17  C   UNL     1      37.124 -26.646 -14.820  0.00  0.00    +0.024 C 
ATOM     18  C   UNL     1      36.830 -26.050 -13.452  0.00  0.00    +0.095 C 
ATOM     19  C   UNL     1      36.529 -23.648 -12.710  0.00  0.00    +0.293 C 
BRANCH  19  20
ATOM     20  C   UNL     1      36.117 -24.124 -11.409  0.00  0.00    -0.007 C 
ATOM     21  C   UNL     1      35.775 -24.519 -10.328  0.00  0.00    -0.081 C 
ATOM     22  C   UNL     1      35.358 -25.000  -9.012  0.00  0.00    +0.090 C 
ENDBRANCH  19  20
ENDBRANCH   5  15
BRANCH   7  23
ATOM     23  C   UNL     1      35.382 -21.802 -18.731  0.00  0.00    +0.028 C 
ATOM     24  C   UNL     1      36.524 -21.235 -19.299  0.00  0.00    +0.002 C 
ATOM     25  C   UNL     1      34.133 -21.586 -19.312  0.00  0.00    +0.002 C 
ATOM     26  C   UNL     1      36.415 -20.453 -20.449  0.00  0.00    +0.005 C 
ATOM     27  C   UNL     1      34.025 -20.803 -20.461  0.00  0.00    +0.005 C 
ATOM     28  C   UNL     1      35.166 -20.237 -21.030  0.00  0.00    +0.054 C 
BRANCH  28  31
ATOM     29  O   UNL     1      35.068 -19.979 -23.340  0.00  0.00    -0.270 OA
ATOM     30  N   UNL     1      34.959 -18.040 -22.024  0.00  0.00    -0.266 N 
ATOM     31  C   UNL     1      35.053 -19.422 -22.230  0.00  0.00    +0.251 C 
ATOM     32  H   UNL     1      34.959 -17.745 -21.085  0.00  0.00    +0.157 HD
ATOM     33  N   UNL     1      34.781 -15.729 -22.564  0.00  0.00    -0.229 NA
ATOM     34  C   UNL     1      34.864 -17.009 -22.992  0.00  0.00    +0.134 C 
ATOM     35  C   UNL     1      34.860 -17.383 -24.326  0.00  0.00    +0.034 C 
ATOM     36  C   UNL     1      34.768 -16.379 -25.283  0.00  0.00    +0.004 C 
ATOM     37  C   UNL     1      34.692 -14.780 -23.523  0.00  0.00    +0.100 C 
ATOM     38  C   UNL     1      34.682 -15.049 -24.882  0.00  0.00    +0.021 C 
ENDBRANCH  28  31
ENDBRANCH   7  23
TORSDOF 4
ENDMDL
MODEL 4
REMARK VINA RESULT:     -10.6      1.478      1.820
REMARK  Name = 71226662
REMARK  4 active torsions:
REMARK  status: ('A' for Active; 'I' for Inactive)
REMARK    1  A    between atoms: C_5  and  C_15
REMARK    2  A    between atoms: C_7  and  C_23
REMARK    3  A    between atoms: C_19  and  C_20
REMARK    4  A    between atoms: C_28  and  C_31
REMARK                            x       y       z     vdW  Elec       q    Type
REMARK                         _______ _______ _______ _____ _____    ______ ____
ROOT
ATOM      1  N   UNL     1      32.474  -6.192 -21.802  0.00  0.00    -0.251 N 
ATOM      2  N   UNL     1      32.945  -7.005 -23.813  0.00  0.00    -0.392 NA
ATOM      3  N   UNL     1      32.084  -7.362 -19.317  0.00  0.00    -0.231 NA
ATOM      4  N   UNL     1      32.435  -9.509 -20.121  0.00  0.00    -0.344 N 
ATOM      5  C   UNL     1      32.711  -5.910 -23.118  0.00  0.00    +0.182 C 
ATOM      6  C   UNL     1      32.565  -7.554 -21.650  0.00  0.00    +0.185 C 
ATOM      7  C   UNL     1      32.856  -8.035 -22.905  0.00  0.00    +0.136 C 
ATOM      8  C   UNL     1      32.186  -5.393 -20.715  0.00  0.00    +0.089 C 
ATOM      9  C   UNL     1      32.357  -8.152 -20.339  0.00  0.00    +0.128 C 
ATOM     10  C   UNL     1      32.004  -5.995 -19.529  0.00  0.00    +0.116 C 
ATOM     11  H   UNL     1      32.287  -9.871 -19.217  0.00  0.00    +0.143 HD
ATOM     12  H   UNL     1      32.638 -10.117 -20.867  0.00  0.00    +0.143 HD
ENDROOT
BRANCH   5  15
ATOM     13  O   UNL     1      34.610  -5.245 -25.711  0.00  0.00    -0.260 OA
ATOM     14  N   UNL     1      32.522  -4.421 -25.123  0.00  0.00    -0.263 N 
ATOM     15  C   UNL     1      32.695  -4.496 -23.669  0.00  0.00    +0.143 C 
ATOM     16  C   UNL     1      31.530  -3.665 -23.118  0.00  0.00    +0.030 C 
ATOM     17  C   UNL     1      30.443  -3.811 -24.179  0.00  0.00    +0.024 C 
ATOM     18  C   UNL     1      31.231  -3.839 -25.479  0.00  0.00    +0.095 C 
ATOM     19  C   UNL     1      33.528  -4.756 -26.017  0.00  0.00    +0.293 C 
BRANCH  19  20
ATOM     20  C   UNL     1      33.276  -4.506 -27.419  0.00  0.00    -0.007 C 
ATOM     21  C   UNL     1      33.067  -4.298 -28.583  0.00  0.00    -0.081 C 
ATOM     22  C   UNL     1      32.813  -4.044 -30.000  0.00  0.00    +0.090 C 
ENDBRANCH  19  20
ENDBRANCH   5  15
BRANCH   7  23
ATOM     23  C   UNL     1      33.052  -9.402 -23.276  0.00  0.00    +0.028 C 
ATOM     24  C   UNL     1      34.338  -9.880 -23.530  0.00  0.00    +0.002 C 
ATOM     25  C   UNL     1      31.956 -10.258 -23.386  0.00  0.00    +0.002 C 
ATOM     26  C   UNL     1      34.528 -11.213 -23.894  0.00  0.00    +0.005 C 
ATOM     27  C   UNL     1      32.146 -11.591 -23.749  0.00  0.00    +0.005 C 
ATOM     28  C   UNL     1      33.431 -12.069 -24.003  0.00  0.00    +0.054 C 
BRANCH  28  31
ATOM     29  O   UNL     1      33.151 -13.867 -25.451  0.00  0.00    -0.270 OA
ATOM     30  N   UNL     1      34.345 -14.245 -23.467  0.00  0.00    -0.266 N 
ATOM     31  C   UNL     1      33.630 -13.459 -24.380  0.00  0.00    +0.251 C 
ATOM     32  H   UNL     1      34.664 -13.781 -22.660  0.00  0.00    +0.157 HD
ATOM     33  N   UNL     1      35.374 -16.182 -22.545  0.00  0.00    -0.229 NA
ATOM     34  C   UNL     1      34.668 -15.622 -23.553  0.00  0.00    +0.134 C 
ATOM     35  C   UNL     1      34.237 -16.312 -24.674  0.00  0.00    +0.034 C 
ATOM     36  C   UNL     1      34.548 -17.664 -24.767  0.00  0.00    +0.004 C 
ATOM     37  C   UNL     1      35.659 -17.498 -22.670  0.00  0.00    +0.100 C 
ATOM     38  C   UNL     1      35.273 -18.276 -23.750  0.00  0.00    +0.021 C 
ENDBRANCH  28  31
ENDBRANCH   7  23
TORSDOF 4
ENDMDL
MODEL 5
REMARK VINA RESULT:     -10.1      8.019     15.026
REMARK  Name = 71226662
REMARK  4 active torsions:
REMARK  status: ('A' for Active; 'I' for Inactive)
REMARK    1  A    between atoms: C_5  and  C_15
REMARK    2  A    between atoms: C_7  and  C_23
REMARK    3  A    between atoms: C_19  and  C_20
REMARK    4  A    between atoms: C_28  and  C_31
REMARK                            x       y       z     vdW  Elec       q    Type
REMARK                         _______ _______ _______ _____ _____    ______ ____
ROOT
ATOM      1  N   UNL     1      33.795 -23.724 -15.520  0.00  0.00    -0.251 N 
ATOM      2  N   UNL     1      32.327 -22.950 -16.994  0.00  0.00    -0.392 NA
ATOM      3  N   UNL     1      36.563 -23.624 -15.355  0.00  0.00    -0.231 NA
ATOM      4  N   UNL     1      36.774 -22.429 -17.330  0.00  0.00    -0.344 N 
ATOM      5  C   UNL     1      32.478 -23.613 -15.865  0.00  0.00    +0.182 C 
ATOM      6  C   UNL     1      34.531 -23.091 -16.492  0.00  0.00    +0.185 C 
ATOM      7  C   UNL     1      33.603 -22.621 -17.392  0.00  0.00    +0.136 C 
ATOM      8  C   UNL     1      34.431 -24.319 -14.450  0.00  0.00    +0.089 C 
ATOM      9  C   UNL     1      35.982 -23.048 -16.390  0.00  0.00    +0.128 C 
ATOM     10  C   UNL     1      35.772 -24.249 -14.404  0.00  0.00    +0.116 C 
ATOM     11  H   UNL     1      37.753 -22.423 -17.221  0.00  0.00    +0.143 HD
ATOM     12  H   UNL     1      36.363 -21.992 -18.110  0.00  0.00    +0.143 HD
ENDROOT
BRANCH   5  15
ATOM     13  O   UNL     1      30.141 -21.576 -14.784  0.00  0.00    -0.260 OA
ATOM     14  N   UNL     1      30.014 -23.795 -15.452  0.00  0.00    -0.263 N 
ATOM     15  C   UNL     1      31.358 -24.196 -15.022  0.00  0.00    +0.143 C 
ATOM     16  C   UNL     1      31.319 -25.728 -15.078  0.00  0.00    +0.030 C 
ATOM     17  C   UNL     1      30.299 -26.027 -16.173  0.00  0.00    +0.024 C 
ATOM     18  C   UNL     1      29.266 -24.926 -15.994  0.00  0.00    +0.095 C 
ATOM     19  C   UNL     1      29.507 -22.521 -15.240  0.00  0.00    +0.293 C 
BRANCH  19  20
ATOM     20  C   UNL     1      28.121 -22.297 -15.586  0.00  0.00    -0.007 C 
ATOM     21  C   UNL     1      26.970 -22.110 -15.873  0.00  0.00    -0.081 C 
ATOM     22  C   UNL     1      25.569 -21.882 -16.223  0.00  0.00    +0.090 C 
ENDBRANCH  19  20
ENDBRANCH   5  15
BRANCH   7  23
ATOM     23  C   UNL     1      33.865 -21.886 -18.591  0.00  0.00    +0.028 C 
ATOM     24  C   UNL     1      35.169 -21.783 -19.076  0.00  0.00    +0.002 C 
ATOM     25  C   UNL     1      32.816 -21.272 -19.275  0.00  0.00    +0.002 C 
ATOM     26  C   UNL     1      35.424 -21.065 -20.244  0.00  0.00    +0.005 C 
ATOM     27  C   UNL     1      33.071 -20.554 -20.443  0.00  0.00    +0.005 C 
ATOM     28  C   UNL     1      34.375 -20.451 -20.928  0.00  0.00    +0.054 C 
BRANCH  28  31
ATOM     29  O   UNL     1      35.036 -20.315 -23.154  0.00  0.00    -0.270 OA
ATOM     30  N   UNL     1      34.444 -18.319 -22.072  0.00  0.00    -0.266 N 
ATOM     31  C   UNL     1      34.641 -19.704 -22.147  0.00  0.00    +0.251 C 
ATOM     32  H   UNL     1      34.126 -17.977 -21.205  0.00  0.00    +0.157 HD
ATOM     33  N   UNL     1      34.389 -16.049 -22.785  0.00  0.00    -0.229 NA
ATOM     34  C   UNL     1      34.644 -17.344 -23.081  0.00  0.00    +0.134 C 
ATOM     35  C   UNL     1      35.091 -17.784 -24.316  0.00  0.00    +0.034 C 
ATOM     36  C   UNL     1      35.291 -16.835 -25.312  0.00  0.00    +0.004 C 
ATOM     37  C   UNL     1      34.594 -15.155 -23.778  0.00  0.00    +0.100 C 
ATOM     38  C   UNL     1      35.039 -15.493 -25.046  0.00  0.00    +0.021 C 
ENDBRANCH  28  31
ENDBRANCH   7  23
TORSDOF 4
ENDMDL
