MODEL 1
REMARK VINA RESULT:     -13.3      0.000      0.000
REMARK  Name = 24880024
REMARK  5 active torsions:
REMARK  status: ('A' for Active; 'I' for Inactive)
REMARK    1  A    between atoms: N_5  and  C_12
REMARK    2  A    between atoms: C_6  and  C_22
REMARK    3  A    between atoms: C_13  and  C_21
REMARK    4  A    between atoms: C_22  and  C_23
REMARK    5  A    between atoms: C_23  and  N_25
REMARK                            x       y       z     vdW  Elec       q    Type
REMARK                         _______ _______ _______ _____ _____    ______ ____
ROOT
ATOM      1  S   UNL     1      36.711 -20.613 -19.877  0.00  0.00    -0.056 S 
ATOM      2  O   UNL     1      35.374 -23.453 -16.421  0.00  0.00    -0.252 OA
ATOM      3  N   UNL     1      34.699 -21.912 -18.904  0.00  0.00    -0.223 NA
ATOM      4  N   UNL     1      36.789 -22.102 -17.721  0.00  0.00    -0.248 N 
ATOM      5  N   UNL     1      37.620 -23.183 -15.826  0.00  0.00    -0.268 N 
ATOM      6  C   UNL     1      35.210 -20.501 -20.699  0.00  0.00    +0.031 C 
ATOM      7  C   UNL     1      34.263 -21.253 -20.036  0.00  0.00    +0.103 C 
ATOM      8  C   UNL     1      35.974 -21.647 -18.723  0.00  0.00    +0.166 C 
ATOM      9  C   UNL     1      36.483 -22.970 -16.623  0.00  0.00    +0.310 C 
ATOM     10  H   UNL     1      37.722 -21.787 -17.761  0.00  0.00    +0.158 HD
ATOM     11  H   UNL     1      38.442 -22.726 -16.116  0.00  0.00    +0.156 HD
ENDROOT
BRANCH   5  12
ATOM     12  C   UNL     1      37.728 -23.974 -14.658  0.00  0.00    +0.052 C 
ATOM     13  C   UNL     1      36.996 -24.513 -12.420  0.00  0.00    +0.073 C 
ATOM     14  C   UNL     1      36.889 -23.732 -13.571  0.00  0.00    +0.019 C 
ATOM     15  C   UNL     1      38.673 -24.998 -14.595  0.00  0.00    +0.015 C 
ATOM     16  C   UNL     1      37.941 -25.536 -12.357  0.00  0.00    +0.004 C 
ATOM     17  C   UNL     1      38.780 -25.779 -13.445  0.00  0.00    +0.001 C 
BRANCH  13  21
ATOM     18  F   UNL     1      35.630 -25.390 -10.663  0.00  0.00    -0.166 F 
ATOM     19  F   UNL     1      36.699 -23.548 -10.251  0.00  0.00    -0.166 F 
ATOM     20  F   UNL     1      34.991 -23.534 -11.597  0.00  0.00    -0.166 F 
ATOM     21  C   UNL     1      36.099 -24.254 -11.256  0.00  0.00    +0.419 C 
ENDBRANCH  13  21
ENDBRANCH   5  12
BRANCH   6  22
ATOM     22  C   UNL     1      35.080 -19.666 -21.950  0.00  0.00    +0.056 C 
BRANCH  22  23
ATOM     23  C   UNL     1      36.110 -18.540 -22.029  0.00  0.00    +0.093 C 
BRANCH  23  25
ATOM     24  S   UNL     1      34.066 -14.394 -22.428  0.00  0.00    -0.101 S 
ATOM     25  N   UNL     1      35.470 -17.273 -22.219  0.00  0.00    -0.320 N 
ATOM     26  N   UNL     1      35.131 -17.632 -24.548  0.00  0.00    -0.233 NA
ATOM     27  N   UNL     1      34.050 -15.997 -25.966  0.00  0.00    -0.247 NA
ATOM     28  C   UNL     1      34.992 -16.837 -23.469  0.00  0.00    +0.118 C 
ATOM     29  C   UNL     1      34.376 -15.599 -23.611  0.00  0.00    +0.145 C 
ATOM     30  C   UNL     1      33.917 -15.207 -24.868  0.00  0.00    +0.073 C 
ATOM     31  C   UNL     1      33.314 -13.914 -24.835  0.00  0.00    +0.022 C 
ATOM     32  C   UNL     1      33.329 -13.363 -23.575  0.00  0.00    +0.033 C 
ATOM     33  C   UNL     1      34.656 -17.169 -25.719  0.00  0.00    +0.251 C 
ATOM     34  H   UNL     1      35.362 -16.681 -21.441  0.00  0.00    +0.148 HD
ENDBRANCH  23  25
ENDBRANCH  22  23
ENDBRANCH   6  22
TORSDOF 5
ENDMDL
MODEL 2
REMARK VINA RESULT:     -13.0      5.407     11.764
REMARK  Name = 24880024
REMARK  5 active torsions:
REMARK  status: ('A' for Active; 'I' for Inactive)
REMARK    1  A    between atoms: N_5  and  C_12
REMARK    2  A    between atoms: C_6  and  C_22
REMARK    3  A    between atoms: C_13  and  C_21
REMARK    4  A    between atoms: C_22  and  C_23
REMARK    5  A    between atoms: C_23  and  N_25
REMARK                            x       y       z     vdW  Elec       q    Type
REMARK                         _______ _______ _______ _____ _____    ______ ____
ROOT
ATOM      1  S   UNL     1      34.204 -23.244 -16.877  0.00  0.00    -0.056 S 
ATOM      2  O   UNL     1      32.572 -20.617 -20.375  0.00  0.00    -0.252 OA
ATOM      3  N   UNL     1      32.045 -22.369 -17.998  0.00  0.00    -0.223 NA
ATOM      4  N   UNL     1      34.135 -21.685 -18.983  0.00  0.00    -0.248 N 
ATOM      5  N   UNL     1      34.864 -20.373 -20.771  0.00  0.00    -0.268 N 
ATOM      6  C   UNL     1      32.701 -23.710 -16.196  0.00  0.00    +0.031 C 
ATOM      7  C   UNL     1      31.671 -23.152 -16.924  0.00  0.00    +0.103 C 
ATOM      8  C   UNL     1      33.358 -22.345 -18.069  0.00  0.00    +0.166 C 
ATOM      9  C   UNL     1      33.739 -20.858 -20.085  0.00  0.00    +0.310 C 
ATOM     10  H   UNL     1      35.107 -21.793 -18.866  0.00  0.00    +0.158 HD
ATOM     11  H   UNL     1      35.739 -20.653 -20.419  0.00  0.00    +0.156 HD
ENDROOT
BRANCH   5  12
ATOM     12  C   UNL     1      34.894 -19.530 -21.907  0.00  0.00    +0.052 C 
ATOM     13  C   UNL     1      34.848 -17.315 -22.870  0.00  0.00    +0.073 C 
ATOM     14  C   UNL     1      34.818 -18.146 -21.751  0.00  0.00    +0.019 C 
ATOM     15  C   UNL     1      35.000 -20.082 -23.183  0.00  0.00    +0.015 C 
ATOM     16  C   UNL     1      34.954 -17.867 -24.146  0.00  0.00    +0.004 C 
ATOM     17  C   UNL     1      35.030 -19.251 -24.303  0.00  0.00    +0.001 C 
BRANCH  13  21
ATOM     18  F   UNL     1      33.512 -15.330 -22.892  0.00  0.00    -0.166 F 
ATOM     19  F   UNL     1      35.141 -15.403 -21.463  0.00  0.00    -0.166 F 
ATOM     20  F   UNL     1      35.567 -15.163 -23.582  0.00  0.00    -0.166 F 
ATOM     21  C   UNL     1      34.766 -15.835 -22.704  0.00  0.00    +0.419 C 
ENDBRANCH  13  21
ENDBRANCH   5  12
BRANCH   6  22
ATOM     22  C   UNL     1      32.653 -24.603 -14.980  0.00  0.00    +0.056 C 
BRANCH  22  23
ATOM     23  C   UNL     1      33.664 -24.208 -13.905  0.00  0.00    +0.093 C 
BRANCH  23  25
ATOM     24  S   UNL     1      37.732 -26.186 -14.936  0.00  0.00    -0.101 S 
ATOM     25  N   UNL     1      34.948 -24.780 -14.174  0.00  0.00    -0.320 N 
ATOM     26  N   UNL     1      36.036 -23.486 -12.498  0.00  0.00    -0.233 NA
ATOM     27  N   UNL     1      38.408 -23.667 -12.058  0.00  0.00    -0.247 NA
ATOM     28  C   UNL     1      36.112 -24.415 -13.472  0.00  0.00    +0.118 C 
ATOM     29  C   UNL     1      37.341 -24.995 -13.764  0.00  0.00    +0.145 C 
ATOM     30  C   UNL     1      38.468 -24.602 -13.043  0.00  0.00    +0.073 C 
ATOM     31  C   UNL     1      39.641 -25.294 -13.470  0.00  0.00    +0.022 C 
ATOM     32  C   UNL     1      39.382 -26.181 -14.490  0.00  0.00    +0.033 C 
ATOM     33  C   UNL     1      37.176 -23.172 -11.856  0.00  0.00    +0.251 C 
ATOM     34  H   UNL     1      35.021 -25.459 -14.883  0.00  0.00    +0.148 HD
ENDBRANCH  23  25
ENDBRANCH  22  23
ENDBRANCH   6  22
TORSDOF 5
ENDMDL
MODEL 3
REMARK VINA RESULT:     -12.9      2.134      2.737
REMARK  Name = 24880024
REMARK  5 active torsions:
REMARK  status: ('A' for Active; 'I' for Inactive)
REMARK    1  A    between atoms: N_5  and  C_12
REMARK    2  A    between atoms: C_6  and  C_22
REMARK    3  A    between atoms: C_13  and  C_21
REMARK    4  A    between atoms: C_22  and  C_23
REMARK    5  A    between atoms: C_23  and  N_25
REMARK                            x       y       z     vdW  Elec       q    Type
REMARK                         _______ _______ _______ _____ _____    ______ ____
ROOT
ATOM      1  S   UNL     1      36.506 -19.766 -21.026  0.00  0.00    -0.056 S 
ATOM      2  O   UNL     1      34.949 -22.562 -17.626  0.00  0.00    -0.252 OA
ATOM      3  N   UNL     1      34.434 -21.050 -20.165  0.00  0.00    -0.223 NA
ATOM      4  N   UNL     1      36.446 -21.229 -18.852  0.00  0.00    -0.248 N 
ATOM      5  N   UNL     1      37.153 -22.287 -16.895  0.00  0.00    -0.268 N 
ATOM      6  C   UNL     1      35.060 -19.662 -21.942  0.00  0.00    +0.031 C 
ATOM      7  C   UNL     1      34.071 -20.405 -21.331  0.00  0.00    +0.103 C 
ATOM      8  C   UNL     1      35.696 -20.785 -19.908  0.00  0.00    +0.166 C 
ATOM      9  C   UNL     1      36.070 -22.082 -17.764  0.00  0.00    +0.310 C 
ATOM     10  H   UNL     1      37.379 -20.916 -18.837  0.00  0.00    +0.158 HD
ATOM     11  H   UNL     1      37.994 -21.835 -17.138  0.00  0.00    +0.156 HD
ENDROOT
BRANCH   5  12
ATOM     12  C   UNL     1      37.186 -23.064 -15.713  0.00  0.00    +0.052 C 
ATOM     13  C   UNL     1      38.304 -24.667 -14.293  0.00  0.00    +0.073 C 
ATOM     14  C   UNL     1      38.272 -23.902 -15.458  0.00  0.00    +0.019 C 
ATOM     15  C   UNL     1      36.133 -22.991 -14.801  0.00  0.00    +0.015 C 
ATOM     16  C   UNL     1      37.251 -24.594 -13.381  0.00  0.00    +0.004 C 
ATOM     17  C   UNL     1      36.165 -23.756 -13.635  0.00  0.00    +0.001 C 
BRANCH  13  21
ATOM     18  F   UNL     1      39.702 -26.470 -15.014  0.00  0.00    -0.166 F 
ATOM     19  F   UNL     1      40.645 -24.896 -13.857  0.00  0.00    -0.166 F 
ATOM     20  F   UNL     1      39.302 -26.302 -12.884  0.00  0.00    -0.166 F 
ATOM     21  C   UNL     1      39.464 -25.564 -14.020  0.00  0.00    +0.419 C 
ENDBRANCH  13  21
ENDBRANCH   5  12
BRANCH   6  22
ATOM     22  C   UNL     1      35.011 -18.843 -23.209  0.00  0.00    +0.056 C 
BRANCH  22  23
ATOM     23  C   UNL     1      35.772 -17.523 -23.099  0.00  0.00    +0.093 C 
BRANCH  23  25
ATOM     24  S   UNL     1      33.229 -14.370 -20.837  0.00  0.00    -0.101 S 
ATOM     25  N   UNL     1      34.972 -16.521 -22.462  0.00  0.00    -0.320 N 
ATOM     26  N   UNL     1      34.403 -15.463 -24.516  0.00  0.00    -0.233 NA
ATOM     27  N   UNL     1      32.980 -13.509 -24.616  0.00  0.00    -0.247 NA
ATOM     28  C   UNL     1      34.302 -15.509 -23.173  0.00  0.00    +0.118 C 
ATOM     29  C   UNL     1      33.534 -14.554 -22.516  0.00  0.00    +0.145 C 
ATOM     30  C   UNL     1      32.888 -13.569 -23.261  0.00  0.00    +0.073 C 
ATOM     31  C   UNL     1      32.147 -12.675 -22.432  0.00  0.00    +0.022 C 
ATOM     32  C   UNL     1      32.248 -12.996 -21.098  0.00  0.00    +0.033 C 
ATOM     33  C   UNL     1      33.743 -14.476 -25.150  0.00  0.00    +0.251 C 
ATOM     34  H   UNL     1      34.889 -16.541 -21.481  0.00  0.00    +0.148 HD
ENDBRANCH  23  25
ENDBRANCH  22  23
ENDBRANCH   6  22
TORSDOF 5
ENDMDL
MODEL 4
REMARK VINA RESULT:     -12.7      2.201      2.929
REMARK  Name = 24880024
REMARK  5 active torsions:
REMARK  status: ('A' for Active; 'I' for Inactive)
REMARK    1  A    between atoms: N_5  and  C_12
REMARK    2  A    between atoms: C_6  and  C_22
REMARK    3  A    between atoms: C_13  and  C_21
REMARK    4  A    between atoms: C_22  and  C_23
REMARK    5  A    between atoms: C_23  and  N_25
REMARK                            x       y       z     vdW  Elec       q    Type
REMARK                         _______ _______ _______ _____ _____    ______ ____
ROOT
ATOM      1  S   UNL     1      37.050 -19.438 -20.974  0.00  0.00    -0.056 S 
ATOM      2  O   UNL     1      35.224 -22.511 -17.969  0.00  0.00    -0.252 OA
ATOM      3  N   UNL     1      34.989 -20.928 -20.506  0.00  0.00    -0.223 NA
ATOM      4  N   UNL     1      36.773 -21.003 -18.888  0.00  0.00    -0.248 N 
ATOM      5  N   UNL     1      37.250 -22.091 -16.879  0.00  0.00    -0.268 N 
ATOM      6  C   UNL     1      35.766 -19.410 -22.109  0.00  0.00    +0.031 C 
ATOM      7  C   UNL     1      34.762 -20.259 -21.693  0.00  0.00    +0.103 C 
ATOM      8  C   UNL     1      36.165 -20.572 -20.037  0.00  0.00    +0.166 C 
ATOM      9  C   UNL     1      36.305 -21.935 -17.906  0.00  0.00    +0.310 C 
ATOM     10  H   UNL     1      37.661 -20.615 -18.711  0.00  0.00    +0.158 HD
ATOM     11  H   UNL     1      38.075 -21.561 -16.966  0.00  0.00    +0.156 HD
ENDROOT
BRANCH   5  12
ATOM     12  C   UNL     1      37.162 -22.918 -15.734  0.00  0.00    +0.052 C 
ATOM     13  C   UNL     1      38.121 -24.600 -14.289  0.00  0.00    +0.073 C 
ATOM     14  C   UNL     1      38.207 -23.786 -15.418  0.00  0.00    +0.019 C 
ATOM     15  C   UNL     1      36.031 -22.864 -14.921  0.00  0.00    +0.015 C 
ATOM     16  C   UNL     1      36.989 -24.547 -13.476  0.00  0.00    +0.004 C 
ATOM     17  C   UNL     1      35.944 -23.678 -13.791  0.00  0.00    +0.001 C 
BRANCH  13  21
ATOM     18  F   UNL     1      40.450 -24.912 -13.845  0.00  0.00    -0.166 F 
ATOM     19  F   UNL     1      39.065 -26.182 -12.763  0.00  0.00    -0.166 F 
ATOM     20  F   UNL     1      39.406 -26.509 -14.886  0.00  0.00    -0.166 F 
ATOM     21  C   UNL     1      39.238 -25.529 -13.951  0.00  0.00    +0.419 C 
ENDBRANCH  13  21
ENDBRANCH   5  12
BRANCH   6  22
ATOM     22  C   UNL     1      35.847 -18.539 -23.339  0.00  0.00    +0.056 C 
BRANCH  22  23
ATOM     23  C   UNL     1      34.607 -18.635 -24.226  0.00  0.00    +0.093 C 
BRANCH  23  25
ATOM     24  S   UNL     1      33.609 -14.648 -26.377  0.00  0.00    -0.101 S 
ATOM     25  N   UNL     1      34.310 -17.372 -24.830  0.00  0.00    -0.320 N 
ATOM     26  N   UNL     1      34.659 -16.161 -22.811  0.00  0.00    -0.233 NA
ATOM     27  N   UNL     1      34.405 -13.758 -22.682  0.00  0.00    -0.247 NA
ATOM     28  C   UNL     1      34.339 -16.157 -24.120  0.00  0.00    +0.118 C 
ATOM     29  C   UNL     1      34.043 -14.951 -24.745  0.00  0.00    +0.145 C 
ATOM     30  C   UNL     1      34.084 -13.772 -24.002  0.00  0.00    +0.073 C 
ATOM     31  C   UNL     1      33.756 -12.631 -24.795  0.00  0.00    +0.022 C 
ATOM     32  C   UNL     1      33.477 -12.967 -26.100  0.00  0.00    +0.033 C 
ATOM     33  C   UNL     1      34.673 -14.974 -22.178  0.00  0.00    +0.251 C 
ATOM     34  H   UNL     1      34.073 -17.352 -25.785  0.00  0.00    +0.148 HD
ENDBRANCH  23  25
ENDBRANCH  22  23
ENDBRANCH   6  22
TORSDOF 5
ENDMDL
MODEL 5
REMARK VINA RESULT:     -12.6      5.958     11.777
REMARK  Name = 24880024
REMARK  5 active torsions:
REMARK  status: ('A' for Active; 'I' for Inactive)
REMARK    1  A    between atoms: N_5  and  C_12
REMARK    2  A    between atoms: C_6  and  C_22
REMARK    3  A    between atoms: C_13  and  C_21
REMARK    4  A    between atoms: C_22  and  C_23
REMARK    5  A    between atoms: C_23  and  N_25
REMARK                            x       y       z     vdW  Elec       q    Type
REMARK                         _______ _______ _______ _____ _____    ______ ____
ROOT
ATOM      1  S   UNL     1      33.749 -23.702 -16.412  0.00  0.00    -0.056 S 
ATOM      2  O   UNL     1      33.097 -20.734 -19.957  0.00  0.00    -0.252 OA
ATOM      3  N   UNL     1      31.951 -22.421 -17.758  0.00  0.00    -0.223 NA
ATOM      4  N   UNL     1      34.243 -22.103 -18.430  0.00  0.00    -0.248 N 
ATOM      5  N   UNL     1      35.429 -20.901 -20.042  0.00  0.00    -0.268 N 
ATOM      6  C   UNL     1      32.109 -23.904 -15.955  0.00  0.00    +0.031 C 
ATOM      7  C   UNL     1      31.302 -23.150 -16.782  0.00  0.00    +0.103 C 
ATOM      8  C   UNL     1      33.245 -22.635 -17.658  0.00  0.00    +0.166 C 
ATOM      9  C   UNL     1      34.153 -21.191 -19.531  0.00  0.00    +0.310 C 
ATOM     10  H   UNL     1      35.156 -22.389 -18.195  0.00  0.00    +0.158 HD
ATOM     11  H   UNL     1      36.185 -21.345 -19.594  0.00  0.00    +0.156 HD
ENDROOT
BRANCH   5  12
ATOM     12  C   UNL     1      35.761 -20.048 -21.121  0.00  0.00    +0.052 C 
ATOM     13  C   UNL     1      35.359 -19.266 -23.371  0.00  0.00    +0.073 C 
ATOM     14  C   UNL     1      35.032 -20.107 -22.308  0.00  0.00    +0.019 C 
ATOM     15  C   UNL     1      36.819 -19.147 -20.997  0.00  0.00    +0.015 C 
ATOM     16  C   UNL     1      36.416 -18.365 -23.247  0.00  0.00    +0.004 C 
ATOM     17  C   UNL     1      37.146 -18.305 -22.060  0.00  0.00    +0.001 C 
BRANCH  13  21
ATOM     18  F   UNL     1      33.227 -19.281 -24.457  0.00  0.00    -0.166 F 
ATOM     19  F   UNL     1      34.857 -18.307 -25.504  0.00  0.00    -0.166 F 
ATOM     20  F   UNL     1      34.813 -20.475 -25.344  0.00  0.00    -0.166 F 
ATOM     21  C   UNL     1      34.579 -19.329 -24.641  0.00  0.00    +0.419 C 
ENDBRANCH  13  21
ENDBRANCH   5  12
BRANCH   6  22
ATOM     22  C   UNL     1      31.739 -24.805 -14.802  0.00  0.00    +0.056 C 
BRANCH  22  23
ATOM     23  C   UNL     1      32.667 -24.649 -13.598  0.00  0.00    +0.093 C 
BRANCH  23  25
ATOM     24  S   UNL     1      36.944 -25.898 -14.891  0.00  0.00    -0.101 S 
ATOM     25  N   UNL     1      34.010 -25.015 -13.935  0.00  0.00    -0.320 N 
ATOM     26  N   UNL     1      34.877 -24.336 -11.825  0.00  0.00    -0.233 NA
ATOM     27  N   UNL     1      37.225 -24.524 -11.269  0.00  0.00    -0.247 NA
ATOM     28  C   UNL     1      35.092 -24.854 -13.050  0.00  0.00    +0.118 C 
ATOM     29  C   UNL     1      36.382 -25.222 -13.417  0.00  0.00    +0.145 C 
ATOM     30  C   UNL     1      37.425 -25.045 -12.509  0.00  0.00    +0.073 C 
ATOM     31  C   UNL     1      38.676 -25.473 -13.044  0.00  0.00    +0.022 C 
ATOM     32  C   UNL     1      38.557 -25.956 -14.327  0.00  0.00    +0.033 C 
ATOM     33  C   UNL     1      35.945 -24.204 -11.017  0.00  0.00    +0.251 C 
ATOM     34  H   UNL     1      34.183 -25.394 -14.827  0.00  0.00    +0.148 HD
ENDBRANCH  23  25
ENDBRANCH  22  23
ENDBRANCH   6  22
TORSDOF 5
ENDMDL
MODEL 6
REMARK VINA RESULT:     -12.2      7.995     11.926
REMARK  Name = 24880024
REMARK  5 active torsions:
REMARK  status: ('A' for Active; 'I' for Inactive)
REMARK    1  A    between atoms: N_5  and  C_12
REMARK    2  A    between atoms: C_6  and  C_22
REMARK    3  A    between atoms: C_13  and  C_21
REMARK    4  A    between atoms: C_22  and  C_23
REMARK    5  A    between atoms: C_23  and  N_25
REMARK                            x       y       z     vdW  Elec       q    Type
REMARK                         _______ _______ _______ _____ _____    ______ ____
ROOT
ATOM      1  S   UNL     1      32.973  -9.954 -23.294  0.00  0.00    -0.056 S 
ATOM      2  O   UNL     1      32.801 -14.485 -22.181  0.00  0.00    -0.252 OA
ATOM      3  N   UNL     1      31.909 -11.666 -21.675  0.00  0.00    -0.223 NA
ATOM      4  N   UNL     1      33.435 -12.534 -23.326  0.00  0.00    -0.248 N 
ATOM      5  N   UNL     1      34.310 -14.602 -23.963  0.00  0.00    -0.268 N 
ATOM      6  C   UNL     1      31.880  -9.367 -22.110  0.00  0.00    +0.031 C 
ATOM      7  C   UNL     1      31.420 -10.418 -21.344  0.00  0.00    +0.103 C 
ATOM      8  C   UNL     1      32.737 -11.542 -22.689  0.00  0.00    +0.166 C 
ATOM      9  C   UNL     1      33.453 -13.943 -23.068  0.00  0.00    +0.310 C 
ATOM     10  H   UNL     1      34.007 -12.236 -24.070  0.00  0.00    +0.158 HD
ATOM     11  H   UNL     1      34.767 -14.032 -24.623  0.00  0.00    +0.156 HD
ENDROOT
BRANCH   5  12
ATOM     12  C   UNL     1      34.598 -15.986 -24.035  0.00  0.00    +0.052 C 
ATOM     13  C   UNL     1      35.609 -17.964 -23.087  0.00  0.00    +0.073 C 
ATOM     14  C   UNL     1      35.326 -16.601 -23.017  0.00  0.00    +0.019 C 
ATOM     15  C   UNL     1      34.152 -16.735 -25.124  0.00  0.00    +0.015 C 
ATOM     16  C   UNL     1      35.163 -18.713 -24.176  0.00  0.00    +0.004 C 
ATOM     17  C   UNL     1      34.435 -18.099 -25.194  0.00  0.00    +0.001 C 
BRANCH  13  21
ATOM     18  F   UNL     1      35.938 -19.871 -21.681  0.00  0.00    -0.166 F 
ATOM     19  F   UNL     1      37.712 -18.787 -22.298  0.00  0.00    -0.166 F 
ATOM     20  F   UNL     1      36.362 -17.915 -20.833  0.00  0.00    -0.166 F 
ATOM     21  C   UNL     1      36.389 -18.623 -21.999  0.00  0.00    +0.419 C 
ENDBRANCH  13  21
ENDBRANCH   5  12
BRANCH   6  22
ATOM     22  C   UNL     1      31.557  -7.895 -22.026  0.00  0.00    +0.056 C 
BRANCH  22  23
ATOM     23  C   UNL     1      32.757  -6.999 -22.334  0.00  0.00    +0.093 C 
BRANCH  23  25
ATOM     24  S   UNL     1      31.409  -3.568 -25.150  0.00  0.00    -0.101 S 
ATOM     25  N   UNL     1      32.396  -5.953 -23.242  0.00  0.00    -0.320 N 
ATOM     26  N   UNL     1      34.280  -6.328 -24.647  0.00  0.00    -0.233 NA
ATOM     27  N   UNL     1      34.692  -5.015 -26.638  0.00  0.00    -0.247 NA
ATOM     28  C   UNL     1      33.157  -5.632 -24.381  0.00  0.00    +0.118 C 
ATOM     29  C   UNL     1      32.772  -4.607 -25.238  0.00  0.00    +0.145 C 
ATOM     30  C   UNL     1      33.557  -4.323 -26.355  0.00  0.00    +0.073 C 
ATOM     31  C   UNL     1      33.019  -3.247 -27.124  0.00  0.00    +0.022 C 
ATOM     32  C   UNL     1      31.857  -2.748 -26.581  0.00  0.00    +0.033 C 
ATOM     33  C   UNL     1      34.972  -5.981 -25.748  0.00  0.00    +0.251 C 
ATOM     34  H   UNL     1      31.579  -5.435 -23.061  0.00  0.00    +0.148 HD
ENDBRANCH  23  25
ENDBRANCH  22  23
ENDBRANCH   6  22
TORSDOF 5
ENDMDL
MODEL 7
REMARK VINA RESULT:     -12.0      8.212     12.471
REMARK  Name = 24880024
REMARK  5 active torsions:
REMARK  status: ('A' for Active; 'I' for Inactive)
REMARK    1  A    between atoms: N_5  and  C_12
REMARK    2  A    between atoms: C_6  and  C_22
REMARK    3  A    between atoms: C_13  and  C_21
REMARK    4  A    between atoms: C_22  and  C_23
REMARK    5  A    between atoms: C_23  and  N_25
REMARK                            x       y       z     vdW  Elec       q    Type
REMARK                         _______ _______ _______ _____ _____    ______ ____
ROOT
ATOM      1  S   UNL     1      33.135  -9.581 -23.309  0.00  0.00    -0.056 S 
ATOM      2  O   UNL     1      32.646 -14.133 -22.394  0.00  0.00    -0.252 OA
ATOM      3  N   UNL     1      31.851 -11.292 -21.856  0.00  0.00    -0.223 NA
ATOM      4  N   UNL     1      33.472 -12.179 -23.403  0.00  0.00    -0.248 N 
ATOM      5  N   UNL     1      34.299 -14.266 -24.044  0.00  0.00    -0.268 N 
ATOM      6  C   UNL     1      31.971  -8.981 -22.201  0.00  0.00    +0.031 C 
ATOM      7  C   UNL     1      31.396 -10.033 -21.520  0.00  0.00    +0.103 C 
ATOM      8  C   UNL     1      32.770 -11.176 -22.790  0.00  0.00    +0.166 C 
ATOM      9  C   UNL     1      33.399 -13.595 -23.200  0.00  0.00    +0.310 C 
ATOM     10  H   UNL     1      34.121 -11.885 -24.083  0.00  0.00    +0.158 HD
ATOM     11  H   UNL     1      34.839 -13.697 -24.639  0.00  0.00    +0.156 HD
ENDROOT
BRANCH   5  12
ATOM     12  C   UNL     1      34.525 -15.659 -24.145  0.00  0.00    +0.052 C 
ATOM     13  C   UNL     1      35.440 -17.702 -23.237  0.00  0.00    +0.073 C 
ATOM     14  C   UNL     1      35.218 -16.329 -23.137  0.00  0.00    +0.019 C 
ATOM     15  C   UNL     1      34.052 -16.363 -25.252  0.00  0.00    +0.015 C 
ATOM     16  C   UNL     1      34.968 -18.406 -24.344  0.00  0.00    +0.004 C 
ATOM     17  C   UNL     1      34.273 -17.737 -25.352  0.00  0.00    +0.001 C 
BRANCH  13  21
ATOM     18  F   UNL     1      35.697 -19.667 -21.897  0.00  0.00    -0.166 F 
ATOM     19  F   UNL     1      37.507 -18.603 -22.439  0.00  0.00    -0.166 F 
ATOM     20  F   UNL     1      36.149 -17.754 -20.968  0.00  0.00    -0.166 F 
ATOM     21  C   UNL     1      36.182 -18.419 -22.160  0.00  0.00    +0.419 C 
ENDBRANCH  13  21
ENDBRANCH   5  12
BRANCH   6  22
ATOM     22  C   UNL     1      31.714  -7.498 -22.087  0.00  0.00    +0.056 C 
BRANCH  22  23
ATOM     23  C   UNL     1      31.019  -6.913 -23.317  0.00  0.00    +0.093 C 
BRANCH  23  25
ATOM     24  S   UNL     1      34.213  -5.225 -26.228  0.00  0.00    -0.101 S 
ATOM     25  N   UNL     1      31.970  -6.333 -24.215  0.00  0.00    -0.320 N 
ATOM     26  N   UNL     1      30.834  -4.243 -24.296  0.00  0.00    -0.233 NA
ATOM     27  N   UNL     1      31.635  -2.384 -25.622  0.00  0.00    -0.247 NA
ATOM     28  C   UNL     1      31.867  -5.013 -24.692  0.00  0.00    +0.118 C 
ATOM     29  C   UNL     1      32.813  -4.487 -25.565  0.00  0.00    +0.145 C 
ATOM     30  C   UNL     1      32.670  -3.174 -26.012  0.00  0.00    +0.073 C 
ATOM     31  C   UNL     1      33.724  -2.796 -26.897  0.00  0.00    +0.022 C 
ATOM     32  C   UNL     1      34.626  -3.815 -27.100  0.00  0.00    +0.033 C 
ATOM     33  C   UNL     1      30.781  -2.988 -24.780  0.00  0.00    +0.251 C 
ATOM     34  H   UNL     1      32.730  -6.883 -24.515  0.00  0.00    +0.148 HD
ENDBRANCH  23  25
ENDBRANCH  22  23
ENDBRANCH   6  22
TORSDOF 5
ENDMDL
MODEL 8
REMARK VINA RESULT:     -11.8      7.955     13.819
REMARK  Name = 24880024
REMARK  5 active torsions:
REMARK  status: ('A' for Active; 'I' for Inactive)
REMARK    1  A    between atoms: N_5  and  C_12
REMARK    2  A    between atoms: C_6  and  C_22
REMARK    3  A    between atoms: C_13  and  C_21
REMARK    4  A    between atoms: C_22  and  C_23
REMARK    5  A    between atoms: C_23  and  N_25
REMARK                            x       y       z     vdW  Elec       q    Type
REMARK                         _______ _______ _______ _____ _____    ______ ____
ROOT
ATOM      1  S   UNL     1      34.714 -16.092 -22.695  0.00  0.00    -0.056 S 
ATOM      2  O   UNL     1      33.506 -12.292 -25.124  0.00  0.00    -0.252 OA
ATOM      3  N   UNL     1      34.293 -15.186 -25.079  0.00  0.00    -0.223 NA
ATOM      4  N   UNL     1      34.009 -13.631 -23.261  0.00  0.00    -0.248 N 
ATOM      5  N   UNL     1      33.424 -11.391 -22.968  0.00  0.00    -0.268 N 
ATOM      6  C   UNL     1      34.903 -17.176 -24.010  0.00  0.00    +0.031 C 
ATOM      7  C   UNL     1      34.641 -16.518 -25.193  0.00  0.00    +0.103 C 
ATOM      8  C   UNL     1      34.299 -14.853 -23.807  0.00  0.00    +0.166 C 
ATOM      9  C   UNL     1      33.630 -12.412 -23.910  0.00  0.00    +0.310 C 
ATOM     10  H   UNL     1      34.070 -13.584 -22.279  0.00  0.00    +0.158 HD
ATOM     11  H   UNL     1      33.562 -11.638 -22.025  0.00  0.00    +0.156 HD
ENDROOT
BRANCH   5  12
ATOM     12  C   UNL     1      33.042 -10.050 -23.207  0.00  0.00    +0.052 C 
ATOM     13  C   UNL     1      33.615  -7.793 -23.850  0.00  0.00    +0.073 C 
ATOM     14  C   UNL     1      33.993  -9.114 -23.613  0.00  0.00    +0.019 C 
ATOM     15  C   UNL     1      31.712  -9.663 -23.038  0.00  0.00    +0.015 C 
ATOM     16  C   UNL     1      32.286  -7.406 -23.681  0.00  0.00    +0.004 C 
ATOM     17  C   UNL     1      31.334  -8.342 -23.275  0.00  0.00    +0.001 C 
BRANCH  13  21
ATOM     18  F   UNL     1      34.157  -5.512 -24.329  0.00  0.00    -0.166 F 
ATOM     19  F   UNL     1      35.727  -6.736 -23.468  0.00  0.00    -0.166 F 
ATOM     20  F   UNL     1      35.119  -7.046 -25.533  0.00  0.00    -0.166 F 
ATOM     21  C   UNL     1      34.632  -6.791 -24.284  0.00  0.00    +0.419 C 
ENDBRANCH  13  21
ENDBRANCH   5  12
BRANCH   6  22
ATOM     22  C   UNL     1      35.304 -18.611 -23.770  0.00  0.00    +0.056 C 
BRANCH  22  23
ATOM     23  C   UNL     1      35.895 -18.845 -22.380  0.00  0.00    +0.093 C 
BRANCH  23  25
ATOM     24  S   UNL     1      32.864 -21.317 -19.886  0.00  0.00    -0.101 S 
ATOM     25  N   UNL     1      35.012 -19.631 -21.573  0.00  0.00    -0.320 N 
ATOM     26  N   UNL     1      36.779 -20.509 -20.242  0.00  0.00    -0.233 NA
ATOM     27  N   UNL     1      36.387 -22.066 -18.432  0.00  0.00    -0.247 NA
ATOM     28  C   UNL     1      35.462 -20.449 -20.520  0.00  0.00    +0.118 C 
ATOM     29  C   UNL     1      34.571 -21.198 -19.760  0.00  0.00    +0.145 C 
ATOM     30  C   UNL     1      35.062 -21.995 -18.726  0.00  0.00    +0.073 C 
ATOM     31  C   UNL     1      34.016 -22.694 -18.051  0.00  0.00    +0.022 C 
ATOM     32  C   UNL     1      32.777 -22.416 -18.579  0.00  0.00    +0.033 C 
ATOM     33  C   UNL     1      37.158 -21.305 -19.225  0.00  0.00    +0.251 C 
ATOM     34  H   UNL     1      34.047 -19.600 -21.765  0.00  0.00    +0.148 HD
ENDBRANCH  23  25
ENDBRANCH  22  23
ENDBRANCH   6  22
TORSDOF 5
ENDMDL
MODEL 9
REMARK VINA RESULT:     -11.8      5.940     11.379
REMARK  Name = 24880024
REMARK  5 active torsions:
REMARK  status: ('A' for Active; 'I' for Inactive)
REMARK    1  A    between atoms: N_5  and  C_12
REMARK    2  A    between atoms: C_6  and  C_22
REMARK    3  A    between atoms: C_13  and  C_21
REMARK    4  A    between atoms: C_22  and  C_23
REMARK    5  A    between atoms: C_23  and  N_25
REMARK                            x       y       z     vdW  Elec       q    Type
REMARK                         _______ _______ _______ _____ _____    ______ ____
ROOT
ATOM      1  S   UNL     1      34.912 -22.721 -17.943  0.00  0.00    -0.056 S 
ATOM      2  O   UNL     1      36.653 -19.347 -20.661  0.00  0.00    -0.252 OA
ATOM      3  N   UNL     1      36.926 -21.131 -18.266  0.00  0.00    -0.223 NA
ATOM      4  N   UNL     1      35.146 -20.972 -19.882  0.00  0.00    -0.248 N 
ATOM      5  N   UNL     1      34.644 -19.733 -21.796  0.00  0.00    -0.268 N 
ATOM      6  C   UNL     1      36.197 -22.813 -16.811  0.00  0.00    +0.031 C 
ATOM      7  C   UNL     1      37.172 -21.896 -17.143  0.00  0.00    +0.103 C 
ATOM      8  C   UNL     1      35.762 -21.480 -18.770  0.00  0.00    +0.166 C 
ATOM      9  C   UNL     1      35.589 -19.947 -20.779  0.00  0.00    +0.310 C 
ATOM     10  H   UNL     1      34.270 -21.370 -20.097  0.00  0.00    +0.158 HD
ATOM     11  H   UNL     1      33.836 -20.294 -21.759  0.00  0.00    +0.156 HD
ENDROOT
BRANCH   5  12
ATOM     12  C   UNL     1      34.712 -18.812 -22.868  0.00  0.00    +0.052 C 
ATOM     13  C   UNL     1      34.629 -16.540 -23.683  0.00  0.00    +0.073 C 
ATOM     14  C   UNL     1      34.561 -17.447 -22.626  0.00  0.00    +0.019 C 
ATOM     15  C   UNL     1      34.932 -19.270 -24.167  0.00  0.00    +0.015 C 
ATOM     16  C   UNL     1      34.848 -16.998 -24.982  0.00  0.00    +0.004 C 
ATOM     17  C   UNL     1      35.000 -18.363 -25.224  0.00  0.00    +0.001 C 
BRANCH  13  21
ATOM     18  F   UNL     1      34.876 -14.292 -24.462  0.00  0.00    -0.166 F 
ATOM     19  F   UNL     1      33.175 -14.708 -23.183  0.00  0.00    -0.166 F 
ATOM     20  F   UNL     1      35.179 -14.656 -22.340  0.00  0.00    -0.166 F 
ATOM     21  C   UNL     1      34.467 -15.080 -23.425  0.00  0.00    +0.419 C 
ENDBRANCH  13  21
ENDBRANCH   5  12
BRANCH   6  22
ATOM     22  C   UNL     1      36.142 -23.795 -15.666  0.00  0.00    +0.056 C 
BRANCH  22  23
ATOM     23  C   UNL     1      35.088 -23.439 -14.620  0.00  0.00    +0.093 C 
BRANCH  23  25
ATOM     24  S   UNL     1      31.029 -22.681 -16.736  0.00  0.00    -0.101 S 
ATOM     25  N   UNL     1      33.806 -23.248 -15.228  0.00  0.00    -0.320 N 
ATOM     26  N   UNL     1      32.711 -24.734 -13.725  0.00  0.00    -0.233 NA
ATOM     27  N   UNL     1      30.340 -25.193 -13.855  0.00  0.00    -0.247 NA
ATOM     28  C   UNL     1      32.640 -23.894 -14.776  0.00  0.00    +0.118 C 
ATOM     29  C   UNL     1      31.414 -23.682 -15.396  0.00  0.00    +0.145 C 
ATOM     30  C   UNL     1      30.285 -24.344 -14.915  0.00  0.00    +0.073 C 
ATOM     31  C   UNL     1      29.115 -24.013 -15.662  0.00  0.00    +0.022 C 
ATOM     32  C   UNL     1      29.379 -23.123 -16.678  0.00  0.00    +0.033 C 
ATOM     33  C   UNL     1      31.569 -25.326 -13.332  0.00  0.00    +0.251 C 
ATOM     34  H   UNL     1      33.737 -22.639 -15.998  0.00  0.00    +0.148 HD
ENDBRANCH  23  25
ENDBRANCH  22  23
ENDBRANCH   6  22
TORSDOF 5
ENDMDL
