MODEL 1
REMARK VINA RESULT:     -12.8      0.000      0.000
REMARK  Name = 2765355
REMARK  2 active torsions:
REMARK  status: ('A' for Active; 'I' for Inactive)
REMARK    1  A    between atoms: C_4  and  C_20
REMARK    2  A    between atoms: C_6  and  C_13
REMARK                            x       y       z     vdW  Elec       q    Type
REMARK                         _______ _______ _______ _____ _____    ______ ____
ROOT
ATOM      1  O   UNL     1      35.302 -18.167 -24.951  0.00  0.00    -0.353 OA
ATOM      2  N   UNL     1      34.881 -17.279 -25.931  0.00  0.00    -0.077 NA
ATOM      3  C   UNL     1      34.434 -16.452 -23.871  0.00  0.00    +0.058 A 
ATOM      4  C   UNL     1      35.032 -17.666 -23.717  0.00  0.00    +0.177 A 
ATOM      5  C   UNL     1      34.348 -16.223 -25.290  0.00  0.00    +0.123 A 
ATOM      6  C   UNL     1      33.432 -14.440 -23.381  0.00  0.00    +0.031 C 
ATOM      7  C   UNL     1      34.002 -15.615 -22.853  0.00  0.00    +0.007 C 
ATOM      8  C   UNL     1      33.773 -15.043 -25.792  0.00  0.00    +0.023 C 
ATOM      9  C   UNL     1      33.321 -14.165 -24.781  0.00  0.00    +0.004 C 
ENDROOT
BRANCH   6  13
ATOM     10  N   UNL     1      32.669 -12.244 -22.992  0.00  0.00    -0.338 NA
ATOM     11  N   UNL     1      31.971 -11.498 -20.809  0.00  0.00    -0.170 NA
ATOM     12  N   UNL     1      31.917 -10.047 -22.652  0.00  0.00    -0.293 N 
ATOM     13  C   UNL     1      32.926 -13.449 -22.450  0.00  0.00    +0.146 C 
ATOM     14  C   UNL     1      32.737 -13.759 -21.122  0.00  0.00    +0.055 C 
ATOM     15  C   UNL     1      32.251 -12.731 -20.338  0.00  0.00    +0.114 C 
ATOM     16  C   UNL     1      32.200 -11.327 -22.125  0.00  0.00    +0.141 C 
ATOM     17  H   UNL     1      32.065  -9.865 -23.609  0.00  0.00    +0.155 HD
ATOM     18  H   UNL     1      31.571  -9.338 -22.064  0.00  0.00    +0.155 HD
ENDBRANCH   6  13
BRANCH   4  20
ATOM     19 CL   UNL     1      36.651 -21.122 -19.148  0.00  0.00    -0.082 Cl
ATOM     20  C   UNL     1      35.422 -18.498 -22.615  0.00  0.00    +0.037 C 
ATOM     21  C   UNL     1      36.720 -18.424 -22.101  0.00  0.00    +0.004 C 
ATOM     22  C   UNL     1      34.508 -19.391 -22.048  0.00  0.00    +0.004 C 
ATOM     23  C   UNL     1      37.100 -19.233 -21.030  0.00  0.00    +0.011 C 
ATOM     24  C   UNL     1      34.887 -20.200 -20.977  0.00  0.00    +0.011 C 
ATOM     25  C   UNL     1      36.183 -20.123 -20.469  0.00  0.00    +0.058 C 
ENDBRANCH   4  20
TORSDOF 2
ENDMDL
MODEL 2
REMARK VINA RESULT:     -12.6      5.080      8.944
REMARK  Name = 2765355
REMARK  2 active torsions:
REMARK  status: ('A' for Active; 'I' for Inactive)
REMARK    1  A    between atoms: C_4  and  C_20
REMARK    2  A    between atoms: C_6  and  C_13
REMARK                            x       y       z     vdW  Elec       q    Type
REMARK                         _______ _______ _______ _____ _____    ______ ____
ROOT
ATOM      1  O   UNL     1      31.877  -9.820 -20.701  0.00  0.00    -0.353 OA
ATOM      2  N   UNL     1      31.772 -11.021 -20.013  0.00  0.00    -0.077 NA
ATOM      3  C   UNL     1      32.471 -11.384 -22.135  0.00  0.00    +0.058 A 
ATOM      4  C   UNL     1      32.297 -10.043 -21.973  0.00  0.00    +0.177 A 
ATOM      5  C   UNL     1      32.132 -11.990 -20.874  0.00  0.00    +0.123 A 
ATOM      6  C   UNL     1      32.963 -13.416 -23.097  0.00  0.00    +0.031 C 
ATOM      7  C   UNL     1      32.894 -12.022 -23.292  0.00  0.00    +0.007 C 
ATOM      8  C   UNL     1      32.208 -13.383 -20.705  0.00  0.00    +0.023 C 
ATOM      9  C   UNL     1      32.636 -14.067 -21.865  0.00  0.00    +0.004 C 
ENDROOT
BRANCH   6  13
ATOM     10  N   UNL     1      34.135 -15.309 -23.870  0.00  0.00    -0.338 NA
ATOM     11  N   UNL     1      34.256 -15.873 -26.210  0.00  0.00    -0.170 NA
ATOM     12  N   UNL     1      35.314 -17.205 -24.594  0.00  0.00    -0.293 N 
ATOM     13  C   UNL     1      33.390 -14.241 -24.211  0.00  0.00    +0.146 C 
ATOM     14  C   UNL     1      33.038 -13.921 -25.503  0.00  0.00    +0.055 C 
ATOM     15  C   UNL     1      33.505 -14.783 -26.474  0.00  0.00    +0.114 C 
ATOM     16  C   UNL     1      34.529 -16.073 -24.907  0.00  0.00    +0.141 C 
ATOM     17  H   UNL     1      35.544 -17.400 -23.656  0.00  0.00    +0.155 HD
ATOM     18  H   UNL     1      35.630 -17.798 -25.312  0.00  0.00    +0.155 HD
ENDBRANCH   6  13
BRANCH   4  20
ATOM     19 CL   UNL     1      32.903  -5.179 -25.351  0.00  0.00    -0.082 Cl
ATOM     20  C   UNL     1      32.443  -8.871 -22.788  0.00  0.00    +0.037 C 
ATOM     21  C   UNL     1      33.710  -8.323 -23.013  0.00  0.00    +0.004 C 
ATOM     22  C   UNL     1      31.320  -8.268 -23.363  0.00  0.00    +0.004 C 
ATOM     23  C   UNL     1      33.852  -7.183 -23.805  0.00  0.00    +0.011 C 
ATOM     24  C   UNL     1      31.462  -7.128 -24.154  0.00  0.00    +0.011 C 
ATOM     25  C   UNL     1      32.728  -6.585 -24.375  0.00  0.00    +0.058 C 
ENDBRANCH   4  20
TORSDOF 2
ENDMDL
MODEL 3
REMARK VINA RESULT:     -12.3      1.226      1.751
REMARK  Name = 2765355
REMARK  2 active torsions:
REMARK  status: ('A' for Active; 'I' for Inactive)
REMARK    1  A    between atoms: C_4  and  C_20
REMARK    2  A    between atoms: C_6  and  C_13
REMARK                            x       y       z     vdW  Elec       q    Type
REMARK                         _______ _______ _______ _____ _____    ______ ____
ROOT
ATOM      1  O   UNL     1      34.584 -16.670 -25.750  0.00  0.00    -0.353 OA
ATOM      2  N   UNL     1      34.177 -15.631 -26.576  0.00  0.00    -0.077 NA
ATOM      3  C   UNL     1      33.861 -15.083 -24.402  0.00  0.00    +0.058 A 
ATOM      4  C   UNL     1      34.392 -16.336 -24.447  0.00  0.00    +0.177 A 
ATOM      5  C   UNL     1      33.733 -14.650 -25.769  0.00  0.00    +0.123 A 
ATOM      6  C   UNL     1      32.999 -13.111 -23.588  0.00  0.00    +0.031 C 
ATOM      7  C   UNL     1      33.520 -14.378 -23.257  0.00  0.00    +0.007 C 
ATOM      8  C   UNL     1      33.209 -13.382 -26.073  0.00  0.00    +0.023 C 
ATOM      9  C   UNL     1      32.849 -12.634 -24.929  0.00  0.00    +0.004 C 
ENDROOT
BRANCH   6  13
ATOM     10  N   UNL     1      32.510 -10.933 -22.829  0.00  0.00    -0.338 NA
ATOM     11  N   UNL     1      31.831 -10.490 -20.560  0.00  0.00    -0.170 NA
ATOM     12  N   UNL     1      32.035  -8.747 -22.119  0.00  0.00    -0.293 N 
ATOM     13  C   UNL     1      32.590 -12.237 -22.505  0.00  0.00    +0.146 C 
ATOM     14  C   UNL     1      32.312 -12.744 -21.255  0.00  0.00    +0.055 C 
ATOM     15  C   UNL     1      31.933 -11.812 -20.310  0.00  0.00    +0.114 C 
ATOM     16  C   UNL     1      32.130 -10.125 -21.821  0.00  0.00    +0.141 C 
ATOM     17  H   UNL     1      32.241  -8.424 -23.026  0.00  0.00    +0.155 HD
ATOM     18  H   UNL     1      31.761  -8.112 -21.420  0.00  0.00    +0.155 HD
ENDBRANCH   6  13
BRANCH   4  20
ATOM     19 CL   UNL     1      35.983 -20.482 -20.482  0.00  0.00    -0.082 Cl
ATOM     20  C   UNL     1      34.777 -17.336 -23.492  0.00  0.00    +0.037 C 
ATOM     21  C   UNL     1      34.625 -18.693 -23.793  0.00  0.00    +0.004 C 
ATOM     22  C   UNL     1      35.304 -16.960 -22.253  0.00  0.00    +0.004 C 
ATOM     23  C   UNL     1      34.999 -19.665 -22.864  0.00  0.00    +0.011 C 
ATOM     24  C   UNL     1      35.677 -17.931 -21.324  0.00  0.00    +0.011 C 
ATOM     25  C   UNL     1      35.524 -19.283 -21.628  0.00  0.00    +0.058 C 
ENDBRANCH   4  20
TORSDOF 2
ENDMDL
MODEL 4
REMARK VINA RESULT:     -11.7      7.561     10.539
REMARK  Name = 2765355
REMARK  2 active torsions:
REMARK  status: ('A' for Active; 'I' for Inactive)
REMARK    1  A    between atoms: C_4  and  C_20
REMARK    2  A    between atoms: C_6  and  C_13
REMARK                            x       y       z     vdW  Elec       q    Type
REMARK                         _______ _______ _______ _____ _____    ______ ____
ROOT
ATOM      1  O   UNL     1      36.456 -22.694 -17.212  0.00  0.00    -0.353 OA
ATOM      2  N   UNL     1      36.463 -23.435 -16.038  0.00  0.00    -0.077 NA
ATOM      3  C   UNL     1      34.343 -23.150 -16.779  0.00  0.00    +0.058 A 
ATOM      4  C   UNL     1      35.182 -22.526 -17.651  0.00  0.00    +0.177 A 
ATOM      5  C   UNL     1      35.180 -23.725 -15.757  0.00  0.00    +0.123 A 
ATOM      6  C   UNL     1      32.420 -23.941 -15.794  0.00  0.00    +0.031 C 
ATOM      7  C   UNL     1      32.961 -23.211 -16.871  0.00  0.00    +0.007 C 
ATOM      8  C   UNL     1      34.616 -24.447 -14.691  0.00  0.00    +0.023 C 
ATOM      9  C   UNL     1      33.207 -24.530 -14.753  0.00  0.00    +0.004 C 
ENDROOT
BRANCH   6  13
ATOM     10  N   UNL     1      30.282 -23.263 -16.519  0.00  0.00    -0.338 NA
ATOM     11  N   UNL     1      28.266 -24.307 -15.713  0.00  0.00    -0.170 NA
ATOM     12  N   UNL     1      28.175 -22.553 -17.270  0.00  0.00    -0.293 N 
ATOM     13  C   UNL     1      30.980 -24.104 -15.734  0.00  0.00    +0.146 C 
ATOM     14  C   UNL     1      30.411 -25.059 -14.922  0.00  0.00    +0.055 C 
ATOM     15  C   UNL     1      29.032 -25.116 -14.952  0.00  0.00    +0.114 C 
ATOM     16  C   UNL     1      28.946 -23.417 -16.461  0.00  0.00    +0.141 C 
ATOM     17  H   UNL     1      28.620 -21.883 -17.838  0.00  0.00    +0.155 HD
ATOM     18  H   UNL     1      27.194 -22.622 -17.266  0.00  0.00    +0.155 HD
ENDBRANCH   6  13
BRANCH   4  20
ATOM     19 CL   UNL     1      34.605 -19.388 -22.678  0.00  0.00    -0.082 Cl
ATOM     20  C   UNL     1      35.044 -21.770 -18.864  0.00  0.00    +0.037 C 
ATOM     21  C   UNL     1      36.176 -21.291 -19.529  0.00  0.00    +0.004 C 
ATOM     22  C   UNL     1      33.774 -21.506 -19.388  0.00  0.00    +0.004 C 
ATOM     23  C   UNL     1      36.041 -20.556 -20.708  0.00  0.00    +0.011 C 
ATOM     24  C   UNL     1      33.639 -20.771 -20.565  0.00  0.00    +0.011 C 
ATOM     25  C   UNL     1      34.772 -20.295 -21.225  0.00  0.00    +0.058 C 
ENDBRANCH   4  20
TORSDOF 2
ENDMDL
MODEL 5
REMARK VINA RESULT:     -11.6      7.799     10.694
REMARK  Name = 2765355
REMARK  2 active torsions:
REMARK  status: ('A' for Active; 'I' for Inactive)
REMARK    1  A    between atoms: C_4  and  C_20
REMARK    2  A    between atoms: C_6  and  C_13
REMARK                            x       y       z     vdW  Elec       q    Type
REMARK                         _______ _______ _______ _____ _____    ______ ____
ROOT
ATOM      1  O   UNL     1      36.495 -22.671 -17.317  0.00  0.00    -0.353 OA
ATOM      2  N   UNL     1      36.456 -23.413 -16.144  0.00  0.00    -0.077 NA
ATOM      3  C   UNL     1      34.359 -23.030 -16.907  0.00  0.00    +0.058 A 
ATOM      4  C   UNL     1      35.235 -22.445 -17.770  0.00  0.00    +0.177 A 
ATOM      5  C   UNL     1      35.158 -23.643 -15.877  0.00  0.00    +0.123 A 
ATOM      6  C   UNL     1      32.391 -23.733 -15.944  0.00  0.00    +0.031 C 
ATOM      7  C   UNL     1      32.976 -23.029 -17.015  0.00  0.00    +0.007 C 
ATOM      8  C   UNL     1      34.550 -24.340 -14.818  0.00  0.00    +0.023 C 
ATOM      9  C   UNL     1      33.139 -24.359 -14.896  0.00  0.00    +0.004 C 
ENDROOT
BRANCH   6  13
ATOM     10  N   UNL     1      30.470 -24.884 -15.210  0.00  0.00    -0.338 NA
ATOM     11  N   UNL     1      28.244 -24.129 -15.741  0.00  0.00    -0.170 NA
ATOM     12  N   UNL     1      28.586 -26.064 -14.457  0.00  0.00    -0.293 N 
ATOM     13  C   UNL     1      30.945 -23.831 -15.900  0.00  0.00    +0.146 C 
ATOM     14  C   UNL     1      30.154 -22.896 -16.529  0.00  0.00    +0.055 C 
ATOM     15  C   UNL     1      28.794 -23.098 -16.415  0.00  0.00    +0.114 C 
ATOM     16  C   UNL     1      29.127 -24.972 -15.171  0.00  0.00    +0.141 C 
ATOM     17  H   UNL     1      29.185 -26.712 -14.020  0.00  0.00    +0.155 HD
ATOM     18  H   UNL     1      27.610 -26.177 -14.396  0.00  0.00    +0.155 HD
ENDBRANCH   6  13
BRANCH   4  20
ATOM     19 CL   UNL     1      34.856 -19.282 -22.800  0.00  0.00    -0.082 Cl
ATOM     20  C   UNL     1      35.144 -21.683 -18.984  0.00  0.00    +0.037 C 
ATOM     21  C   UNL     1      36.304 -21.230 -19.619  0.00  0.00    +0.004 C 
ATOM     22  C   UNL     1      33.895 -21.388 -19.538  0.00  0.00    +0.004 C 
ATOM     23  C   UNL     1      36.216 -20.489 -20.799  0.00  0.00    +0.011 C 
ATOM     24  C   UNL     1      33.806 -20.647 -20.716  0.00  0.00    +0.011 C 
ATOM     25  C   UNL     1      34.966 -20.197 -21.346  0.00  0.00    +0.058 C 
ENDBRANCH   4  20
TORSDOF 2
ENDMDL
MODEL 6
REMARK VINA RESULT:     -11.6      7.686     11.304
REMARK  Name = 2765355
REMARK  2 active torsions:
REMARK  status: ('A' for Active; 'I' for Inactive)
REMARK    1  A    between atoms: C_4  and  C_20
REMARK    2  A    between atoms: C_6  and  C_13
REMARK                            x       y       z     vdW  Elec       q    Type
REMARK                         _______ _______ _______ _____ _____    ______ ____
ROOT
ATOM      1  O   UNL     1      31.882 -22.581 -18.061  0.00  0.00    -0.353 OA
ATOM      2  N   UNL     1      31.387 -23.282 -16.969  0.00  0.00    -0.077 NA
ATOM      3  C   UNL     1      33.632 -23.043 -16.803  0.00  0.00    +0.058 A 
ATOM      4  C   UNL     1      33.229 -22.441 -17.956  0.00  0.00    +0.177 A 
ATOM      5  C   UNL     1      32.443 -23.572 -16.188  0.00  0.00    +0.123 A 
ATOM      6  C   UNL     1      34.979 -23.815 -15.105  0.00  0.00    +0.031 C 
ATOM      7  C   UNL     1      34.934 -23.120 -16.330  0.00  0.00    +0.007 C 
ATOM      8  C   UNL     1      32.515 -24.264 -14.966  0.00  0.00    +0.023 C 
ATOM      9  C   UNL     1      33.828 -24.361 -14.453  0.00  0.00    +0.004 C 
ENDROOT
BRANCH   6  13
ATOM     10  N   UNL     1      37.216 -24.546 -15.244  0.00  0.00    -0.338 NA
ATOM     11  N   UNL     1      38.739 -24.370 -13.385  0.00  0.00    -0.170 NA
ATOM     12  N   UNL     1      39.435 -25.289 -15.429  0.00  0.00    -0.293 N 
ATOM     13  C   UNL     1      36.270 -23.989 -14.466  0.00  0.00    +0.146 C 
ATOM     14  C   UNL     1      36.470 -23.599 -13.161  0.00  0.00    +0.055 C 
ATOM     15  C   UNL     1      37.740 -23.817 -12.666  0.00  0.00    +0.114 C 
ATOM     16  C   UNL     1      38.412 -24.706 -14.647  0.00  0.00    +0.141 C 
ATOM     17  H   UNL     1      39.252 -25.554 -16.360  0.00  0.00    +0.155 HD
ATOM     18  H   UNL     1      40.329 -25.429 -15.044  0.00  0.00    +0.155 HD
ENDBRANCH   6  13
BRANCH   4  20
ATOM     19 CL   UNL     1      35.845 -19.488 -22.415  0.00  0.00    -0.082 Cl
ATOM     20  C   UNL     1      33.860 -21.730 -19.032  0.00  0.00    +0.037 C 
ATOM     21  C   UNL     1      35.235 -21.858 -19.251  0.00  0.00    +0.004 C 
ATOM     22  C   UNL     1      33.104 -20.902 -19.868  0.00  0.00    +0.004 C 
ATOM     23  C   UNL     1      35.848 -21.167 -20.296  0.00  0.00    +0.011 C 
ATOM     24  C   UNL     1      33.717 -20.211 -20.913  0.00  0.00    +0.011 C 
ATOM     25  C   UNL     1      35.089 -20.342 -21.127  0.00  0.00    +0.058 C 
ENDBRANCH   4  20
TORSDOF 2
ENDMDL
MODEL 7
REMARK VINA RESULT:     -11.5      5.392      9.323
REMARK  Name = 2765355
REMARK  2 active torsions:
REMARK  status: ('A' for Active; 'I' for Inactive)
REMARK    1  A    between atoms: C_4  and  C_20
REMARK    2  A    between atoms: C_6  and  C_13
REMARK                            x       y       z     vdW  Elec       q    Type
REMARK                         _______ _______ _______ _____ _____    ______ ____
ROOT
ATOM      1  O   UNL     1      32.043  -8.053 -21.305  0.00  0.00    -0.353 OA
ATOM      2  N   UNL     1      31.562  -9.022 -20.435  0.00  0.00    -0.077 NA
ATOM      3  C   UNL     1      32.611  -9.989 -22.193  0.00  0.00    +0.058 A 
ATOM      4  C   UNL     1      32.671  -8.639 -22.358  0.00  0.00    +0.177 A 
ATOM      5  C   UNL     1      31.901 -10.214 -20.960  0.00  0.00    +0.123 A 
ATOM      6  C   UNL     1      32.889 -12.243 -22.562  0.00  0.00    +0.031 C 
ATOM      7  C   UNL     1      33.137 -10.945 -23.050  0.00  0.00    +0.007 C 
ATOM      8  C   UNL     1      31.665 -11.519 -20.496  0.00  0.00    +0.023 C 
ATOM      9  C   UNL     1      32.188 -12.520 -21.346  0.00  0.00    +0.004 C 
ENDROOT
BRANCH   6  13
ATOM     10  N   UNL     1      32.738 -13.563 -24.510  0.00  0.00    -0.338 NA
ATOM     11  N   UNL     1      34.187 -15.449 -24.895  0.00  0.00    -0.170 NA
ATOM     12  N   UNL     1      32.548 -14.848 -26.464  0.00  0.00    -0.293 N 
ATOM     13  C   UNL     1      33.373 -13.368 -23.340  0.00  0.00    +0.146 C 
ATOM     14  C   UNL     1      34.407 -14.152 -22.879  0.00  0.00    +0.055 C 
ATOM     15  C   UNL     1      34.776 -15.192 -23.709  0.00  0.00    +0.114 C 
ATOM     16  C   UNL     1      33.189 -14.608 -25.228  0.00  0.00    +0.141 C 
ATOM     17  H   UNL     1      31.812 -14.264 -26.759  0.00  0.00    +0.155 HD
ATOM     18  H   UNL     1      32.838 -15.599 -27.030  0.00  0.00    +0.155 HD
ENDBRANCH   6  13
BRANCH   4  20
ATOM     19 CL   UNL     1      34.918  -4.887 -26.397  0.00  0.00    -0.082 Cl
ATOM     20  C   UNL     1      33.213  -7.735 -23.332  0.00  0.00    +0.037 C 
ATOM     21  C   UNL     1      34.591  -7.693 -23.564  0.00  0.00    +0.004 C 
ATOM     22  C   UNL     1      32.367  -6.889 -24.055  0.00  0.00    +0.004 C 
ATOM     23  C   UNL     1      35.118  -6.814 -24.511  0.00  0.00    +0.011 C 
ATOM     24  C   UNL     1      32.893  -6.010 -25.002  0.00  0.00    +0.011 C 
ATOM     25  C   UNL     1      34.269  -5.972 -25.229  0.00  0.00    +0.058 C 
ENDBRANCH   4  20
TORSDOF 2
ENDMDL
MODEL 8
REMARK VINA RESULT:     -11.5      7.905     11.342
REMARK  Name = 2765355
REMARK  2 active torsions:
REMARK  status: ('A' for Active; 'I' for Inactive)
REMARK    1  A    between atoms: C_4  and  C_20
REMARK    2  A    between atoms: C_6  and  C_13
REMARK                            x       y       z     vdW  Elec       q    Type
REMARK                         _______ _______ _______ _____ _____    ______ ____
ROOT
ATOM      1  O   UNL     1      31.814 -22.558 -18.048  0.00  0.00    -0.353 OA
ATOM      2  N   UNL     1      31.318 -23.259 -16.957  0.00  0.00    -0.077 NA
ATOM      3  C   UNL     1      33.569 -23.060 -16.812  0.00  0.00    +0.058 A 
ATOM      4  C   UNL     1      33.164 -22.442 -17.956  0.00  0.00    +0.177 A 
ATOM      5  C   UNL     1      32.377 -23.574 -16.189  0.00  0.00    +0.123 A 
ATOM      6  C   UNL     1      34.919 -23.870 -15.134  0.00  0.00    +0.031 C 
ATOM      7  C   UNL     1      34.873 -23.164 -16.353  0.00  0.00    +0.007 C 
ATOM      8  C   UNL     1      32.449 -24.276 -14.973  0.00  0.00    +0.023 C 
ATOM      9  C   UNL     1      33.765 -24.401 -14.475  0.00  0.00    +0.004 C 
ENDROOT
BRANCH   6  13
ATOM     10  N   UNL     1      36.353 -23.497 -13.300  0.00  0.00    -0.338 NA
ATOM     11  N   UNL     1      38.596 -24.374 -13.230  0.00  0.00    -0.170 NA
ATOM     12  N   UNL     1      37.745 -23.098 -11.453  0.00  0.00    -0.293 N 
ATOM     13  C   UNL     1      36.213 -24.071 -14.510  0.00  0.00    +0.146 C 
ATOM     14  C   UNL     1      37.195 -24.801 -15.140  0.00  0.00    +0.055 C 
ATOM     15  C   UNL     1      38.382 -24.921 -14.444  0.00  0.00    +0.114 C 
ATOM     16  C   UNL     1      37.555 -23.685 -12.724  0.00  0.00    +0.141 C 
ATOM     17  H   UNL     1      37.016 -22.584 -11.035  0.00  0.00    +0.155 HD
ATOM     18  H   UNL     1      38.604 -23.205 -10.986  0.00  0.00    +0.155 HD
ENDBRANCH   6  13
BRANCH   4  20
ATOM     19 CL   UNL     1      35.788 -19.507 -22.422  0.00  0.00    -0.082 Cl
ATOM     20  C   UNL     1      33.797 -21.733 -19.032  0.00  0.00    +0.037 C 
ATOM     21  C   UNL     1      33.044 -20.903 -19.868  0.00  0.00    +0.004 C 
ATOM     22  C   UNL     1      35.171 -21.869 -19.253  0.00  0.00    +0.004 C 
ATOM     23  C   UNL     1      33.658 -20.215 -20.914  0.00  0.00    +0.011 C 
ATOM     24  C   UNL     1      35.785 -21.182 -20.300  0.00  0.00    +0.011 C 
ATOM     25  C   UNL     1      35.030 -20.355 -21.131  0.00  0.00    +0.058 C 
ENDBRANCH   4  20
TORSDOF 2
ENDMDL
MODEL 9
REMARK VINA RESULT:     -11.2      6.048     10.162
REMARK  Name = 2765355
REMARK  2 active torsions:
REMARK  status: ('A' for Active; 'I' for Inactive)
REMARK    1  A    between atoms: C_4  and  C_20
REMARK    2  A    between atoms: C_6  and  C_13
REMARK                            x       y       z     vdW  Elec       q    Type
REMARK                         _______ _______ _______ _____ _____    ______ ____
ROOT
ATOM      1  O   UNL     1      32.344  -6.038 -21.266  0.00  0.00    -0.353 OA
ATOM      2  N   UNL     1      31.854  -6.652 -20.121  0.00  0.00    -0.077 NA
ATOM      3  C   UNL     1      32.469  -8.205 -21.650  0.00  0.00    +0.058 A 
ATOM      4  C   UNL     1      32.711  -6.974 -22.180  0.00  0.00    +0.177 A 
ATOM      5  C   UNL     1      31.924  -7.978 -20.336  0.00  0.00    +0.123 A 
ATOM      6  C   UNL     1      32.339 -10.491 -21.422  0.00  0.00    +0.031 C 
ATOM      7  C   UNL     1      32.708  -9.425 -22.266  0.00  0.00    +0.007 C 
ATOM      8  C   UNL     1      31.562  -9.059 -19.514  0.00  0.00    +0.023 C 
ATOM      9  C   UNL     1      31.793 -10.320 -20.110  0.00  0.00    +0.004 C 
ENDROOT
BRANCH   6  13
ATOM     10  N   UNL     1      32.956 -11.932 -23.183  0.00  0.00    -0.338 NA
ATOM     11  N   UNL     1      32.909 -14.330 -22.950  0.00  0.00    -0.170 NA
ATOM     12  N   UNL     1      33.578 -13.327 -24.964  0.00  0.00    -0.293 N 
ATOM     13  C   UNL     1      32.524 -11.844 -21.911  0.00  0.00    +0.146 C 
ATOM     14  C   UNL     1      32.264 -12.929 -21.103  0.00  0.00    +0.055 C 
ATOM     15  C   UNL     1      32.477 -14.163 -21.684  0.00  0.00    +0.114 C 
ATOM     16  C   UNL     1      33.125 -13.190 -23.633  0.00  0.00    +0.141 C 
ATOM     17  H   UNL     1      33.753 -12.526 -25.510  0.00  0.00    +0.155 HD
ATOM     18  H   UNL     1      33.719 -14.223 -25.345  0.00  0.00    +0.155 HD
ENDBRANCH   6  13
BRANCH   4  20
ATOM     19 CL   UNL     1      34.882  -4.845 -27.297  0.00  0.00    -0.082 Cl
ATOM     20  C   UNL     1      33.234  -6.460 -23.413  0.00  0.00    +0.037 C 
ATOM     21  C   UNL     1      32.467  -5.594 -24.198  0.00  0.00    +0.004 C 
ATOM     22  C   UNL     1      34.515  -6.822 -23.840  0.00  0.00    +0.004 C 
ATOM     23  C   UNL     1      32.975  -5.094 -25.397  0.00  0.00    +0.011 C 
ATOM     24  C   UNL     1      35.024  -6.323 -25.039  0.00  0.00    +0.011 C 
ATOM     25  C   UNL     1      34.255  -5.460 -25.818  0.00  0.00    +0.058 C 
ENDBRANCH   4  20
TORSDOF 2
ENDMDL
