MODEL 1
REMARK VINA RESULT:     -13.1      0.000      0.000
REMARK  Name = 11634458
REMARK  5 active torsions:
REMARK  status: ('A' for Active; 'I' for Inactive)
REMARK    1  A    between atoms: N_3  and  C_11
REMARK    2  A    between atoms: C_4  and  C_19
REMARK    3  A    between atoms: C_5  and  O_35
REMARK    4  A    between atoms: N_18  and  C_22
REMARK    5  A    between atoms: C_25  and  N_29
REMARK                            x       y       z     vdW  Elec       q    Type
REMARK                         _______ _______ _______ _____ _____    ______ ____
ROOT
ATOM      1  O   UNL     1      32.153 -23.602 -13.137  0.00  0.00    -0.252 OA
ATOM      2  N   UNL     1      34.021 -24.065 -14.390  0.00  0.00    -0.255 N 
ATOM      3  N   UNL     1      31.983 -23.614 -15.462  0.00  0.00    -0.268 N 
ATOM      4  C   UNL     1      34.737 -24.424 -15.613  0.00  0.00    +0.156 C 
ATOM      5  C   UNL     1      36.272 -24.466 -13.758  0.00  0.00    +0.137 C 
ATOM      6  C   UNL     1      36.029 -25.085 -15.133  0.00  0.00    +0.061 C 
ATOM      7  C   UNL     1      34.871 -24.232 -13.214  0.00  0.00    +0.125 C 
ATOM      8  C   UNL     1      32.661 -23.747 -14.250  0.00  0.00    +0.308 C 
ATOM      9  H   UNL     1      32.518 -23.758 -16.275  0.00  0.00    +0.156 HD
ENDROOT
BRANCH   3  11
ATOM     10 CL   UNL     1      26.274 -22.280 -16.305  0.00  0.00    -0.082 Cl
ATOM     11  C   UNL     1      30.618 -23.295 -15.664  0.00  0.00    +0.052 C 
ATOM     12  C   UNL     1      30.036 -22.254 -14.945  0.00  0.00    +0.016 C 
ATOM     13  C   UNL     1      29.864 -24.024 -16.580  0.00  0.00    +0.016 C 
ATOM     14  C   UNL     1      28.691 -21.940 -15.143  0.00  0.00    +0.013 C 
ATOM     15  C   UNL     1      28.520 -23.710 -16.778  0.00  0.00    +0.013 C 
ATOM     16  C   UNL     1      27.933 -22.668 -16.060  0.00  0.00    +0.058 C 
ENDBRANCH   3  11
BRANCH   4  19
ATOM     17  O   UNL     1      35.578 -22.216 -15.844  0.00  0.00    -0.273 OA
ATOM     18  N   UNL     1      34.590 -23.277 -17.697  0.00  0.00    -0.281 N 
ATOM     19  C   UNL     1      35.026 -23.170 -16.383  0.00  0.00    +0.244 C 
ATOM     20  H   UNL     1      34.163 -24.129 -17.946  0.00  0.00    +0.155 HD
BRANCH  18  22
ATOM     21  F   UNL     1      32.323 -22.086 -18.770  0.00  0.00    -0.203 F 
ATOM     22  C   UNL     1      34.687 -22.304 -18.719  0.00  0.00    +0.078 C 
ATOM     23  C   UNL     1      33.533 -21.733 -19.227  0.00  0.00    +0.155 C 
ATOM     24  C   UNL     1      35.939 -21.943 -19.191  0.00  0.00    +0.018 C 
ATOM     25  C   UNL     1      34.885 -20.401 -20.722  0.00  0.00    +0.061 C 
ATOM     26  C   UNL     1      33.632 -20.775 -20.236  0.00  0.00    +0.046 C 
ATOM     27  C   UNL     1      36.038 -20.985 -20.199  0.00  0.00    +0.017 C 
BRANCH  25  29
ATOM     28  O   UNL     1      36.010 -17.755 -20.410  0.00  0.00    -0.269 OA
ATOM     29  N   UNL     1      34.988 -19.405 -21.772  0.00  0.00    -0.233 N 
ATOM     30  C   UNL     1      35.599 -18.153 -21.501  0.00  0.00    +0.257 C 
ATOM     31  C   UNL     1      34.470 -19.658 -23.043  0.00  0.00    +0.072 C 
ATOM     32  C   UNL     1      35.707 -17.203 -22.649  0.00  0.00    +0.059 C 
ATOM     33  C   UNL     1      34.549 -18.778 -24.045  0.00  0.00    +0.017 C 
ATOM     34  C   UNL     1      35.194 -17.516 -23.841  0.00  0.00    +0.006 C 
ENDBRANCH  25  29
ENDBRANCH  18  22
ENDBRANCH   4  19
BRANCH   5  35
ATOM     35  O   UNL     1      36.958 -23.227 -13.905  0.00  0.00    -0.352 OA
ATOM     36  C   UNL     1      37.545 -22.809 -12.680  0.00  0.00    +0.174 C 
ENDBRANCH   5  35
TORSDOF 5
ENDMDL
MODEL 2
REMARK VINA RESULT:     -12.0      2.117      2.949
REMARK  Name = 11634458
REMARK  5 active torsions:
REMARK  status: ('A' for Active; 'I' for Inactive)
REMARK    1  A    between atoms: N_3  and  C_11
REMARK    2  A    between atoms: C_4  and  C_19
REMARK    3  A    between atoms: C_5  and  O_35
REMARK    4  A    between atoms: N_18  and  C_22
REMARK    5  A    between atoms: C_25  and  N_29
REMARK                            x       y       z     vdW  Elec       q    Type
REMARK                         _______ _______ _______ _____ _____    ______ ____
ROOT
ATOM      1  O   UNL     1      33.817 -23.562 -12.103  0.00  0.00    -0.252 OA
ATOM      2  N   UNL     1      35.624 -24.739 -12.893  0.00  0.00    -0.255 N 
ATOM      3  N   UNL     1      33.631 -24.696 -14.131  0.00  0.00    -0.268 N 
ATOM      4  C   UNL     1      36.294 -25.712 -13.754  0.00  0.00    +0.156 C 
ATOM      5  C   UNL     1      37.830 -24.973 -12.054  0.00  0.00    +0.137 C 
ATOM      6  C   UNL     1      37.520 -26.162 -12.960  0.00  0.00    +0.061 C 
ATOM      7  C   UNL     1      36.462 -24.381 -11.751  0.00  0.00    +0.125 C 
ATOM      8  C   UNL     1      34.302 -24.277 -12.981  0.00  0.00    +0.308 C 
ATOM      9  H   UNL     1      34.145 -25.266 -14.748  0.00  0.00    +0.156 HD
ENDROOT
BRANCH   3  11
ATOM     10 CL   UNL     1      28.070 -23.457 -15.751  0.00  0.00    -0.082 Cl
ATOM     11  C   UNL     1      32.301 -24.400 -14.518  0.00  0.00    +0.052 C 
ATOM     12  C   UNL     1      32.018 -23.196 -15.158  0.00  0.00    +0.016 C 
ATOM     13  C   UNL     1      31.283 -25.314 -14.257  0.00  0.00    +0.016 C 
ATOM     14  C   UNL     1      30.708 -22.904 -15.540  0.00  0.00    +0.013 C 
ATOM     15  C   UNL     1      29.974 -25.022 -14.639  0.00  0.00    +0.013 C 
ATOM     16  C   UNL     1      29.686 -23.817 -15.280  0.00  0.00    +0.058 C 
ENDBRANCH   3  11
BRANCH   4  19
ATOM     17  O   UNL     1      37.720 -25.353 -15.618  0.00  0.00    -0.273 OA
ATOM     18  N   UNL     1      35.782 -24.040 -15.374  0.00  0.00    -0.281 N 
ATOM     19  C   UNL     1      36.696 -25.026 -15.026  0.00  0.00    +0.244 C 
ATOM     20  H   UNL     1      35.017 -23.922 -14.766  0.00  0.00    +0.155 HD
BRANCH  18  22
ATOM     21  F   UNL     1      37.947 -22.362 -15.829  0.00  0.00    -0.203 F 
ATOM     22  C   UNL     1      35.824 -23.186 -16.501  0.00  0.00    +0.078 C 
ATOM     23  C   UNL     1      36.921 -22.365 -16.692  0.00  0.00    +0.155 C 
ATOM     24  C   UNL     1      34.761 -23.191 -17.391  0.00  0.00    +0.018 C 
ATOM     25  C   UNL     1      35.897 -21.515 -18.709  0.00  0.00    +0.061 C 
ATOM     26  C   UNL     1      36.958 -21.523 -17.804  0.00  0.00    +0.046 C 
ATOM     27  C   UNL     1      34.798 -22.349 -18.502  0.00  0.00    +0.017 C 
BRANCH  25  29
ATOM     28  O   UNL     1      33.649 -20.914 -20.427  0.00  0.00    -0.269 OA
ATOM     29  N   UNL     1      35.935 -20.639 -19.865  0.00  0.00    -0.233 N 
ATOM     30  C   UNL     1      34.751 -20.393 -20.605  0.00  0.00    +0.257 C 
ATOM     31  C   UNL     1      37.136 -20.052 -20.269  0.00  0.00    +0.072 C 
ATOM     32  C   UNL     1      34.868 -19.441 -21.752  0.00  0.00    +0.059 C 
ATOM     33  C   UNL     1      37.222 -19.231 -21.320  0.00  0.00    +0.017 C 
ATOM     34  C   UNL     1      36.050 -18.912 -22.078  0.00  0.00    +0.006 C 
ENDBRANCH  25  29
ENDBRANCH  18  22
ENDBRANCH   4  19
BRANCH   5  35
ATOM     35  O   UNL     1      38.631 -24.030 -12.758  0.00  0.00    -0.352 OA
ATOM     36  C   UNL     1      38.314 -22.696 -12.385  0.00  0.00    +0.174 C 
ENDBRANCH   5  35
TORSDOF 5
ENDMDL
MODEL 3
REMARK VINA RESULT:     -11.6      9.952     15.231
REMARK  Name = 11634458
REMARK  5 active torsions:
REMARK  status: ('A' for Active; 'I' for Inactive)
REMARK    1  A    between atoms: N_3  and  C_11
REMARK    2  A    between atoms: C_4  and  C_19
REMARK    3  A    between atoms: C_5  and  O_35
REMARK    4  A    between atoms: N_18  and  C_22
REMARK    5  A    between atoms: C_25  and  N_29
REMARK                            x       y       z     vdW  Elec       q    Type
REMARK                         _______ _______ _______ _____ _____    ______ ____
ROOT
ATOM      1  O   UNL     1      33.527  -5.310 -22.285  0.00  0.00    -0.252 OA
ATOM      2  N   UNL     1      32.408  -7.283 -21.930  0.00  0.00    -0.255 N 
ATOM      3  N   UNL     1      33.004  -6.660 -24.112  0.00  0.00    -0.268 N 
ATOM      4  C   UNL     1      31.631  -8.454 -22.334  0.00  0.00    +0.156 C 
ATOM      5  C   UNL     1      31.711  -8.351 -19.930  0.00  0.00    +0.137 C 
ATOM      6  C   UNL     1      30.850  -8.859 -21.084  0.00  0.00    +0.061 C 
ATOM      7  C   UNL     1      32.350  -7.087 -20.483  0.00  0.00    +0.125 C 
ATOM      8  C   UNL     1      33.022  -6.330 -22.756  0.00  0.00    +0.308 C 
ATOM      9  H   UNL     1      32.566  -7.511 -24.344  0.00  0.00    +0.156 HD
ENDROOT
BRANCH   3  11
ATOM     10 CL   UNL     1      35.249  -3.568 -28.638  0.00  0.00    -0.082 Cl
ATOM     11  C   UNL     1      33.541  -5.921 -25.194  0.00  0.00    +0.052 C 
ATOM     12  C   UNL     1      32.718  -5.072 -25.930  0.00  0.00    +0.016 C 
ATOM     13  C   UNL     1      34.890  -6.047 -25.518  0.00  0.00    +0.016 C 
ATOM     14  C   UNL     1      33.246  -4.344 -26.996  0.00  0.00    +0.013 C 
ATOM     15  C   UNL     1      35.418  -5.319 -26.584  0.00  0.00    +0.013 C 
ATOM     16  C   UNL     1      34.596  -4.467 -27.323  0.00  0.00    +0.058 C 
ENDBRANCH   3  11
BRANCH   4  19
ATOM     17  O   UNL     1      33.683  -9.260 -23.216  0.00  0.00    -0.273 OA
ATOM     18  N   UNL     1      32.034 -10.794 -22.535  0.00  0.00    -0.281 N 
ATOM     19  C   UNL     1      32.582  -9.537 -22.750  0.00  0.00    +0.244 C 
ATOM     20  H   UNL     1      31.128 -10.815 -22.151  0.00  0.00    +0.155 HD
BRANCH  18  22
ATOM     21  F   UNL     1      31.564 -12.988 -20.898  0.00  0.00    -0.203 F 
ATOM     22  C   UNL     1      32.628 -12.051 -22.803  0.00  0.00    +0.078 C 
ATOM     23  C   UNL     1      32.368 -13.119 -21.963  0.00  0.00    +0.155 C 
ATOM     24  C   UNL     1      33.460 -12.182 -23.903  0.00  0.00    +0.018 C 
ATOM     25  C   UNL     1      33.796 -14.505 -23.333  0.00  0.00    +0.061 C 
ATOM     26  C   UNL     1      32.956 -14.356 -22.229  0.00  0.00    +0.046 C 
ATOM     27  C   UNL     1      34.048 -13.419 -24.170  0.00  0.00    +0.017 C 
BRANCH  25  29
ATOM     28  O   UNL     1      33.575 -15.960 -25.823  0.00  0.00    -0.269 OA
ATOM     29  N   UNL     1      34.407 -15.792 -23.610  0.00  0.00    -0.233 N 
ATOM     30  C   UNL     1      34.257 -16.385 -24.889  0.00  0.00    +0.257 C 
ATOM     31  C   UNL     1      35.126 -16.463 -22.618  0.00  0.00    +0.072 C 
ATOM     32  C   UNL     1      34.958 -17.687 -25.106  0.00  0.00    +0.059 C 
ATOM     33  C   UNL     1      35.716 -17.643 -22.827  0.00  0.00    +0.017 C 
ATOM     34  C   UNL     1      35.634 -18.268 -24.112  0.00  0.00    +0.006 C 
ENDBRANCH  25  29
ENDBRANCH  18  22
ENDBRANCH   4  19
BRANCH   5  35
ATOM     35  O   UNL     1      32.711  -9.315 -19.618  0.00  0.00    -0.352 OA
ATOM     36  C   UNL     1      32.156 -10.450 -18.967  0.00  0.00    +0.174 C 
ENDBRANCH   5  35
TORSDOF 5
ENDMDL
MODEL 4
REMARK VINA RESULT:     -10.9      4.584     10.373
REMARK  Name = 11634458
REMARK  5 active torsions:
REMARK  status: ('A' for Active; 'I' for Inactive)
REMARK    1  A    between atoms: N_3  and  C_11
REMARK    2  A    between atoms: C_4  and  C_19
REMARK    3  A    between atoms: C_5  and  O_35
REMARK    4  A    between atoms: N_18  and  C_22
REMARK    5  A    between atoms: C_25  and  N_29
REMARK                            x       y       z     vdW  Elec       q    Type
REMARK                         _______ _______ _______ _____ _____    ______ ____
ROOT
ATOM      1  O   UNL     1      32.213 -14.123 -24.672  0.00  0.00    -0.252 OA
ATOM      2  N   UNL     1      33.933 -15.610 -24.351  0.00  0.00    -0.255 N 
ATOM      3  N   UNL     1      33.607 -13.860 -22.823  0.00  0.00    -0.268 N 
ATOM      4  C   UNL     1      35.182 -16.078 -23.752  0.00  0.00    +0.156 C 
ATOM      5  C   UNL     1      34.566 -17.557 -25.549  0.00  0.00    +0.137 C 
ATOM      6  C   UNL     1      35.780 -17.035 -24.785  0.00  0.00    +0.061 C 
ATOM      7  C   UNL     1      33.602 -16.381 -25.547  0.00  0.00    +0.125 C 
ATOM      8  C   UNL     1      33.174 -14.486 -23.992  0.00  0.00    +0.308 C 
ATOM      9  H   UNL     1      34.390 -14.262 -22.382  0.00  0.00    +0.156 HD
ENDROOT
BRANCH   3  11
ATOM     10 CL   UNL     1      31.306  -9.078 -20.192  0.00  0.00    -0.082 Cl
ATOM     11  C   UNL     1      33.057 -12.716 -22.194  0.00  0.00    +0.052 C 
ATOM     12  C   UNL     1      32.544 -12.815 -20.903  0.00  0.00    +0.016 C 
ATOM     13  C   UNL     1      33.031 -11.499 -22.870  0.00  0.00    +0.016 C 
ATOM     14  C   UNL     1      32.002 -11.688 -20.283  0.00  0.00    +0.013 C 
ATOM     15  C   UNL     1      32.489 -10.373 -22.250  0.00  0.00    +0.013 C 
ATOM     16  C   UNL     1      31.975 -10.468 -20.957  0.00  0.00    +0.058 C 
ENDBRANCH   3  11
BRANCH   4  19
ATOM     17  O   UNL     1      34.285 -16.216 -21.559  0.00  0.00    -0.273 OA
ATOM     18  N   UNL     1      35.300 -18.111 -22.515  0.00  0.00    -0.281 N 
ATOM     19  C   UNL     1      34.861 -16.794 -22.475  0.00  0.00    +0.244 C 
ATOM     20  H   UNL     1      35.748 -18.396 -23.345  0.00  0.00    +0.155 HD
BRANCH  18  22
ATOM     21  F   UNL     1      37.532 -19.102 -21.194  0.00  0.00    -0.203 F 
ATOM     22  C   UNL     1      35.178 -19.092 -21.503  0.00  0.00    +0.078 C 
ATOM     23  C   UNL     1      36.315 -19.560 -20.868  0.00  0.00    +0.155 C 
ATOM     24  C   UNL     1      33.918 -19.564 -21.169  0.00  0.00    +0.018 C 
ATOM     25  C   UNL     1      34.930 -21.013 -19.523  0.00  0.00    +0.061 C 
ATOM     26  C   UNL     1      36.191 -20.527 -19.871  0.00  0.00    +0.046 C 
ATOM     27  C   UNL     1      33.794 -20.531 -20.173  0.00  0.00    +0.017 C 
BRANCH  25  29
ATOM     28  O   UNL     1      36.967 -21.683 -17.582  0.00  0.00    -0.269 OA
ATOM     29  N   UNL     1      34.802 -22.020 -18.487  0.00  0.00    -0.233 N 
ATOM     30  C   UNL     1      35.862 -22.227 -17.567  0.00  0.00    +0.257 C 
ATOM     31  C   UNL     1      33.650 -22.805 -18.400  0.00  0.00    +0.072 C 
ATOM     32  C   UNL     1      35.629 -23.249 -16.502  0.00  0.00    +0.059 C 
ATOM     33  C   UNL     1      33.480 -23.737 -17.457  0.00  0.00    +0.017 C 
ATOM     34  C   UNL     1      34.498 -23.958 -16.476  0.00  0.00    +0.006 C 
ENDBRANCH  25  29
ENDBRANCH  18  22
ENDBRANCH   4  19
BRANCH   5  35
ATOM     35  O   UNL     1      34.000 -18.662 -24.852  0.00  0.00    -0.352 OA
ATOM     36  C   UNL     1      34.804 -19.826 -24.980  0.00  0.00    +0.174 C 
ENDBRANCH   5  35
TORSDOF 5
ENDMDL
MODEL 5
REMARK VINA RESULT:     -10.5      9.201     14.514
REMARK  Name = 11634458
REMARK  5 active torsions:
REMARK  status: ('A' for Active; 'I' for Inactive)
REMARK    1  A    between atoms: N_3  and  C_11
REMARK    2  A    between atoms: C_4  and  C_19
REMARK    3  A    between atoms: C_5  and  O_35
REMARK    4  A    between atoms: N_18  and  C_22
REMARK    5  A    between atoms: C_25  and  N_29
REMARK                            x       y       z     vdW  Elec       q    Type
REMARK                         _______ _______ _______ _____ _____    ______ ____
ROOT
ATOM      1  O   UNL     1      33.215  -6.283 -21.706  0.00  0.00    -0.252 OA
ATOM      2  N   UNL     1      32.083  -8.281 -21.680  0.00  0.00    -0.255 N 
ATOM      3  N   UNL     1      32.950  -7.461 -23.700  0.00  0.00    -0.268 N 
ATOM      4  C   UNL     1      31.380  -9.410 -22.287  0.00  0.00    +0.156 C 
ATOM      5  C   UNL     1      31.147  -9.529 -19.893  0.00  0.00    +0.137 C 
ATOM      6  C   UNL     1      30.449  -9.929 -21.191  0.00  0.00    +0.061 C 
ATOM      7  C   UNL     1      31.836  -8.219 -20.241  0.00  0.00    +0.125 C 
ATOM      8  C   UNL     1      32.788  -7.256 -22.329  0.00  0.00    +0.308 C 
ATOM      9  H   UNL     1      32.556  -8.286 -24.063  0.00  0.00    +0.156 HD
ENDROOT
BRANCH   3  11
ATOM     10 CL   UNL     1      35.725  -3.965 -27.594  0.00  0.00    -0.082 Cl
ATOM     11  C   UNL     1      33.613  -6.625 -24.631  0.00  0.00    +0.052 C 
ATOM     12  C   UNL     1      34.982  -6.769 -24.838  0.00  0.00    +0.016 C 
ATOM     13  C   UNL     1      32.893  -5.663 -25.335  0.00  0.00    +0.016 C 
ATOM     14  C   UNL     1      35.637  -5.945 -25.756  0.00  0.00    +0.013 C 
ATOM     15  C   UNL     1      33.546  -4.840 -26.252  0.00  0.00    +0.013 C 
ATOM     16  C   UNL     1      34.918  -4.981 -26.462  0.00  0.00    +0.058 C 
ENDBRANCH   3  11
BRANCH   4  19
ATOM     17  O   UNL     1      33.428 -10.134 -23.246  0.00  0.00    -0.273 OA
ATOM     18  N   UNL     1      31.971 -11.719 -22.298  0.00  0.00    -0.281 N 
ATOM     19  C   UNL     1      32.390 -10.450 -22.672  0.00  0.00    +0.244 C 
ATOM     20  H   UNL     1      31.098 -11.774 -21.845  0.00  0.00    +0.155 HD
BRANCH  18  22
ATOM     21  F   UNL     1      33.219 -12.306 -24.708  0.00  0.00    -0.203 F 
ATOM     22  C   UNL     1      32.651 -12.945 -22.492  0.00  0.00    +0.078 C 
ATOM     23  C   UNL     1      33.261 -13.198 -23.709  0.00  0.00    +0.155 C 
ATOM     24  C   UNL     1      32.691 -13.866 -21.458  0.00  0.00    +0.018 C 
ATOM     25  C   UNL     1      33.979 -15.346 -22.866  0.00  0.00    +0.061 C 
ATOM     26  C   UNL     1      33.930 -14.408 -23.898  0.00  0.00    +0.046 C 
ATOM     27  C   UNL     1      33.360 -15.075 -21.647  0.00  0.00    +0.017 C 
BRANCH  25  29
ATOM     28  O   UNL     1      35.413 -16.802 -20.819  0.00  0.00    -0.269 OA
ATOM     29  N   UNL     1      34.675 -16.604 -23.063  0.00  0.00    -0.233 N 
ATOM     30  C   UNL     1      35.309 -17.240 -21.965  0.00  0.00    +0.257 C 
ATOM     31  C   UNL     1      34.745 -17.184 -24.331  0.00  0.00    +0.072 C 
ATOM     32  C   UNL     1      35.962 -18.556 -22.245  0.00  0.00    +0.059 C 
ATOM     33  C   UNL     1      35.365 -18.346 -24.562  0.00  0.00    +0.017 C 
ATOM     34  C   UNL     1      35.984 -19.054 -23.483  0.00  0.00    +0.006 C 
ENDBRANCH  25  29
ENDBRANCH  18  22
ENDBRANCH   4  19
BRANCH   5  35
ATOM     35  O   UNL     1      32.110 -10.517 -19.542  0.00  0.00    -0.352 OA
ATOM     36  C   UNL     1      32.687 -10.253 -18.271  0.00  0.00    +0.174 C 
ENDBRANCH   5  35
TORSDOF 5
ENDMDL
