MODEL 1
REMARK VINA RESULT:     -14.7      0.000      0.000
REMARK  Name = 4887
REMARK  9 active torsions:
REMARK  status: ('A' for Active; 'I' for Inactive)
REMARK    1  A    between atoms: N_2  and  C_8
REMARK    2  A    between atoms: C_3  and  C_23
REMARK    3  A    between atoms: C_14  and  C_20
REMARK    4  A    between atoms: C_22  and  O_28
REMARK    5  A    between atoms: O_28  and  C_29
REMARK    6  A    between atoms: C_29  and  C_30
REMARK    7  A    between atoms: C_30  and  C_31
REMARK    8  A    between atoms: C_31  and  C_32
REMARK    9  A    between atoms: C_32  and  C_33
REMARK                            x       y       z     vdW  Elec       q    Type
REMARK                         _______ _______ _______ _____ _____    ______ ____
ROOT
ATOM      1  O   UNL     1      33.745 -23.816 -18.839  0.00  0.00    -0.270 OA
ATOM      2  N   UNL     1      32.412 -22.128 -17.892  0.00  0.00    -0.278 N 
ATOM      3  C   UNL     1      33.381 -22.648 -18.758  0.00  0.00    +0.250 C 
ATOM      4  H   UNL     1      32.243 -21.161 -17.963  0.00  0.00    +0.155 HD
ENDROOT
BRANCH   2   8
ATOM      5  O   UNL     1      33.637 -23.418 -15.805  0.00  0.00    -0.442 OA
ATOM      6  O   UNL     1      31.545 -25.448 -12.961  0.00  0.00    -0.286 OA
ATOM      7  C   UNL     1      32.268 -23.474 -15.872  0.00  0.00    +0.163 C 
ATOM      8  C   UNL     1      31.655 -22.814 -16.938  0.00  0.00    +0.086 C 
ATOM      9  C   UNL     1      31.490 -24.150 -14.934  0.00  0.00    +0.075 C 
ATOM     10  C   UNL     1      30.266 -22.834 -17.061  0.00  0.00    +0.018 C 
ATOM     11  C   UNL     1      30.099 -24.173 -15.053  0.00  0.00    +0.006 C 
ATOM     12  C   UNL     1      32.162 -24.836 -13.822  0.00  0.00    +0.202 C 
ATOM     13  C   UNL     1      29.489 -23.512 -16.120  0.00  0.00    +0.002 C 
ATOM     14  C   UNL     1      34.282 -24.065 -14.757  0.00  0.00    +0.213 C 
ATOM     15  C   UNL     1      33.636 -24.747 -13.796  0.00  0.00    +0.090 C 
BRANCH  14  20
ATOM     16  N   UNL     1      36.528 -24.402 -15.762  0.00  0.00    -0.107 NA
ATOM     17  N   UNL     1      36.365 -23.255 -13.816  0.00  0.00    -0.084 NA
ATOM     18  N   UNL     1      37.703 -23.973 -15.281  0.00  0.00    -0.140 N 
ATOM     19  N   UNL     1      37.654 -23.290 -14.129  0.00  0.00    -0.022 NA
ATOM     20  C   UNL     1      35.719 -23.927 -14.811  0.00  0.00    +0.109 C 
ATOM     21  H   UNL     1      38.552 -24.151 -15.745  0.00  0.00    +0.197 HD
ENDBRANCH  14  20
ENDBRANCH   2   8
BRANCH   3  23
ATOM     22  C   UNL     1      35.273 -19.789 -21.313  0.00  0.00    +0.139 C 
ATOM     23  C   UNL     1      34.038 -21.654 -19.647  0.00  0.00    +0.054 C 
ATOM     24  C   UNL     1      36.047 -20.686 -20.575  0.00  0.00    +0.037 C 
ATOM     25  C   UNL     1      33.883 -19.826 -21.218  0.00  0.00    +0.037 C 
ATOM     26  C   UNL     1      35.430 -21.618 -19.741  0.00  0.00    +0.008 C 
ATOM     27  C   UNL     1      33.264 -20.758 -20.385  0.00  0.00    +0.008 C 
BRANCH  22  28
ATOM     28  O   UNL     1      35.876 -18.881 -22.128  0.00  0.00    -0.475 OA
BRANCH  28  29
ATOM     29  C   UNL     1      35.624 -18.997 -23.527  0.00  0.00    +0.205 C 
BRANCH  29  30
ATOM     30  C   UNL     1      35.015 -17.695 -24.027  0.00  0.00    +0.048 C 
BRANCH  30  31
ATOM     31  C   UNL     1      35.201 -16.563 -23.017  0.00  0.00    +0.009 C 
BRANCH  31  32
ATOM     32  C   UNL     1      34.843 -15.208 -23.633  0.00  0.00    +0.026 C 
BRANCH  32  33
ATOM     33  C   UNL     1      33.874 -14.442 -22.767  0.00  0.00    -0.022 C 
ATOM     34  C   UNL     1      33.585 -14.892 -21.479  0.00  0.00    -0.004 C 
ATOM     35  C   UNL     1      33.267 -13.286 -23.254  0.00  0.00    -0.004 C 
ATOM     36  C   UNL     1      32.688 -14.185 -20.678  0.00  0.00    -0.000 C 
ATOM     37  C   UNL     1      32.371 -12.577 -22.454  0.00  0.00    -0.000 C 
ATOM     38  C   UNL     1      32.082 -13.027 -21.166  0.00  0.00    -0.000 C 
ENDBRANCH  32  33
ENDBRANCH  31  32
ENDBRANCH  30  31
ENDBRANCH  29  30
ENDBRANCH  28  29
ENDBRANCH  22  28
ENDBRANCH   3  23
TORSDOF 9
ENDMDL
MODEL 2
REMARK VINA RESULT:     -14.6      1.832      4.131
REMARK  Name = 4887
REMARK  9 active torsions:
REMARK  status: ('A' for Active; 'I' for Inactive)
REMARK    1  A    between atoms: N_2  and  C_8
REMARK    2  A    between atoms: C_3  and  C_23
REMARK    3  A    between atoms: C_14  and  C_20
REMARK    4  A    between atoms: C_22  and  O_28
REMARK    5  A    between atoms: O_28  and  C_29
REMARK    6  A    between atoms: C_29  and  C_30
REMARK    7  A    between atoms: C_30  and  C_31
REMARK    8  A    between atoms: C_31  and  C_32
REMARK    9  A    between atoms: C_32  and  C_33
REMARK                            x       y       z     vdW  Elec       q    Type
REMARK                         _______ _______ _______ _____ _____    ______ ____
ROOT
ATOM      1  O   UNL     1      33.740 -24.071 -18.769  0.00  0.00    -0.270 OA
ATOM      2  N   UNL     1      33.955 -22.501 -17.033  0.00  0.00    -0.278 N 
ATOM      3  C   UNL     1      33.905 -22.925 -18.366  0.00  0.00    +0.250 C 
ATOM      4  H   UNL     1      34.095 -21.538 -16.890  0.00  0.00    +0.155 HD
ENDROOT
BRANCH   2   8
ATOM      5  O   UNL     1      31.482 -23.261 -16.122  0.00  0.00    -0.442 OA
ATOM      6  O   UNL     1      30.988 -25.532 -12.778  0.00  0.00    -0.286 OA
ATOM      7  C   UNL     1      32.577 -23.673 -15.407  0.00  0.00    +0.163 C 
ATOM      8  C   UNL     1      33.831 -23.281 -15.879  0.00  0.00    +0.086 C 
ATOM      9  C   UNL     1      32.481 -24.450 -14.255  0.00  0.00    +0.075 C 
ATOM     10  C   UNL     1      34.983 -23.668 -15.195  0.00  0.00    +0.018 C 
ATOM     11  C   UNL     1      33.632 -24.841 -13.567  0.00  0.00    +0.006 C 
ATOM     12  C   UNL     1      31.148 -24.849 -13.780  0.00  0.00    +0.202 C 
ATOM     13  C   UNL     1      34.884 -24.447 -14.041  0.00  0.00    +0.002 C 
ATOM     14  C   UNL     1      30.216 -23.632 -15.680  0.00  0.00    +0.213 C 
ATOM     15  C   UNL     1      30.003 -24.379 -14.585  0.00  0.00    +0.090 C 
BRANCH  14  20
ATOM     16  N   UNL     1      28.724 -23.671 -17.665  0.00  0.00    -0.107 NA
ATOM     17  N   UNL     1      28.502 -21.987 -16.167  0.00  0.00    -0.084 NA
ATOM     18  N   UNL     1      27.766 -22.787 -17.975  0.00  0.00    -0.140 N 
ATOM     19  N   UNL     1      27.599 -21.772 -17.116  0.00  0.00    -0.022 NA
ATOM     20  C   UNL     1      29.158 -23.128 -16.524  0.00  0.00    +0.109 C 
ATOM     21  H   UNL     1      27.216 -22.877 -18.787  0.00  0.00    +0.197 HD
ENDBRANCH  14  20
ENDBRANCH   2   8
BRANCH   3  23
ATOM     22  C   UNL     1      34.462 -19.849 -21.283  0.00  0.00    +0.139 C 
ATOM     23  C   UNL     1      34.099 -21.855 -19.380  0.00  0.00    +0.054 C 
ATOM     24  C   UNL     1      33.174 -20.201 -20.878  0.00  0.00    +0.037 C 
ATOM     25  C   UNL     1      35.568 -20.500 -20.738  0.00  0.00    +0.037 C 
ATOM     26  C   UNL     1      32.993 -21.205 -19.927  0.00  0.00    +0.008 C 
ATOM     27  C   UNL     1      35.387 -21.503 -19.786  0.00  0.00    +0.008 C 
BRANCH  22  28
ATOM     28  O   UNL     1      34.639 -18.868 -22.210  0.00  0.00    -0.475 OA
BRANCH  28  29
ATOM     29  C   UNL     1      35.616 -19.101 -23.223  0.00  0.00    +0.205 C 
BRANCH  29  30
ATOM     30  C   UNL     1      34.903 -19.459 -24.520  0.00  0.00    +0.048 C 
BRANCH  30  31
ATOM     31  C   UNL     1      34.035 -18.307 -25.022  0.00  0.00    +0.009 C 
BRANCH  31  32
ATOM     32  C   UNL     1      34.890 -17.104 -25.428  0.00  0.00    +0.026 C 
BRANCH  32  33
ATOM     33  C   UNL     1      34.422 -15.837 -24.758  0.00  0.00    -0.022 C 
ATOM     34  C   UNL     1      34.959 -15.460 -23.527  0.00  0.00    -0.004 C 
ATOM     35  C   UNL     1      33.452 -15.043 -25.367  0.00  0.00    -0.004 C 
ATOM     36  C   UNL     1      34.526 -14.289 -22.906  0.00  0.00    -0.000 C 
ATOM     37  C   UNL     1      33.018 -13.871 -24.748  0.00  0.00    -0.000 C 
ATOM     38  C   UNL     1      33.555 -13.494 -23.517  0.00  0.00    -0.000 C 
ENDBRANCH  32  33
ENDBRANCH  31  32
ENDBRANCH  30  31
ENDBRANCH  29  30
ENDBRANCH  28  29
ENDBRANCH  22  28
ENDBRANCH   3  23
TORSDOF 9
ENDMDL
MODEL 3
REMARK VINA RESULT:     -14.6      1.693      3.843
REMARK  Name = 4887
REMARK  9 active torsions:
REMARK  status: ('A' for Active; 'I' for Inactive)
REMARK    1  A    between atoms: N_2  and  C_8
REMARK    2  A    between atoms: C_3  and  C_23
REMARK    3  A    between atoms: C_14  and  C_20
REMARK    4  A    between atoms: C_22  and  O_28
REMARK    5  A    between atoms: O_28  and  C_29
REMARK    6  A    between atoms: C_29  and  C_30
REMARK    7  A    between atoms: C_30  and  C_31
REMARK    8  A    between atoms: C_31  and  C_32
REMARK    9  A    between atoms: C_32  and  C_33
REMARK                            x       y       z     vdW  Elec       q    Type
REMARK                         _______ _______ _______ _____ _____    ______ ____
ROOT
ATOM      1  O   UNL     1      33.810 -24.036 -18.871  0.00  0.00    -0.270 OA
ATOM      2  N   UNL     1      33.976 -22.473 -17.123  0.00  0.00    -0.278 N 
ATOM      3  C   UNL     1      33.940 -22.888 -18.460  0.00  0.00    +0.250 C 
ATOM      4  H   UNL     1      34.087 -21.506 -16.974  0.00  0.00    +0.155 HD
ENDROOT
BRANCH   2   8
ATOM      5  O   UNL     1      31.521 -23.245 -16.175  0.00  0.00    -0.442 OA
ATOM      6  O   UNL     1      31.092 -25.550 -12.845  0.00  0.00    -0.286 OA
ATOM      7  C   UNL     1      32.630 -23.662 -15.484  0.00  0.00    +0.163 C 
ATOM      8  C   UNL     1      33.874 -23.263 -15.975  0.00  0.00    +0.086 C 
ATOM      9  C   UNL     1      32.556 -24.451 -14.338  0.00  0.00    +0.075 C 
ATOM     10  C   UNL     1      35.039 -23.656 -15.316  0.00  0.00    +0.018 C 
ATOM     11  C   UNL     1      33.720 -24.847 -13.675  0.00  0.00    +0.006 C 
ATOM     12  C   UNL     1      31.233 -24.857 -13.844  0.00  0.00    +0.202 C 
ATOM     13  C   UNL     1      34.962 -24.446 -14.168  0.00  0.00    +0.002 C 
ATOM     14  C   UNL     1      30.264 -23.622 -15.714  0.00  0.00    +0.213 C 
ATOM     15  C   UNL     1      30.072 -24.381 -14.622  0.00  0.00    +0.090 C 
BRANCH  14  20
ATOM     16  N   UNL     1      28.731 -23.649 -17.667  0.00  0.00    -0.107 NA
ATOM     17  N   UNL     1      28.546 -21.970 -16.158  0.00  0.00    -0.084 NA
ATOM     18  N   UNL     1      27.769 -22.761 -17.954  0.00  0.00    -0.140 N 
ATOM     19  N   UNL     1      27.624 -21.749 -17.087  0.00  0.00    -0.022 NA
ATOM     20  C   UNL     1      29.190 -23.112 -16.533  0.00  0.00    +0.109 C 
ATOM     21  H   UNL     1      27.202 -22.846 -18.754  0.00  0.00    +0.197 HD
ENDBRANCH  14  20
ENDBRANCH   2   8
BRANCH   3  23
ATOM     22  C   UNL     1      34.411 -19.775 -21.353  0.00  0.00    +0.139 C 
ATOM     23  C   UNL     1      34.103 -21.806 -19.466  0.00  0.00    +0.054 C 
ATOM     24  C   UNL     1      35.533 -20.429 -20.843  0.00  0.00    +0.037 C 
ATOM     25  C   UNL     1      33.136 -20.136 -20.919  0.00  0.00    +0.037 C 
ATOM     26  C   UNL     1      35.379 -21.444 -19.899  0.00  0.00    +0.008 C 
ATOM     27  C   UNL     1      32.981 -21.152 -19.975  0.00  0.00    +0.008 C 
BRANCH  22  28
ATOM     28  O   UNL     1      34.561 -18.786 -22.276  0.00  0.00    -0.475 OA
BRANCH  28  29
ATOM     29  C   UNL     1      34.626 -19.181 -23.645  0.00  0.00    +0.205 C 
BRANCH  29  30
ATOM     30  C   UNL     1      34.964 -17.962 -24.492  0.00  0.00    +0.048 C 
BRANCH  30  31
ATOM     31  C   UNL     1      35.288 -16.746 -23.626  0.00  0.00    +0.009 C 
BRANCH  31  32
ATOM     32  C   UNL     1      34.541 -15.503 -24.114  0.00  0.00    +0.026 C 
BRANCH  32  33
ATOM     33  C   UNL     1      33.788 -14.831 -22.993  0.00  0.00    -0.022 C 
ATOM     34  C   UNL     1      33.857 -15.346 -21.700  0.00  0.00    -0.004 C 
ATOM     35  C   UNL     1      33.022 -13.695 -23.251  0.00  0.00    -0.004 C 
ATOM     36  C   UNL     1      33.160 -14.726 -20.663  0.00  0.00    -0.000 C 
ATOM     37  C   UNL     1      32.325 -13.073 -22.215  0.00  0.00    -0.000 C 
ATOM     38  C   UNL     1      32.394 -13.589 -20.921  0.00  0.00    -0.000 C 
ENDBRANCH  32  33
ENDBRANCH  31  32
ENDBRANCH  30  31
ENDBRANCH  29  30
ENDBRANCH  28  29
ENDBRANCH  22  28
ENDBRANCH   3  23
TORSDOF 9
ENDMDL
MODEL 4
REMARK VINA RESULT:     -13.6      1.663      3.794
REMARK  Name = 4887
REMARK  9 active torsions:
REMARK  status: ('A' for Active; 'I' for Inactive)
REMARK    1  A    between atoms: N_2  and  C_8
REMARK    2  A    between atoms: C_3  and  C_23
REMARK    3  A    between atoms: C_14  and  C_20
REMARK    4  A    between atoms: C_22  and  O_28
REMARK    5  A    between atoms: O_28  and  C_29
REMARK    6  A    between atoms: C_29  and  C_30
REMARK    7  A    between atoms: C_30  and  C_31
REMARK    8  A    between atoms: C_31  and  C_32
REMARK    9  A    between atoms: C_32  and  C_33
REMARK                            x       y       z     vdW  Elec       q    Type
REMARK                         _______ _______ _______ _____ _____    ______ ____
ROOT
ATOM      1  O   UNL     1      34.294 -23.471 -18.565  0.00  0.00    -0.270 OA
ATOM      2  N   UNL     1      35.728 -22.008 -17.412  0.00  0.00    -0.278 N 
ATOM      3  C   UNL     1      34.916 -22.418 -18.476  0.00  0.00    +0.250 C 
ATOM      4  H   UNL     1      36.154 -21.126 -17.508  0.00  0.00    +0.155 HD
ENDROOT
BRANCH   2   8
ATOM      5  O   UNL     1      33.694 -22.907 -15.806  0.00  0.00    -0.442 OA
ATOM      6  O   UNL     1      34.378 -24.935 -12.342  0.00  0.00    -0.286 OA
ATOM      7  C   UNL     1      34.981 -23.161 -15.405  0.00  0.00    +0.163 C 
ATOM      8  C   UNL     1      36.008 -22.700 -16.229  0.00  0.00    +0.086 C 
ATOM      9  C   UNL     1      35.287 -23.849 -14.233  0.00  0.00    +0.075 C 
ATOM     10  C   UNL     1      37.337 -22.927 -15.875  0.00  0.00    +0.018 C 
ATOM     11  C   UNL     1      36.616 -24.079 -13.874  0.00  0.00    +0.006 C 
ATOM     12  C   UNL     1      34.185 -24.324 -13.384  0.00  0.00    +0.202 C 
ATOM     13  C   UNL     1      37.641 -23.616 -14.700  0.00  0.00    +0.002 C 
ATOM     14  C   UNL     1      32.644 -23.351 -15.009  0.00  0.00    +0.213 C 
ATOM     15  C   UNL     1      32.820 -24.023 -13.859  0.00  0.00    +0.090 C 
BRANCH  14  20
ATOM     16  N   UNL     1      30.212 -22.874 -14.860  0.00  0.00    -0.107 NA
ATOM     17  N   UNL     1      31.214 -22.807 -16.890  0.00  0.00    -0.084 NA
ATOM     18  N   UNL     1      29.383 -22.569 -15.869  0.00  0.00    -0.140 N 
ATOM     19  N   UNL     1      29.934 -22.518 -17.090  0.00  0.00    -0.022 NA
ATOM     20  C   UNL     1      31.348 -23.013 -15.549  0.00  0.00    +0.109 C 
ATOM     21  H   UNL     1      28.426 -22.394 -15.722  0.00  0.00    +0.197 HD
ENDBRANCH  14  20
ENDBRANCH   2   8
BRANCH   3  23
ATOM     22  C   UNL     1      34.687 -19.684 -21.756  0.00  0.00    +0.139 C 
ATOM     23  C   UNL     1      34.836 -21.468 -19.616  0.00  0.00    +0.054 C 
ATOM     24  C   UNL     1      35.929 -20.139 -21.312  0.00  0.00    +0.037 C 
ATOM     25  C   UNL     1      33.520 -20.122 -21.130  0.00  0.00    +0.037 C 
ATOM     26  C   UNL     1      36.004 -21.030 -20.241  0.00  0.00    +0.008 C 
ATOM     27  C   UNL     1      33.594 -21.014 -20.061  0.00  0.00    +0.008 C 
BRANCH  22  28
ATOM     28  O   UNL     1      34.614 -18.816 -22.801  0.00  0.00    -0.475 OA
BRANCH  28  29
ATOM     29  C   UNL     1      35.425 -17.644 -22.729  0.00  0.00    +0.205 C 
BRANCH  29  30
ATOM     30  C   UNL     1      35.248 -16.845 -24.013  0.00  0.00    +0.048 C 
BRANCH  30  31
ATOM     31  C   UNL     1      34.099 -15.844 -23.899  0.00  0.00    +0.009 C 
BRANCH  31  32
ATOM     32  C   UNL     1      34.619 -14.433 -23.614  0.00  0.00    +0.026 C 
BRANCH  32  33
ATOM     33  C   UNL     1      33.637 -13.632 -22.797  0.00  0.00    -0.022 C 
ATOM     34  C   UNL     1      33.225 -12.375 -23.238  0.00  0.00    -0.004 C 
ATOM     35  C   UNL     1      33.143 -14.147 -21.600  0.00  0.00    -0.004 C 
ATOM     36  C   UNL     1      32.318 -11.633 -22.483  0.00  0.00    -0.000 C 
ATOM     37  C   UNL     1      32.235 -13.406 -20.843  0.00  0.00    -0.000 C 
ATOM     38  C   UNL     1      31.822 -12.149 -21.285  0.00  0.00    -0.000 C 
ENDBRANCH  32  33
ENDBRANCH  31  32
ENDBRANCH  30  31
ENDBRANCH  29  30
ENDBRANCH  28  29
ENDBRANCH  22  28
ENDBRANCH   3  23
TORSDOF 9
ENDMDL
MODEL 5
REMARK VINA RESULT:     -12.4      2.111      3.924
REMARK  Name = 4887
REMARK  9 active torsions:
REMARK  status: ('A' for Active; 'I' for Inactive)
REMARK    1  A    between atoms: N_2  and  C_8
REMARK    2  A    between atoms: C_3  and  C_23
REMARK    3  A    between atoms: C_14  and  C_20
REMARK    4  A    between atoms: C_22  and  O_28
REMARK    5  A    between atoms: O_28  and  C_29
REMARK    6  A    between atoms: C_29  and  C_30
REMARK    7  A    between atoms: C_30  and  C_31
REMARK    8  A    between atoms: C_31  and  C_32
REMARK    9  A    between atoms: C_32  and  C_33
REMARK                            x       y       z     vdW  Elec       q    Type
REMARK                         _______ _______ _______ _____ _____    ______ ____
ROOT
ATOM      1  O   UNL     1      34.447 -23.978 -17.189  0.00  0.00    -0.270 OA
ATOM      2  N   UNL     1      36.402 -22.773 -16.688  0.00  0.00    -0.278 N 
ATOM      3  C   UNL     1      35.236 -23.066 -17.407  0.00  0.00    +0.250 C 
ATOM      4  H   UNL     1      36.920 -21.998 -17.003  0.00  0.00    +0.155 HD
ENDROOT
BRANCH   2   8
ATOM      5  O   UNL     1      34.752 -23.577 -14.650  0.00  0.00    -0.442 OA
ATOM      6  O   UNL     1      36.136 -25.553 -11.369  0.00  0.00    -0.286 OA
ATOM      7  C   UNL     1      36.089 -23.862 -14.536  0.00  0.00    +0.163 C 
ATOM      8  C   UNL     1      36.919 -23.448 -15.579  0.00  0.00    +0.086 C 
ATOM      9  C   UNL     1      36.630 -24.534 -13.443  0.00  0.00    +0.075 C 
ATOM     10  C   UNL     1      38.288 -23.708 -15.522  0.00  0.00    +0.018 C 
ATOM     11  C   UNL     1      38.000 -24.797 -13.381  0.00  0.00    +0.006 C 
ATOM     12  C   UNL     1      35.732 -24.958 -12.359  0.00  0.00    +0.202 C 
ATOM     13  C   UNL     1      38.828 -24.382 -14.425  0.00  0.00    +0.002 C 
ATOM     14  C   UNL     1      33.894 -23.973 -13.630  0.00  0.00    +0.213 C 
ATOM     15  C   UNL     1      34.303 -24.626 -12.529  0.00  0.00    +0.090 C 
BRANCH  14  20
ATOM     16  N   UNL     1      31.454 -23.990 -13.170  0.00  0.00    -0.107 NA
ATOM     17  N   UNL     1      32.223 -22.791 -14.931  0.00  0.00    -0.084 NA
ATOM     18  N   UNL     1      30.495 -23.355 -13.859  0.00  0.00    -0.140 N 
ATOM     19  N   UNL     1      30.906 -22.633 -14.910  0.00  0.00    -0.022 NA
ATOM     20  C   UNL     1      32.519 -23.607 -13.878  0.00  0.00    +0.109 C 
ATOM     21  H   UNL     1      29.546 -23.415 -13.608  0.00  0.00    +0.197 HD
ENDBRANCH  14  20
ENDBRANCH   2   8
BRANCH   3  23
ATOM     22  C   UNL     1      34.451 -20.501 -20.737  0.00  0.00    +0.139 C 
ATOM     23  C   UNL     1      34.963 -22.175 -18.565  0.00  0.00    +0.054 C 
ATOM     24  C   UNL     1      35.766 -20.741 -20.336  0.00  0.00    +0.037 C 
ATOM     25  C   UNL     1      33.393 -21.098 -20.052  0.00  0.00    +0.037 C 
ATOM     26  C   UNL     1      36.021 -21.577 -19.249  0.00  0.00    +0.008 C 
ATOM     27  C   UNL     1      33.648 -21.934 -18.966  0.00  0.00    +0.008 C 
BRANCH  22  28
ATOM     28  O   UNL     1      34.202 -19.687 -21.798  0.00  0.00    -0.475 OA
BRANCH  28  29
ATOM     29  C   UNL     1      35.271 -18.852 -22.241  0.00  0.00    +0.205 C 
BRANCH  29  30
ATOM     30  C   UNL     1      34.765 -17.962 -23.368  0.00  0.00    +0.048 C 
BRANCH  30  31
ATOM     31  C   UNL     1      35.583 -16.677 -23.481  0.00  0.00    +0.009 C 
BRANCH  31  32
ATOM     32  C   UNL     1      34.730 -15.522 -24.009  0.00  0.00    +0.026 C 
BRANCH  32  33
ATOM     33  C   UNL     1      33.917 -14.883 -22.911  0.00  0.00    -0.022 C 
ATOM     34  C   UNL     1      34.021 -15.355 -21.602  0.00  0.00    -0.004 C 
ATOM     35  C   UNL     1      33.061 -13.823 -23.203  0.00  0.00    -0.004 C 
ATOM     36  C   UNL     1      33.270 -14.766 -20.586  0.00  0.00    -0.000 C 
ATOM     37  C   UNL     1      32.309 -13.233 -22.187  0.00  0.00    -0.000 C 
ATOM     38  C   UNL     1      32.413 -13.704 -20.879  0.00  0.00    -0.000 C 
ENDBRANCH  32  33
ENDBRANCH  31  32
ENDBRANCH  30  31
ENDBRANCH  29  30
ENDBRANCH  28  29
ENDBRANCH  22  28
ENDBRANCH   3  23
TORSDOF 9
ENDMDL
MODEL 6
REMARK VINA RESULT:     -12.1      7.560     11.664
REMARK  Name = 4887
REMARK  9 active torsions:
REMARK  status: ('A' for Active; 'I' for Inactive)
REMARK    1  A    between atoms: N_2  and  C_8
REMARK    2  A    between atoms: C_3  and  C_23
REMARK    3  A    between atoms: C_14  and  C_20
REMARK    4  A    between atoms: C_22  and  O_28
REMARK    5  A    between atoms: O_28  and  C_29
REMARK    6  A    between atoms: C_29  and  C_30
REMARK    7  A    between atoms: C_30  and  C_31
REMARK    8  A    between atoms: C_31  and  C_32
REMARK    9  A    between atoms: C_32  and  C_33
REMARK                            x       y       z     vdW  Elec       q    Type
REMARK                         _______ _______ _______ _____ _____    ______ ____
ROOT
ATOM      1  O   UNL     1      31.744 -14.528 -20.704  0.00  0.00    -0.270 OA
ATOM      2  N   UNL     1      33.918 -14.086 -21.480  0.00  0.00    -0.278 N 
ATOM      3  C   UNL     1      32.645 -13.752 -21.003  0.00  0.00    +0.250 C 
ATOM      4  H   UNL     1      34.520 -13.331 -21.670  0.00  0.00    +0.155 HD
ENDROOT
BRANCH   2   8
ATOM      5  O   UNL     1      33.966 -15.117 -24.021  0.00  0.00    -0.442 OA
ATOM      6  O   UNL     1      35.457 -18.814 -24.852  0.00  0.00    -0.286 OA
ATOM      7  C   UNL     1      34.468 -15.895 -23.010  0.00  0.00    +0.163 C 
ATOM      8  C   UNL     1      34.438 -15.361 -21.720  0.00  0.00    +0.086 C 
ATOM      9  C   UNL     1      34.992 -17.168 -23.222  0.00  0.00    +0.075 C 
ATOM     10  C   UNL     1      34.933 -16.105 -20.650  0.00  0.00    +0.018 C 
ATOM     11  C   UNL     1      35.490 -17.916 -22.153  0.00  0.00    +0.006 C 
ATOM     12  C   UNL     1      35.011 -17.705 -24.590  0.00  0.00    +0.202 C 
ATOM     13  C   UNL     1      35.458 -17.380 -20.865  0.00  0.00    +0.002 C 
ATOM     14  C   UNL     1      33.978 -15.617 -25.319  0.00  0.00    +0.213 C 
ATOM     15  C   UNL     1      34.459 -16.829 -25.642  0.00  0.00    +0.090 C 
BRANCH  14  20
ATOM     16  N   UNL     1      32.166 -14.234 -26.305  0.00  0.00    -0.107 NA
ATOM     17  N   UNL     1      34.207 -14.218 -27.287  0.00  0.00    -0.084 NA
ATOM     18  N   UNL     1      32.246 -13.448 -27.388  0.00  0.00    -0.140 N 
ATOM     19  N   UNL     1      33.436 -13.408 -28.002  0.00  0.00    -0.022 NA
ATOM     20  C   UNL     1      33.420 -14.695 -26.281  0.00  0.00    +0.109 C 
ATOM     21  H   UNL     1      31.475 -12.930 -27.714  0.00  0.00    +0.197 HD
ENDBRANCH  14  20
ENDBRANCH   2   8
BRANCH   3  23
ATOM     22  C   UNL     1      31.869  -9.563 -20.639  0.00  0.00    +0.139 C 
ATOM     23  C   UNL     1      32.375 -12.296 -20.877  0.00  0.00    +0.054 C 
ATOM     24  C   UNL     1      32.100 -10.332 -19.498  0.00  0.00    +0.037 C 
ATOM     25  C   UNL     1      31.891 -10.161 -21.899  0.00  0.00    +0.037 C 
ATOM     26  C   UNL     1      32.353 -11.698 -19.617  0.00  0.00    +0.008 C 
ATOM     27  C   UNL     1      32.144 -11.527 -22.019  0.00  0.00    +0.008 C 
BRANCH  22  28
ATOM     28  O   UNL     1      31.625  -8.229 -20.523  0.00  0.00    -0.475 OA
BRANCH  28  29
ATOM     29  C   UNL     1      32.758  -7.364 -20.474  0.00  0.00    +0.205 C 
BRANCH  29  30
ATOM     30  C   UNL     1      32.391  -6.036 -21.123  0.00  0.00    +0.048 C 
BRANCH  30  31
ATOM     31  C   UNL     1      32.148  -6.191 -22.624  0.00  0.00    +0.009 C 
BRANCH  31  32
ATOM     32  C   UNL     1      33.360  -6.815 -23.319  0.00  0.00    +0.026 C 
BRANCH  32  33
ATOM     33  C   UNL     1      33.722  -6.071 -24.580  0.00  0.00    -0.022 C 
ATOM     34  C   UNL     1      32.783  -5.241 -25.193  0.00  0.00    -0.004 C 
ATOM     35  C   UNL     1      34.993  -6.213 -25.134  0.00  0.00    -0.004 C 
ATOM     36  C   UNL     1      33.116  -4.554 -26.360  0.00  0.00    -0.000 C 
ATOM     37  C   UNL     1      35.328  -5.526 -26.300  0.00  0.00    -0.000 C 
ATOM     38  C   UNL     1      34.389  -4.696 -26.913  0.00  0.00    -0.000 C 
ENDBRANCH  32  33
ENDBRANCH  31  32
ENDBRANCH  30  31
ENDBRANCH  29  30
ENDBRANCH  28  29
ENDBRANCH  22  28
ENDBRANCH   3  23
TORSDOF 9
ENDMDL
