MODEL 1
REMARK VINA RESULT:     -12.4      0.000      0.000
REMARK  Name = 42627755
REMARK  2 active torsions:
REMARK  status: ('A' for Active; 'I' for Inactive)
REMARK    1  A    between atoms: N_5  and  C_20
REMARK    2  A    between atoms: C_7  and  C_28
REMARK                            x       y       z     vdW  Elec       q    Type
REMARK                         _______ _______ _______ _____ _____    ______ ____
ROOT
ATOM      1  N   UNL     1      35.530 -21.686 -19.318  0.00  0.00    -0.239 N 
ATOM      2  N   UNL     1      34.857 -22.317 -18.342  0.00  0.00    -0.166 NA
ATOM      3  N   UNL     1      32.459 -22.507 -17.920  0.00  0.00    -0.271 N 
ATOM      4  N   UNL     1      33.441 -23.746 -16.140  0.00  0.00    -0.322 NA
ATOM      5  N   UNL     1      34.364 -24.973 -14.372  0.00  0.00    -0.247 N 
ATOM      6  N   UNL     1      32.032 -24.800 -14.493  0.00  0.00    -0.170 NA
ATOM      7  C   UNL     1      34.729 -21.047 -20.218  0.00  0.00    +0.045 C 
ATOM      8  C   UNL     1      33.440 -21.277 -19.801  0.00  0.00    +0.048 C 
ATOM      9  C   UNL     1      33.579 -22.063 -18.642  0.00  0.00    +0.152 C 
ATOM     10  C   UNL     1      32.327 -23.291 -16.748  0.00  0.00    +0.199 C 
ATOM     11  C   UNL     1      31.049 -23.545 -16.296  0.00  0.00    +0.070 C 
ATOM     12  C   UNL     1      33.224 -24.483 -15.033  0.00  0.00    +0.150 C 
ATOM     13  C   UNL     1      30.960 -24.312 -15.152  0.00  0.00    +0.116 C 
ATOM     14  H   UNL     1      36.514 -21.686 -19.380  0.00  0.00    +0.174 HD
ATOM     15  H   UNL     1      31.601 -22.216 -18.302  0.00  0.00    +0.156 HD
ATOM     16  H   UNL     1      34.158 -25.506 -13.570  0.00  0.00    +0.165 HD
ENDROOT
BRANCH   5  20
ATOM     17  N   UNL     1      39.051 -26.540 -14.410  0.00  0.00    -0.315 N 
ATOM     18  N   UNL     1      39.836 -24.676 -15.329  0.00  0.00    -0.315 N 
ATOM     19  C   UNL     1      37.958 -25.733 -14.591  0.00  0.00    +0.060 C 
ATOM     20  C   UNL     1      35.748 -24.852 -14.634  0.00  0.00    +0.059 C 
ATOM     21  C   UNL     1      38.474 -24.576 -15.166  0.00  0.00    +0.059 C 
ATOM     22  C   UNL     1      36.603 -25.910 -14.309  0.00  0.00    +0.031 C 
ATOM     23  C   UNL     1      36.236 -23.678 -15.212  0.00  0.00    +0.017 C 
ATOM     24  C   UNL     1      37.601 -23.522 -15.487  0.00  0.00    +0.017 C 
ATOM     25  C   UNL     1      40.149 -25.865 -14.866  0.00  0.00    +0.182 C 
ATOM     26  H   UNL     1      39.047 -27.445 -14.021  0.00  0.00    +0.148 HD
ATOM     27  H   UNL     1      40.445 -24.003 -15.712  0.00  0.00    +0.148 HD
ENDBRANCH   5  20
BRANCH   7  28
ATOM     28  C   UNL     1      35.179 -20.246 -21.432  0.00  0.00    +0.037 C 
ATOM     29  C   UNL     1      36.348 -19.318 -21.290  0.00  0.00    +0.006 C 
ATOM     30  C   UNL     1      34.962 -18.761 -21.435  0.00  0.00    +0.006 C 
ENDBRANCH   7  28
TORSDOF 2
ENDMDL
MODEL 2
REMARK VINA RESULT:     -11.9      1.981      6.909
REMARK  Name = 42627755
REMARK  2 active torsions:
REMARK  status: ('A' for Active; 'I' for Inactive)
REMARK    1  A    between atoms: N_5  and  C_20
REMARK    2  A    between atoms: C_7  and  C_28
REMARK                            x       y       z     vdW  Elec       q    Type
REMARK                         _______ _______ _______ _____ _____    ______ ____
ROOT
ATOM      1  N   UNL     1      30.919 -22.870 -17.193  0.00  0.00    -0.239 N 
ATOM      2  N   UNL     1      32.237 -22.925 -16.940  0.00  0.00    -0.166 NA
ATOM      3  N   UNL     1      33.469 -23.940 -15.093  0.00  0.00    -0.271 N 
ATOM      4  N   UNL     1      35.179 -23.003 -16.459  0.00  0.00    -0.322 NA
ATOM      5  N   UNL     1      36.894 -22.096 -17.772  0.00  0.00    -0.247 N 
ATOM      6  N   UNL     1      37.489 -23.226 -15.809  0.00  0.00    -0.170 NA
ATOM      7  C   UNL     1      30.150 -23.486 -16.250  0.00  0.00    +0.045 C 
ATOM      8  C   UNL     1      31.028 -23.981 -15.316  0.00  0.00    +0.048 C 
ATOM      9  C   UNL     1      32.298 -23.605 -15.792  0.00  0.00    +0.152 C 
ATOM     10  C   UNL     1      34.839 -23.689 -15.348  0.00  0.00    +0.199 C 
ATOM     11  C   UNL     1      35.754 -24.169 -14.435  0.00  0.00    +0.070 C 
ATOM     12  C   UNL     1      36.502 -22.809 -16.624  0.00  0.00    +0.150 C 
ATOM     13  C   UNL     1      37.078 -23.905 -14.718  0.00  0.00    +0.116 C 
ATOM     14  H   UNL     1      30.541 -22.424 -17.986  0.00  0.00    +0.174 HD
ATOM     15  H   UNL     1      33.306 -24.446 -14.265  0.00  0.00    +0.156 HD
ATOM     16  H   UNL     1      37.868 -21.980 -17.852  0.00  0.00    +0.165 HD
ENDROOT
BRANCH   5  20
ATOM     17  N   UNL     1      36.304 -19.152 -21.696  0.00  0.00    -0.315 N 
ATOM     18  N   UNL     1      34.173 -19.708 -21.996  0.00  0.00    -0.315 N 
ATOM     19  C   UNL     1      36.020 -20.056 -20.707  0.00  0.00    +0.060 C 
ATOM     20  C   UNL     1      36.161 -21.516 -18.833  0.00  0.00    +0.059 C 
ATOM     21  C   UNL     1      34.684 -20.389 -20.915  0.00  0.00    +0.059 C 
ATOM     22  C   UNL     1      36.792 -20.596 -19.678  0.00  0.00    +0.031 C 
ATOM     23  C   UNL     1      34.823 -21.869 -19.016  0.00  0.00    +0.017 C 
ATOM     24  C   UNL     1      34.067 -21.314 -20.056  0.00  0.00    +0.017 C 
ATOM     25  C   UNL     1      35.170 -18.976 -22.440  0.00  0.00    +0.182 C 
ATOM     26  H   UNL     1      37.169 -18.707 -21.845  0.00  0.00    +0.148 HD
ATOM     27  H   UNL     1      33.259 -19.759 -22.359  0.00  0.00    +0.148 HD
ENDBRANCH   5  20
BRANCH   7  28
ATOM     28  C   UNL     1      28.632 -23.598 -16.243  0.00  0.00    +0.037 C 
ATOM     29  C   UNL     1      27.848 -22.841 -17.274  0.00  0.00    +0.006 C 
ATOM     30  C   UNL     1      27.823 -22.400 -15.839  0.00  0.00    +0.006 C 
ENDBRANCH   7  28
TORSDOF 2
ENDMDL
MODEL 3
REMARK VINA RESULT:     -11.9      1.911      5.573
REMARK  Name = 42627755
REMARK  2 active torsions:
REMARK  status: ('A' for Active; 'I' for Inactive)
REMARK    1  A    between atoms: N_5  and  C_20
REMARK    2  A    between atoms: C_7  and  C_28
REMARK                            x       y       z     vdW  Elec       q    Type
REMARK                         _______ _______ _______ _____ _____    ______ ____
ROOT
ATOM      1  N   UNL     1      34.195 -22.037 -18.917  0.00  0.00    -0.239 N 
ATOM      2  N   UNL     1      34.498 -22.548 -17.712  0.00  0.00    -0.166 NA
ATOM      3  N   UNL     1      36.636 -22.740 -16.550  0.00  0.00    -0.271 N 
ATOM      4  N   UNL     1      35.081 -23.700 -15.024  0.00  0.00    -0.322 NA
ATOM      5  N   UNL     1      33.586 -24.654 -13.493  0.00  0.00    -0.247 N 
ATOM      6  N   UNL     1      35.852 -24.557 -12.908  0.00  0.00    -0.170 NA
ATOM      7  C   UNL     1      35.272 -21.548 -19.596  0.00  0.00    +0.045 C 
ATOM      8  C   UNL     1      36.355 -21.753 -18.776  0.00  0.00    +0.048 C 
ATOM      9  C   UNL     1      35.820 -22.372 -17.632  0.00  0.00    +0.152 C 
ATOM     10  C   UNL     1      36.355 -23.362 -15.309  0.00  0.00    +0.199 C 
ATOM     11  C   UNL     1      37.416 -23.585 -14.456  0.00  0.00    +0.070 C 
ATOM     12  C   UNL     1      34.903 -24.286 -13.824  0.00  0.00    +0.150 C 
ATOM     13  C   UNL     1      37.103 -24.193 -13.258  0.00  0.00    +0.116 C 
ATOM     14  H   UNL     1      33.278 -22.017 -19.278  0.00  0.00    +0.174 HD
ATOM     15  H   UNL     1      37.587 -22.525 -16.680  0.00  0.00    +0.156 HD
ATOM     16  H   UNL     1      33.504 -25.077 -12.608  0.00  0.00    +0.165 HD
ENDROOT
BRANCH   5  20
ATOM     17  N   UNL     1      30.501 -22.634 -16.782  0.00  0.00    -0.315 N 
ATOM     18  N   UNL     1      28.831 -24.022 -16.310  0.00  0.00    -0.315 N 
ATOM     19  C   UNL     1      30.981 -23.463 -15.803  0.00  0.00    +0.060 C 
ATOM     20  C   UNL     1      32.358 -24.532 -14.184  0.00  0.00    +0.059 C 
ATOM     21  C   UNL     1      29.920 -24.321 -15.525  0.00  0.00    +0.059 C 
ATOM     22  C   UNL     1      32.214 -23.536 -15.155  0.00  0.00    +0.031 C 
ATOM     23  C   UNL     1      31.313 -25.407 -13.883  0.00  0.00    +0.017 C 
ATOM     24  C   UNL     1      30.083 -25.316 -14.546  0.00  0.00    +0.017 C 
ATOM     25  C   UNL     1      29.212 -23.006 -17.051  0.00  0.00    +0.182 C 
ATOM     26  H   UNL     1      30.994 -21.900 -17.215  0.00  0.00    +0.148 HD
ATOM     27  H   UNL     1      27.955 -24.472 -16.316  0.00  0.00    +0.148 HD
ENDBRANCH   5  20
BRANCH   7  28
ATOM     28  C   UNL     1      35.265 -20.909 -20.978  0.00  0.00    +0.037 C 
ATOM     29  C   UNL     1      35.849 -19.537 -21.140  0.00  0.00    +0.006 C 
ATOM     30  C   UNL     1      34.364 -19.734 -21.224  0.00  0.00    +0.006 C 
ENDBRANCH   7  28
TORSDOF 2
ENDMDL
MODEL 4
REMARK VINA RESULT:     -11.9      1.685      5.389
REMARK  Name = 42627755
REMARK  2 active torsions:
REMARK  status: ('A' for Active; 'I' for Inactive)
REMARK    1  A    between atoms: N_5  and  C_20
REMARK    2  A    between atoms: C_7  and  C_28
REMARK                            x       y       z     vdW  Elec       q    Type
REMARK                         _______ _______ _______ _____ _____    ______ ____
ROOT
ATOM      1  N   UNL     1      34.477 -21.505 -19.348  0.00  0.00    -0.239 N 
ATOM      2  N   UNL     1      34.903 -22.131 -18.239  0.00  0.00    -0.166 NA
ATOM      3  N   UNL     1      37.155 -22.464 -17.356  0.00  0.00    -0.271 N 
ATOM      4  N   UNL     1      35.761 -23.540 -15.754  0.00  0.00    -0.322 NA
ATOM      5  N   UNL     1      34.428 -24.611 -14.153  0.00  0.00    -0.247 N 
ATOM      6  N   UNL     1      36.747 -24.604 -13.829  0.00  0.00    -0.170 NA
ATOM      7  C   UNL     1      35.482 -20.971 -20.100  0.00  0.00    +0.045 C 
ATOM      8  C   UNL     1      36.646 -21.268 -19.434  0.00  0.00    +0.048 C 
ATOM      9  C   UNL     1      36.230 -21.984 -18.297  0.00  0.00    +0.152 C 
ATOM     10  C   UNL     1      37.003 -23.195 -16.153  0.00  0.00    +0.199 C 
ATOM     11  C   UNL     1      38.148 -23.514 -15.453  0.00  0.00    +0.070 C 
ATOM     12  C   UNL     1      35.707 -24.234 -14.599  0.00  0.00    +0.150 C 
ATOM     13  C   UNL     1      37.959 -24.226 -14.288  0.00  0.00    +0.116 C 
ATOM     14  H   UNL     1      33.526 -21.438 -19.596  0.00  0.00    +0.174 HD
ATOM     15  H   UNL     1      38.090 -22.251 -17.575  0.00  0.00    +0.156 HD
ATOM     16  H   UNL     1      34.437 -25.114 -13.307  0.00  0.00    +0.165 HD
ENDROOT
BRANCH   5  20
ATOM     17  N   UNL     1      29.580 -25.489 -14.537  0.00  0.00    -0.315 N 
ATOM     18  N   UNL     1      29.263 -23.953 -16.112  0.00  0.00    -0.315 N 
ATOM     19  C   UNL     1      30.813 -24.935 -14.761  0.00  0.00    +0.060 C 
ATOM     20  C   UNL     1      33.133 -24.407 -14.681  0.00  0.00    +0.059 C 
ATOM     21  C   UNL     1      30.590 -23.979 -15.748  0.00  0.00    +0.059 C 
ATOM     22  C   UNL     1      32.069 -25.179 -14.203  0.00  0.00    +0.031 C 
ATOM     23  C   UNL     1      32.940 -23.441 -15.670  0.00  0.00    +0.017 C 
ATOM     24  C   UNL     1      31.670 -23.212 -16.217  0.00  0.00    +0.017 C 
ATOM     25  C   UNL     1      28.687 -24.870 -15.368  0.00  0.00    +0.182 C 
ATOM     26  H   UNL     1      29.374 -26.205 -13.894  0.00  0.00    +0.148 HD
ATOM     27  H   UNL     1      28.837 -23.372 -16.784  0.00  0.00    +0.148 HD
ENDBRANCH   5  20
BRANCH   7  28
ATOM     28  C   UNL     1      35.333 -20.204 -21.407  0.00  0.00    +0.037 C 
ATOM     29  C   UNL     1      36.254 -19.051 -21.676  0.00  0.00    +0.006 C 
ATOM     30  C   UNL     1      34.808 -18.799 -21.362  0.00  0.00    +0.006 C 
ENDBRANCH   7  28
TORSDOF 2
ENDMDL
MODEL 5
REMARK VINA RESULT:     -11.2     12.540     16.391
REMARK  Name = 42627755
REMARK  2 active torsions:
REMARK  status: ('A' for Active; 'I' for Inactive)
REMARK    1  A    between atoms: N_5  and  C_20
REMARK    2  A    between atoms: C_7  and  C_28
REMARK                            x       y       z     vdW  Elec       q    Type
REMARK                         _______ _______ _______ _____ _____    ______ ____
ROOT
ATOM      1  N   UNL     1      33.816 -12.147 -25.035  0.00  0.00    -0.239 N 
ATOM      2  N   UNL     1      33.424 -11.440 -23.962  0.00  0.00    -0.166 NA
ATOM      3  N   UNL     1      32.355 -12.149 -21.884  0.00  0.00    -0.271 N 
ATOM      4  N   UNL     1      32.585  -9.793 -21.621  0.00  0.00    -0.322 NA
ATOM      5  N   UNL     1      32.791  -7.480 -21.319  0.00  0.00    -0.247 N 
ATOM      6  N   UNL     1      31.808  -8.732 -19.601  0.00  0.00    -0.170 NA
ATOM      7  C   UNL     1      33.568 -13.485 -24.934  0.00  0.00    +0.045 C 
ATOM      8  C   UNL     1      32.973 -13.664 -23.709  0.00  0.00    +0.048 C 
ATOM      9  C   UNL     1      32.909 -12.373 -23.155  0.00  0.00    +0.152 C 
ATOM     10  C   UNL     1      32.173 -10.974 -21.114  0.00  0.00    +0.199 C 
ATOM     11  C   UNL     1      31.579 -11.111 -19.877  0.00  0.00    +0.070 C 
ATOM     12  C   UNL     1      32.375  -8.728 -20.822  0.00  0.00    +0.150 C 
ATOM     13  C   UNL     1      31.419  -9.946 -19.157  0.00  0.00    +0.116 C 
ATOM     14  H   UNL     1      34.244 -11.737 -25.822  0.00  0.00    +0.174 HD
ATOM     15  H   UNL     1      32.029 -12.966 -21.444  0.00  0.00    +0.156 HD
ATOM     16  H   UNL     1      32.619  -6.732 -20.703  0.00  0.00    +0.165 HD
ENDROOT
BRANCH   5  20
ATOM     17  N   UNL     1      33.037  -5.082 -25.633  0.00  0.00    -0.315 N 
ATOM     18  N   UNL     1      35.067  -5.842 -26.124  0.00  0.00    -0.315 N 
ATOM     19  C   UNL     1      33.393  -5.882 -24.579  0.00  0.00    +0.060 C 
ATOM     20  C   UNL     1      33.411  -7.091 -22.529  0.00  0.00    +0.059 C 
ATOM     21  C   UNL     1      34.663  -6.345 -24.908  0.00  0.00    +0.059 C 
ATOM     22  C   UNL     1      32.733  -6.232 -23.400  0.00  0.00    +0.031 C 
ATOM     23  C   UNL     1      34.686  -7.571 -22.831  0.00  0.00    +0.017 C 
ATOM     24  C   UNL     1      35.330  -7.207 -24.021  0.00  0.00    +0.017 C 
ATOM     25  C   UNL     1      34.069  -5.090 -26.530  0.00  0.00    +0.182 C 
ATOM     26  H   UNL     1      32.190  -4.590 -25.728  0.00  0.00    +0.148 HD
ATOM     27  H   UNL     1      35.919  -6.009 -26.588  0.00  0.00    +0.148 HD
ENDBRANCH   5  20
BRANCH   7  28
ATOM     28  C   UNL     1      33.889 -14.551 -25.972  0.00  0.00    +0.037 C 
ATOM     29  C   UNL     1      33.004 -15.758 -26.064  0.00  0.00    +0.006 C 
ATOM     30  C   UNL     1      34.390 -15.886 -25.503  0.00  0.00    +0.006 C 
ENDBRANCH   7  28
TORSDOF 2
ENDMDL
MODEL 6
REMARK VINA RESULT:     -10.9      1.904      5.384
REMARK  Name = 42627755
REMARK  2 active torsions:
REMARK  status: ('A' for Active; 'I' for Inactive)
REMARK    1  A    between atoms: N_5  and  C_20
REMARK    2  A    between atoms: C_7  and  C_28
REMARK                            x       y       z     vdW  Elec       q    Type
REMARK                         _______ _______ _______ _____ _____    ______ ____
ROOT
ATOM      1  N   UNL     1      31.843 -23.932 -15.415  0.00  0.00    -0.239 N 
ATOM      2  N   UNL     1      32.926 -23.494 -16.078  0.00  0.00    -0.166 NA
ATOM      3  N   UNL     1      33.134 -22.394 -18.248  0.00  0.00    -0.271 N 
ATOM      4  N   UNL     1      35.383 -22.548 -17.480  0.00  0.00    -0.322 NA
ATOM      5  N   UNL     1      37.609 -22.678 -16.764  0.00  0.00    -0.247 N 
ATOM      6  N   UNL     1      37.175 -21.689 -18.842  0.00  0.00    -0.170 NA
ATOM      7  C   UNL     1      30.669 -23.724 -16.077  0.00  0.00    +0.045 C 
ATOM      8  C   UNL     1      31.008 -23.104 -17.255  0.00  0.00    +0.048 C 
ATOM      9  C   UNL     1      32.409 -22.989 -17.202  0.00  0.00    +0.152 C 
ATOM     10  C   UNL     1      34.517 -22.159 -18.439  0.00  0.00    +0.199 C 
ATOM     11  C   UNL     1      34.900 -21.538 -19.610  0.00  0.00    +0.070 C 
ATOM     12  C   UNL     1      36.678 -22.285 -17.743  0.00  0.00    +0.150 C 
ATOM     13  C   UNL     1      36.255 -21.326 -19.760  0.00  0.00    +0.116 C 
ATOM     14  H   UNL     1      31.892 -24.365 -14.531  0.00  0.00    +0.174 HD
ATOM     15  H   UNL     1      32.571 -22.080 -18.992  0.00  0.00    +0.156 HD
ATOM     16  H   UNL     1      38.541 -22.466 -16.998  0.00  0.00    +0.165 HD
ENDROOT
BRANCH   5  20
ATOM     17  N   UNL     1      35.451 -23.486 -12.393  0.00  0.00    -0.315 N 
ATOM     18  N   UNL     1      36.889 -25.071 -11.794  0.00  0.00    -0.315 N 
ATOM     19  C   UNL     1      36.328 -23.598 -13.440  0.00  0.00    +0.060 C 
ATOM     20  C   UNL     1      37.466 -23.315 -15.510  0.00  0.00    +0.059 C 
ATOM     21  C   UNL     1      37.216 -24.594 -13.042  0.00  0.00    +0.059 C 
ATOM     22  C   UNL     1      36.419 -22.935 -14.664  0.00  0.00    +0.031 C 
ATOM     23  C   UNL     1      38.372 -24.310 -15.140  0.00  0.00    +0.017 C 
ATOM     24  C   UNL     1      38.262 -24.963 -13.905  0.00  0.00    +0.017 C 
ATOM     25  C   UNL     1      35.828 -24.385 -11.434  0.00  0.00    +0.182 C 
ATOM     26  H   UNL     1      34.687 -22.868 -12.339  0.00  0.00    +0.148 HD
ATOM     27  H   UNL     1      37.351 -25.774 -11.281  0.00  0.00    +0.148 HD
ENDBRANCH   5  20
BRANCH   7  28
ATOM     28  C   UNL     1      29.274 -24.103 -15.599  0.00  0.00    +0.037 C 
ATOM     29  C   UNL     1      28.205 -24.354 -16.621  0.00  0.00    +0.006 C 
ATOM     30  C   UNL     1      28.158 -23.115 -15.776  0.00  0.00    +0.006 C 
ENDBRANCH   7  28
TORSDOF 2
ENDMDL
MODEL 7
REMARK VINA RESULT:     -10.9      6.968     11.654
REMARK  Name = 42627755
REMARK  2 active torsions:
REMARK  status: ('A' for Active; 'I' for Inactive)
REMARK    1  A    between atoms: N_5  and  C_20
REMARK    2  A    between atoms: C_7  and  C_28
REMARK                            x       y       z     vdW  Elec       q    Type
REMARK                         _______ _______ _______ _____ _____    ______ ____
ROOT
ATOM      1  N   UNL     1      32.790 -13.120 -20.746  0.00  0.00    -0.239 N 
ATOM      2  N   UNL     1      33.035 -13.533 -22.000  0.00  0.00    -0.166 NA
ATOM      3  N   UNL     1      32.629 -12.446 -24.148  0.00  0.00    -0.271 N 
ATOM      4  N   UNL     1      33.616 -14.527 -24.752  0.00  0.00    -0.322 NA
ATOM      5  N   UNL     1      34.583 -16.562 -25.390  0.00  0.00    -0.247 N 
ATOM      6  N   UNL     1      33.964 -15.059 -27.076  0.00  0.00    -0.170 NA
ATOM      7  C   UNL     1      32.216 -11.885 -20.674  0.00  0.00    +0.045 C 
ATOM      8  C   UNL     1      32.077 -11.460 -21.973  0.00  0.00    +0.048 C 
ATOM      9  C   UNL     1      32.597 -12.514 -22.746  0.00  0.00    +0.152 C 
ATOM     10  C   UNL     1      33.088 -13.348 -25.139  0.00  0.00    +0.199 C 
ATOM     11  C   UNL     1      32.967 -12.959 -26.457  0.00  0.00    +0.070 C 
ATOM     12  C   UNL     1      34.028 -15.323 -25.758  0.00  0.00    +0.150 C 
ATOM     13  C   UNL     1      33.425 -13.863 -27.393  0.00  0.00    +0.116 C 
ATOM     14  H   UNL     1      33.005 -13.660 -19.950  0.00  0.00    +0.174 HD
ATOM     15  H   UNL     1      32.260 -11.610 -24.513  0.00  0.00    +0.156 HD
ATOM     16  H   UNL     1      34.871 -17.109 -26.156  0.00  0.00    +0.165 HD
ENDROOT
BRANCH   5  20
ATOM     17  N   UNL     1      34.883 -20.397 -22.288  0.00  0.00    -0.315 N 
ATOM     18  N   UNL     1      35.436 -19.144 -20.537  0.00  0.00    -0.315 N 
ATOM     19  C   UNL     1      34.918 -19.109 -22.756  0.00  0.00    +0.060 C 
ATOM     20  C   UNL     1      34.811 -17.174 -24.136  0.00  0.00    +0.059 C 
ATOM     21  C   UNL     1      35.265 -18.346 -21.645  0.00  0.00    +0.059 C 
ATOM     22  C   UNL     1      34.682 -18.562 -24.017  0.00  0.00    +0.031 C 
ATOM     23  C   UNL     1      35.158 -16.382 -23.040  0.00  0.00    +0.017 C 
ATOM     24  C   UNL     1      35.390 -16.953 -21.782  0.00  0.00    +0.017 C 
ATOM     25  C   UNL     1      35.199 -20.366 -20.957  0.00  0.00    +0.182 C 
ATOM     26  H   UNL     1      34.669 -21.200 -22.814  0.00  0.00    +0.148 HD
ATOM     27  H   UNL     1      35.683 -18.861 -19.627  0.00  0.00    +0.148 HD
ENDBRANCH   5  20
BRANCH   7  28
ATOM     28  C   UNL     1      31.815 -11.139 -19.409  0.00  0.00    +0.037 C 
ATOM     29  C   UNL     1      30.908  -9.950 -19.529  0.00  0.00    +0.006 C 
ATOM     30  C   UNL     1      32.356  -9.757 -19.185  0.00  0.00    +0.006 C 
ENDBRANCH   7  28
TORSDOF 2
ENDMDL
