MODEL 1
REMARK VINA RESULT:     -12.9      0.000      0.000
REMARK  Name = 54689025
REMARK  9 active torsions:
REMARK  status: ('A' for Active; 'I' for Inactive)
REMARK    1  A    between atoms: C_1  and  C_21
REMARK    2  A    between atoms: C_4  and  N_8
REMARK    3  A    between atoms: C_9  and  C_11
REMARK    4  A    between atoms: C_11  and  N_13
REMARK    5  A    between atoms: C_14  and  O_16
REMARK    6  A    between atoms: O_16  and  C_17
REMARK    7  A    between atoms: C_21  and  C_24
REMARK    8  A    between atoms: C_21  and  C_35
REMARK    9  A    between atoms: C_25  and  O_33
REMARK                            x       y       z     vdW  Elec       q    Type
REMARK                         _______ _______ _______ _____ _____    ______ ____
ROOT
ATOM      1  C   UNL     1      34.848 -20.189 -21.055  0.00  0.00    -0.017 C 
ATOM      2  C   UNL     1      35.184 -21.037 -20.000  0.00  0.00    +0.011 C 
ATOM      3  C   UNL     1      33.509 -19.898 -21.317  0.00  0.00    -0.004 C 
ATOM      4  C   UNL     1      34.181 -21.593 -19.205  0.00  0.00    +0.050 C 
ATOM      5  C   UNL     1      32.506 -20.456 -20.523  0.00  0.00    +0.001 C 
ATOM      6  C   UNL     1      32.842 -21.302 -19.467  0.00  0.00    +0.015 C 
ENDROOT
BRANCH   4   8
ATOM      7  O   UNL     1      36.605 -21.628 -17.430  0.00  0.00    -0.273 OA
ATOM      8  N   UNL     1      34.517 -22.442 -18.150  0.00  0.00    -0.283 N 
ATOM      9  C   UNL     1      35.669 -22.417 -17.347  0.00  0.00    +0.246 C 
ATOM     10  H   UNL     1      33.862 -23.147 -17.941  0.00  0.00    +0.155 HD
BRANCH   9  11
ATOM     11  C   UNL     1      35.631 -23.524 -16.309  0.00  0.00    +0.179 C 
BRANCH  11  13
ATOM     12  O   UNL     1      36.876 -23.217 -13.702  0.00  0.00    -0.226 OA
ATOM     13  N   UNL     1      36.962 -23.891 -15.922  0.00  0.00    -0.262 N 
ATOM     14  C   UNL     1      37.480 -23.709 -14.650  0.00  0.00    +0.402 C 
ATOM     15  H   UNL     1      37.545 -24.298 -16.603  0.00  0.00    +0.153 HD
BRANCH  14  16
ATOM     16  O   UNL     1      38.769 -24.159 -14.600  0.00  0.00    -0.442 OA
BRANCH  16  17
ATOM     17  C   UNL     1      38.949 -25.476 -14.066  0.00  0.00    +0.138 C 
ATOM     18  C   UNL     1      38.556 -25.460 -12.590  0.00  0.00    +0.044 C 
ATOM     19  C   UNL     1      40.425 -25.837 -14.225  0.00  0.00    +0.044 C 
ATOM     20  C   UNL     1      38.070 -26.445 -14.855  0.00  0.00    +0.044 C 
ENDBRANCH  16  17
ENDBRANCH  14  16
ENDBRANCH  11  13
ENDBRANCH   9  11
ENDBRANCH   4   8
BRANCH   1  21
ATOM     21  C   UNL     1      35.939 -19.583 -21.919  0.00  0.00    +0.054 C 
BRANCH  21  24
ATOM     22  O   UNL     1      34.600 -18.001 -25.087  0.00  0.00    -0.421 OA
ATOM     23  O   UNL     1      35.309 -20.100 -24.572  0.00  0.00    -0.245 OA
ATOM     24  C   UNL     1      35.384 -18.503 -22.808  0.00  0.00    +0.091 A 
ATOM     25  C   UNL     1      35.141 -17.231 -22.438  0.00  0.00    +0.139 A 
ATOM     26  C   UNL     1      35.105 -18.947 -24.204  0.00  0.00    +0.345 A 
ATOM     27  C   UNL     1      34.608 -16.258 -23.393  0.00  0.00    +0.068 A 
ATOM     28  C   UNL     1      34.352 -16.674 -24.695  0.00  0.00    +0.152 A 
ATOM     29  C   UNL     1      34.339 -14.921 -23.068  0.00  0.00    +0.006 C 
ATOM     30  C   UNL     1      33.844 -15.810 -25.667  0.00  0.00    +0.038 C 
ATOM     31  C   UNL     1      33.829 -14.042 -24.030  0.00  0.00    +0.000 C 
ATOM     32  C   UNL     1      33.583 -14.487 -25.328  0.00  0.00    +0.003 C 
BRANCH  25  33
ATOM     33  O   UNL     1      35.359 -16.729 -21.172  0.00  0.00    -0.506 OA
ATOM     34  H   UNL     1      34.640 -16.406 -20.666  0.00  0.00    +0.292 HD
ENDBRANCH  25  33
ENDBRANCH  21  24
BRANCH  21  35
ATOM     35  C   UNL     1      37.135 -19.037 -21.113  0.00  0.00    +0.009 C 
ATOM     36  C   UNL     1      38.298 -18.599 -21.998  0.00  0.00    +0.001 C 
ENDBRANCH  21  35
ENDBRANCH   1  21
TORSDOF 9
ENDMDL
MODEL 2
REMARK VINA RESULT:     -12.3      1.883      3.046
REMARK  Name = 54689025
REMARK  9 active torsions:
REMARK  status: ('A' for Active; 'I' for Inactive)
REMARK    1  A    between atoms: C_1  and  C_21
REMARK    2  A    between atoms: C_4  and  N_8
REMARK    3  A    between atoms: C_9  and  C_11
REMARK    4  A    between atoms: C_11  and  N_13
REMARK    5  A    between atoms: C_14  and  O_16
REMARK    6  A    between atoms: O_16  and  C_17
REMARK    7  A    between atoms: C_21  and  C_24
REMARK    8  A    between atoms: C_21  and  C_35
REMARK    9  A    between atoms: C_25  and  O_33
REMARK                            x       y       z     vdW  Elec       q    Type
REMARK                         _______ _______ _______ _____ _____    ______ ____
ROOT
ATOM      1  C   UNL     1      35.050 -20.295 -20.915  0.00  0.00    -0.017 C 
ATOM      2  C   UNL     1      35.494 -21.093 -19.861  0.00  0.00    +0.011 C 
ATOM      3  C   UNL     1      33.683 -20.115 -21.126  0.00  0.00    -0.004 C 
ATOM      4  C   UNL     1      34.571 -21.710 -19.016  0.00  0.00    +0.050 C 
ATOM      5  C   UNL     1      32.760 -20.733 -20.283  0.00  0.00    +0.001 C 
ATOM      6  C   UNL     1      33.204 -21.530 -19.228  0.00  0.00    +0.015 C 
ENDROOT
BRANCH   4   8
ATOM      7  O   UNL     1      36.774 -21.259 -17.024  0.00  0.00    -0.273 OA
ATOM      8  N   UNL     1      35.014 -22.509 -17.962  0.00  0.00    -0.283 N 
ATOM      9  C   UNL     1      36.054 -22.252 -17.054  0.00  0.00    +0.246 C 
ATOM     10  H   UNL     1      34.535 -23.361 -17.838  0.00  0.00    +0.155 HD
BRANCH   9  11
ATOM     11  C   UNL     1      36.201 -23.390 -16.060  0.00  0.00    +0.179 C 
BRANCH  11  13
ATOM     12  O   UNL     1      34.771 -23.857 -13.575  0.00  0.00    -0.226 OA
ATOM     13  N   UNL     1      34.947 -24.062 -15.881  0.00  0.00    -0.262 N 
ATOM     14  C   UNL     1      34.331 -24.243 -14.654  0.00  0.00    +0.402 C 
ATOM     15  H   UNL     1      34.496 -24.418 -16.681  0.00  0.00    +0.153 HD
BRANCH  14  16
ATOM     16  O   UNL     1      33.153 -24.917 -14.816  0.00  0.00    -0.442 OA
BRANCH  16  17
ATOM     17  C   UNL     1      31.970 -24.111 -14.829  0.00  0.00    +0.138 C 
ATOM     18  C   UNL     1      30.752 -25.032 -14.774  0.00  0.00    +0.044 C 
ATOM     19  C   UNL     1      31.977 -23.307 -16.128  0.00  0.00    +0.044 C 
ATOM     20  C   UNL     1      32.003 -23.178 -13.619  0.00  0.00    +0.044 C 
ENDBRANCH  16  17
ENDBRANCH  14  16
ENDBRANCH  11  13
ENDBRANCH   9  11
ENDBRANCH   4   8
BRANCH   1  21
ATOM     21  C   UNL     1      36.055 -19.623 -21.833  0.00  0.00    +0.054 C 
BRANCH  21  24
ATOM     22  O   UNL     1      34.551 -17.663 -24.701  0.00  0.00    -0.421 OA
ATOM     23  O   UNL     1      35.342 -19.787 -24.510  0.00  0.00    -0.245 OA
ATOM     24  C   UNL     1      35.435 -18.450 -22.542  0.00  0.00    +0.091 A 
ATOM     25  C   UNL     1      35.168 -17.251 -21.990  0.00  0.00    +0.139 A 
ATOM     26  C   UNL     1      35.117 -18.704 -23.978  0.00  0.00    +0.345 A 
ATOM     27  C   UNL     1      34.570 -16.174 -22.781  0.00  0.00    +0.068 A 
ATOM     28  C   UNL     1      34.278 -16.413 -24.120  0.00  0.00    +0.152 A 
ATOM     29  C   UNL     1      34.273 -14.906 -22.262  0.00  0.00    +0.006 C 
ATOM     30  C   UNL     1      33.709 -15.440 -24.943  0.00  0.00    +0.038 C 
ATOM     31  C   UNL     1      33.701 -13.920 -23.074  0.00  0.00    +0.000 C 
ATOM     32  C   UNL     1      33.421 -14.187 -24.413  0.00  0.00    +0.003 C 
BRANCH  25  33
ATOM     33  O   UNL     1      35.417 -16.924 -20.673  0.00  0.00    -0.506 OA
ATOM     34  H   UNL     1      36.282 -17.009 -20.325  0.00  0.00    +0.292 HD
ENDBRANCH  25  33
ENDBRANCH  21  24
BRANCH  21  35
ATOM     35  C   UNL     1      37.348 -19.181 -21.118  0.00  0.00    +0.009 C 
ATOM     36  C   UNL     1      38.365 -18.550 -22.064  0.00  0.00    +0.001 C 
ENDBRANCH  21  35
ENDBRANCH   1  21
TORSDOF 9
ENDMDL
MODEL 3
REMARK VINA RESULT:     -12.3      0.525      1.715
REMARK  Name = 54689025
REMARK  9 active torsions:
REMARK  status: ('A' for Active; 'I' for Inactive)
REMARK    1  A    between atoms: C_1  and  C_21
REMARK    2  A    between atoms: C_4  and  N_8
REMARK    3  A    between atoms: C_9  and  C_11
REMARK    4  A    between atoms: C_11  and  N_13
REMARK    5  A    between atoms: C_14  and  O_16
REMARK    6  A    between atoms: O_16  and  C_17
REMARK    7  A    between atoms: C_21  and  C_24
REMARK    8  A    between atoms: C_21  and  C_35
REMARK    9  A    between atoms: C_25  and  O_33
REMARK                            x       y       z     vdW  Elec       q    Type
REMARK                         _______ _______ _______ _____ _____    ______ ____
ROOT
ATOM      1  C   UNL     1      34.834 -20.098 -21.107  0.00  0.00    -0.017 C 
ATOM      2  C   UNL     1      35.197 -20.852 -19.991  0.00  0.00    +0.011 C 
ATOM      3  C   UNL     1      33.491 -19.994 -21.471  0.00  0.00    -0.004 C 
ATOM      4  C   UNL     1      34.219 -21.500 -19.238  0.00  0.00    +0.050 C 
ATOM      5  C   UNL     1      32.512 -20.644 -20.719  0.00  0.00    +0.001 C 
ATOM      6  C   UNL     1      32.876 -21.396 -19.602  0.00  0.00    +0.015 C 
ENDROOT
BRANCH   4   8
ATOM      7  O   UNL     1      36.826 -21.649 -17.753  0.00  0.00    -0.273 OA
ATOM      8  N   UNL     1      34.582 -22.255 -18.121  0.00  0.00    -0.283 N 
ATOM      9  C   UNL     1      35.821 -22.289 -17.462  0.00  0.00    +0.246 C 
ATOM     10  H   UNL     1      33.880 -22.836 -17.748  0.00  0.00    +0.155 HD
BRANCH   9  11
ATOM     11  C   UNL     1      35.784 -23.250 -16.287  0.00  0.00    +0.179 C 
BRANCH  11  13
ATOM     12  O   UNL     1      37.077 -23.378 -13.689  0.00  0.00    -0.226 OA
ATOM     13  N   UNL     1      37.104 -23.721 -15.985  0.00  0.00    -0.262 N 
ATOM     14  C   UNL     1      37.647 -23.748 -14.711  0.00  0.00    +0.402 C 
ATOM     15  H   UNL     1      37.660 -24.045 -16.730  0.00  0.00    +0.153 HD
BRANCH  14  16
ATOM     16  O   UNL     1      38.918 -24.249 -14.753  0.00  0.00    -0.442 OA
BRANCH  16  17
ATOM     17  C   UNL     1      39.083 -25.573 -14.233  0.00  0.00    +0.138 C 
ATOM     18  C   UNL     1      38.745 -25.556 -12.743  0.00  0.00    +0.044 C 
ATOM     19  C   UNL     1      40.541 -25.973 -14.449  0.00  0.00    +0.044 C 
ATOM     20  C   UNL     1      38.149 -26.514 -14.993  0.00  0.00    +0.044 C 
ENDBRANCH  16  17
ENDBRANCH  14  16
ENDBRANCH  11  13
ENDBRANCH   9  11
ENDBRANCH   4   8
BRANCH   1  21
ATOM     21  C   UNL     1      35.899 -19.392 -21.925  0.00  0.00    +0.054 C 
BRANCH  21  24
ATOM     22  O   UNL     1      34.717 -15.801 -22.128  0.00  0.00    -0.421 OA
ATOM     23  O   UNL     1      35.559 -17.072 -20.440  0.00  0.00    -0.245 OA
ATOM     24  C   UNL     1      35.350 -18.141 -22.557  0.00  0.00    +0.091 A 
ATOM     25  C   UNL     1      34.982 -18.010 -23.846  0.00  0.00    +0.139 A 
ATOM     26  C   UNL     1      35.227 -16.988 -21.618  0.00  0.00    +0.345 A 
ATOM     27  C   UNL     1      34.449 -16.744 -24.351  0.00  0.00    +0.068 A 
ATOM     28  C   UNL     1      34.332 -15.672 -23.473  0.00  0.00    +0.152 A 
ATOM     29  C   UNL     1      34.046 -16.548 -25.680  0.00  0.00    +0.006 C 
ATOM     30  C   UNL     1      33.832 -14.431 -23.873  0.00  0.00    +0.038 C 
ATOM     31  C   UNL     1      33.544 -15.310 -26.098  0.00  0.00    +0.000 C 
ATOM     32  C   UNL     1      33.437 -14.254 -25.195  0.00  0.00    +0.003 C 
BRANCH  25  33
ATOM     33  O   UNL     1      35.065 -19.013 -24.789  0.00  0.00    -0.506 OA
ATOM     34  H   UNL     1      34.289 -19.452 -25.076  0.00  0.00    +0.292 HD
ENDBRANCH  25  33
ENDBRANCH  21  24
BRANCH  21  35
ATOM     35  C   UNL     1      37.176 -19.059 -21.126  0.00  0.00    +0.009 C 
ATOM     36  C   UNL     1      38.322 -18.578 -22.010  0.00  0.00    +0.001 C 
ENDBRANCH  21  35
ENDBRANCH   1  21
TORSDOF 9
ENDMDL
MODEL 4
REMARK VINA RESULT:     -11.9      4.653     11.542
REMARK  Name = 54689025
REMARK  9 active torsions:
REMARK  status: ('A' for Active; 'I' for Inactive)
REMARK    1  A    between atoms: C_1  and  C_21
REMARK    2  A    between atoms: C_4  and  N_8
REMARK    3  A    between atoms: C_9  and  C_11
REMARK    4  A    between atoms: C_11  and  N_13
REMARK    5  A    between atoms: C_14  and  O_16
REMARK    6  A    between atoms: O_16  and  C_17
REMARK    7  A    between atoms: C_21  and  C_24
REMARK    8  A    between atoms: C_21  and  C_35
REMARK    9  A    between atoms: C_25  and  O_33
REMARK                            x       y       z     vdW  Elec       q    Type
REMARK                         _______ _______ _______ _____ _____    ______ ____
ROOT
ATOM      1  C   UNL     1      35.062 -16.845 -22.115  0.00  0.00    -0.017 C 
ATOM      2  C   UNL     1      35.000 -15.741 -22.964  0.00  0.00    +0.011 C 
ATOM      3  C   UNL     1      34.759 -16.702 -20.761  0.00  0.00    -0.004 C 
ATOM      4  C   UNL     1      34.633 -14.493 -22.460  0.00  0.00    +0.050 C 
ATOM      5  C   UNL     1      34.393 -15.454 -20.257  0.00  0.00    +0.001 C 
ATOM      6  C   UNL     1      34.330 -14.350 -21.106  0.00  0.00    +0.015 C 
ENDROOT
BRANCH   4   8
ATOM      7  O   UNL     1      32.338 -13.387 -24.053  0.00  0.00    -0.273 OA
ATOM      8  N   UNL     1      34.571 -13.388 -23.310  0.00  0.00    -0.283 N 
ATOM      9  C   UNL     1      33.468 -12.910 -24.035  0.00  0.00    +0.246 C 
ATOM     10  H   UNL     1      35.407 -12.877 -23.412  0.00  0.00    +0.155 HD
BRANCH   9  11
ATOM     11  C   UNL     1      33.839 -11.675 -24.836  0.00  0.00    +0.179 C 
BRANCH  11  13
ATOM     12  O   UNL     1      31.839 -10.287 -23.250  0.00  0.00    -0.226 OA
ATOM     13  N   UNL     1      34.032 -10.553 -23.963  0.00  0.00    -0.262 N 
ATOM     14  C   UNL     1      33.018  -9.948 -23.240  0.00  0.00    +0.402 C 
ATOM     15  H   UNL     1      34.943 -10.190 -23.873  0.00  0.00    +0.153 HD
BRANCH  14  16
ATOM     16  O   UNL     1      33.520  -8.911 -22.505  0.00  0.00    -0.442 OA
BRANCH  16  17
ATOM     17  C   UNL     1      33.249  -7.599 -23.013  0.00  0.00    +0.138 C 
ATOM     18  C   UNL     1      32.081  -7.688 -23.993  0.00  0.00    +0.044 C 
ATOM     19  C   UNL     1      34.511  -7.112 -23.723  0.00  0.00    +0.044 C 
ATOM     20  C   UNL     1      32.907  -6.685 -21.838  0.00  0.00    +0.044 C 
ENDBRANCH  16  17
ENDBRANCH  14  16
ENDBRANCH  11  13
ENDBRANCH   9  11
ENDBRANCH   4   8
BRANCH   1  21
ATOM     21  C   UNL     1      35.460 -18.204 -22.663  0.00  0.00    +0.054 C 
BRANCH  21  24
ATOM     22  O   UNL     1      36.943 -20.420 -19.976  0.00  0.00    -0.421 OA
ATOM     23  O   UNL     1      37.827 -18.852 -21.367  0.00  0.00    -0.245 OA
ATOM     24  C   UNL     1      35.487 -19.238 -21.571  0.00  0.00    +0.091 A 
ATOM     25  C   UNL     1      34.422 -19.930 -21.121  0.00  0.00    +0.139 A 
ATOM     26  C   UNL     1      36.838 -19.470 -20.984  0.00  0.00    +0.345 A 
ATOM     27  C   UNL     1      34.567 -20.924 -20.056  0.00  0.00    +0.068 A 
ATOM     28  C   UNL     1      35.829 -21.141 -19.513  0.00  0.00    +0.152 A 
ATOM     29  C   UNL     1      33.498 -21.677 -19.549  0.00  0.00    +0.006 C 
ATOM     30  C   UNL     1      36.053 -22.071 -18.496  0.00  0.00    +0.038 C 
ATOM     31  C   UNL     1      33.706 -22.612 -18.529  0.00  0.00    +0.000 C 
ATOM     32  C   UNL     1      34.982 -22.809 -18.005  0.00  0.00    +0.003 C 
BRANCH  25  33
ATOM     33  O   UNL     1      33.135 -19.781 -21.593  0.00  0.00    -0.506 OA
ATOM     34  H   UNL     1      32.968 -19.231 -22.333  0.00  0.00    +0.292 HD
ENDBRANCH  25  33
ENDBRANCH  21  24
BRANCH  21  35
ATOM     35  C   UNL     1      34.568 -18.689 -23.825  0.00  0.00    +0.009 C 
ATOM     36  C   UNL     1      35.226 -19.778 -24.665  0.00  0.00    +0.001 C 
ENDBRANCH  21  35
ENDBRANCH   1  21
TORSDOF 9
ENDMDL
MODEL 5
REMARK VINA RESULT:     -11.5      6.933     11.657
REMARK  Name = 54689025
REMARK  9 active torsions:
REMARK  status: ('A' for Active; 'I' for Inactive)
REMARK    1  A    between atoms: C_1  and  C_21
REMARK    2  A    between atoms: C_4  and  N_8
REMARK    3  A    between atoms: C_9  and  C_11
REMARK    4  A    between atoms: C_11  and  N_13
REMARK    5  A    between atoms: C_14  and  O_16
REMARK    6  A    between atoms: O_16  and  C_17
REMARK    7  A    between atoms: C_21  and  C_24
REMARK    8  A    between atoms: C_21  and  C_35
REMARK    9  A    between atoms: C_25  and  O_33
REMARK                            x       y       z     vdW  Elec       q    Type
REMARK                         _______ _______ _______ _____ _____    ______ ____
ROOT
ATOM      1  C   UNL     1      32.323  -9.218 -21.288  0.00  0.00    -0.017 C 
ATOM      2  C   UNL     1      32.869 -10.032 -22.280  0.00  0.00    +0.011 C 
ATOM      3  C   UNL     1      31.301  -9.702 -20.472  0.00  0.00    -0.004 C 
ATOM      4  C   UNL     1      32.394 -11.332 -22.455  0.00  0.00    +0.050 C 
ATOM      5  C   UNL     1      30.825 -11.002 -20.647  0.00  0.00    +0.001 C 
ATOM      6  C   UNL     1      31.373 -11.816 -21.638  0.00  0.00    +0.015 C 
ENDROOT
BRANCH   4   8
ATOM      7  O   UNL     1      32.846 -14.302 -22.505  0.00  0.00    -0.273 OA
ATOM      8  N   UNL     1      32.940 -12.147 -23.447  0.00  0.00    -0.283 N 
ATOM      9  C   UNL     1      33.131 -13.538 -23.422  0.00  0.00    +0.246 C 
ATOM     10  H   UNL     1      33.226 -11.688 -24.271  0.00  0.00    +0.155 HD
BRANCH   9  11
ATOM     11  C   UNL     1      33.757 -14.024 -24.716  0.00  0.00    +0.179 C 
BRANCH  11  13
ATOM     12  O   UNL     1      33.681 -16.760 -25.690  0.00  0.00    -0.226 OA
ATOM     13  N   UNL     1      34.695 -15.076 -24.454  0.00  0.00    -0.262 N 
ATOM     14  C   UNL     1      34.583 -16.361 -24.960  0.00  0.00    +0.402 C 
ATOM     15  H   UNL     1      35.466 -14.874 -23.877  0.00  0.00    +0.153 HD
BRANCH  14  16
ATOM     16  O   UNL     1      35.629 -17.127 -24.530  0.00  0.00    -0.442 OA
BRANCH  16  17
ATOM     17  C   UNL     1      35.345 -18.016 -23.444  0.00  0.00    +0.138 C 
ATOM     18  C   UNL     1      34.662 -17.222 -22.331  0.00  0.00    +0.044 C 
ATOM     19  C   UNL     1      36.677 -18.586 -22.957  0.00  0.00    +0.044 C 
ATOM     20  C   UNL     1      34.436 -19.133 -23.954  0.00  0.00    +0.044 C 
ENDBRANCH  16  17
ENDBRANCH  14  16
ENDBRANCH  11  13
ENDBRANCH   9  11
ENDBRANCH   4   8
BRANCH   1  21
ATOM     21  C   UNL     1      32.840  -7.803 -21.097  0.00  0.00    +0.054 C 
BRANCH  21  24
ATOM     22  O   UNL     1      31.755  -5.832 -24.142  0.00  0.00    -0.421 OA
ATOM     23  O   UNL     1      30.660  -6.567 -22.289  0.00  0.00    -0.245 OA
ATOM     24  C   UNL     1      32.977  -7.098 -22.419  0.00  0.00    +0.091 A 
ATOM     25  C   UNL     1      34.111  -6.990 -23.137  0.00  0.00    +0.139 A 
ATOM     26  C   UNL     1      31.709  -6.492 -22.921  0.00  0.00    +0.345 A 
ATOM     27  C   UNL     1      34.126  -6.286 -24.421  0.00  0.00    +0.068 A 
ATOM     28  C   UNL     1      32.941  -5.726 -24.888  0.00  0.00    +0.152 A 
ATOM     29  C   UNL     1      35.273  -6.145 -25.214  0.00  0.00    +0.006 C 
ATOM     30  C   UNL     1      32.868  -5.040 -26.101  0.00  0.00    +0.038 C 
ATOM     31  C   UNL     1      35.218  -5.459 -26.433  0.00  0.00    +0.000 C 
ATOM     32  C   UNL     1      34.017  -4.909 -26.876  0.00  0.00    +0.003 C 
BRANCH  25  33
ATOM     33  O   UNL     1      35.331  -7.507 -22.755  0.00  0.00    -0.506 OA
ATOM     34  H   UNL     1      35.816  -7.102 -22.063  0.00  0.00    +0.292 HD
ENDBRANCH  25  33
ENDBRANCH  21  24
BRANCH  21  35
ATOM     35  C   UNL     1      31.983  -6.955 -20.136  0.00  0.00    +0.009 C 
ATOM     36  C   UNL     1      32.758  -5.801 -19.509  0.00  0.00    +0.001 C 
ENDBRANCH  21  35
ENDBRANCH   1  21
TORSDOF 9
ENDMDL
MODEL 6
REMARK VINA RESULT:     -10.7      7.163     14.029
REMARK  Name = 54689025
REMARK  9 active torsions:
REMARK  status: ('A' for Active; 'I' for Inactive)
REMARK    1  A    between atoms: C_1  and  C_21
REMARK    2  A    between atoms: C_4  and  N_8
REMARK    3  A    between atoms: C_9  and  C_11
REMARK    4  A    between atoms: C_11  and  N_13
REMARK    5  A    between atoms: C_14  and  O_16
REMARK    6  A    between atoms: O_16  and  C_17
REMARK    7  A    between atoms: C_21  and  C_24
REMARK    8  A    between atoms: C_21  and  C_35
REMARK    9  A    between atoms: C_25  and  O_33
REMARK                            x       y       z     vdW  Elec       q    Type
REMARK                         _______ _______ _______ _____ _____    ______ ____
ROOT
ATOM      1  C   UNL     1      33.292 -13.030 -23.803  0.00  0.00    -0.017 C 
ATOM      2  C   UNL     1      33.455 -11.645 -23.803  0.00  0.00    +0.011 C 
ATOM      3  C   UNL     1      32.546 -13.645 -22.798  0.00  0.00    -0.004 C 
ATOM      4  C   UNL     1      32.870 -10.874 -22.799  0.00  0.00    +0.050 C 
ATOM      5  C   UNL     1      31.962 -12.874 -21.793  0.00  0.00    +0.001 C 
ATOM      6  C   UNL     1      32.124 -11.489 -21.794  0.00  0.00    +0.015 C 
ENDROOT
BRANCH   4   8
ATOM      7  O   UNL     1      30.882  -8.680 -23.309  0.00  0.00    -0.273 OA
ATOM      8  N   UNL     1      33.033  -9.488 -22.798  0.00  0.00    -0.283 N 
ATOM      9  C   UNL     1      32.066  -8.500 -23.045  0.00  0.00    +0.246 C 
ATOM     10  H   UNL     1      33.940  -9.162 -22.598  0.00  0.00    +0.155 HD
BRANCH   9  11
ATOM     11  C   UNL     1      32.671  -7.111 -22.942  0.00  0.00    +0.179 C 
BRANCH  11  13
ATOM     12  O   UNL     1      30.828  -4.968 -22.270  0.00  0.00    -0.226 OA
ATOM     13  N   UNL     1      32.008  -6.210 -23.838  0.00  0.00    -0.262 N 
ATOM     14  C   UNL     1      31.139  -5.210 -23.432  0.00  0.00    +0.402 C 
ATOM     15  H   UNL     1      32.181  -6.307 -24.802  0.00  0.00    +0.153 HD
BRANCH  14  16
ATOM     16  O   UNL     1      30.674  -4.524 -24.519  0.00  0.00    -0.442 OA
BRANCH  16  17
ATOM     17  C   UNL     1      31.337  -3.288 -24.806  0.00  0.00    +0.138 C 
ATOM     18  C   UNL     1      31.955  -2.754 -23.515  0.00  0.00    +0.044 C 
ATOM     19  C   UNL     1      30.287  -2.317 -25.342  0.00  0.00    +0.044 C 
ATOM     20  C   UNL     1      32.415  -3.548 -25.858  0.00  0.00    +0.044 C 
ENDBRANCH  16  17
ENDBRANCH  14  16
ENDBRANCH  11  13
ENDBRANCH   9  11
ENDBRANCH   4   8
BRANCH   1  21
ATOM     21  C   UNL     1      33.928 -13.869 -24.897  0.00  0.00    +0.054 C 
BRANCH  21  24
ATOM     22  O   UNL     1      34.092 -17.651 -24.945  0.00  0.00    -0.421 OA
ATOM     23  O   UNL     1      33.322 -16.105 -26.425  0.00  0.00    -0.245 OA
ATOM     24  C   UNL     1      34.240 -15.255 -24.400  0.00  0.00    +0.091 A 
ATOM     25  C   UNL     1      34.818 -15.553 -23.220  0.00  0.00    +0.139 A 
ATOM     26  C   UNL     1      33.845 -16.343 -25.341  0.00  0.00    +0.345 A 
ATOM     27  C   UNL     1      35.065 -16.943 -22.834  0.00  0.00    +0.068 A 
ATOM     28  C   UNL     1      34.693 -17.956 -23.712  0.00  0.00    +0.152 A 
ATOM     29  C   UNL     1      35.660 -17.315 -21.620  0.00  0.00    +0.006 C 
ATOM     30  C   UNL     1      34.892 -19.306 -23.419  0.00  0.00    +0.038 C 
ATOM     31  C   UNL     1      35.868 -18.665 -21.311  0.00  0.00    +0.000 C 
ATOM     32  C   UNL     1      35.483 -19.658 -22.210  0.00  0.00    +0.003 C 
BRANCH  25  33
ATOM     33  O   UNL     1      35.224 -14.620 -22.290  0.00  0.00    -0.506 OA
ATOM     34  H   UNL     1      35.223 -14.835 -21.378  0.00  0.00    +0.292 HD
ENDBRANCH  25  33
ENDBRANCH  21  24
BRANCH  21  35
ATOM     35  C   UNL     1      33.083 -13.952 -26.185  0.00  0.00    +0.009 C 
ATOM     36  C   UNL     1      33.729 -13.237 -27.367  0.00  0.00    +0.001 C 
ENDBRANCH  21  35
ENDBRANCH   1  21
TORSDOF 9
ENDMDL
MODEL 7
REMARK VINA RESULT:     -10.6      7.326     14.272
REMARK  Name = 54689025
REMARK  9 active torsions:
REMARK  status: ('A' for Active; 'I' for Inactive)
REMARK    1  A    between atoms: C_1  and  C_21
REMARK    2  A    between atoms: C_4  and  N_8
REMARK    3  A    between atoms: C_9  and  C_11
REMARK    4  A    between atoms: C_11  and  N_13
REMARK    5  A    between atoms: C_14  and  O_16
REMARK    6  A    between atoms: O_16  and  C_17
REMARK    7  A    between atoms: C_21  and  C_24
REMARK    8  A    between atoms: C_21  and  C_35
REMARK    9  A    between atoms: C_25  and  O_33
REMARK                            x       y       z     vdW  Elec       q    Type
REMARK                         _______ _______ _______ _____ _____    ______ ____
ROOT
ATOM      1  C   UNL     1      33.226 -12.768 -23.777  0.00  0.00    -0.017 C 
ATOM      2  C   UNL     1      33.404 -11.384 -23.770  0.00  0.00    +0.011 C 
ATOM      3  C   UNL     1      32.427 -13.373 -22.807  0.00  0.00    -0.004 C 
ATOM      4  C   UNL     1      32.782 -10.606 -22.794  0.00  0.00    +0.050 C 
ATOM      5  C   UNL     1      31.806 -12.595 -21.830  0.00  0.00    +0.001 C 
ATOM      6  C   UNL     1      31.983 -11.212 -21.824  0.00  0.00    +0.015 C 
ENDROOT
BRANCH   4   8
ATOM      7  O   UNL     1      30.871  -8.393 -23.484  0.00  0.00    -0.273 OA
ATOM      8  N   UNL     1      32.960  -9.222 -22.786  0.00  0.00    -0.283 N 
ATOM      9  C   UNL     1      32.030  -8.224 -23.120  0.00  0.00    +0.246 C 
ATOM     10  H   UNL     1      33.851  -8.905 -22.510  0.00  0.00    +0.155 HD
BRANCH   9  11
ATOM     11  C   UNL     1      32.640  -6.842 -22.972  0.00  0.00    +0.179 C 
BRANCH  11  13
ATOM     12  O   UNL     1      30.739  -4.766 -22.255  0.00  0.00    -0.226 OA
ATOM     13  N   UNL     1      31.985  -5.911 -23.844  0.00  0.00    -0.262 N 
ATOM     14  C   UNL     1      31.087  -4.947 -23.418  0.00  0.00    +0.402 C 
ATOM     15  H   UNL     1      32.187  -5.960 -24.807  0.00  0.00    +0.153 HD
BRANCH  14  16
ATOM     16  O   UNL     1      30.639  -4.219 -24.484  0.00  0.00    -0.442 OA
BRANCH  16  17
ATOM     17  C   UNL     1      31.384  -3.034 -24.787  0.00  0.00    +0.138 C 
ATOM     18  C   UNL     1      31.928  -2.455 -23.482  0.00  0.00    +0.044 C 
ATOM     19  C   UNL     1      30.426  -2.048 -25.455  0.00  0.00    +0.044 C 
ATOM     20  C   UNL     1      32.523  -3.404 -25.736  0.00  0.00    +0.044 C 
ENDBRANCH  16  17
ENDBRANCH  14  16
ENDBRANCH  11  13
ENDBRANCH   9  11
ENDBRANCH   4   8
BRANCH   1  21
ATOM     21  C   UNL     1      33.903 -13.615 -24.840  0.00  0.00    +0.054 C 
BRANCH  21  24
ATOM     22  O   UNL     1      35.321 -16.099 -22.360  0.00  0.00    -0.421 OA
ATOM     23  O   UNL     1      35.078 -13.838 -22.335  0.00  0.00    -0.245 OA
ATOM     24  C   UNL     1      34.298 -14.957 -24.286  0.00  0.00    +0.091 A 
ATOM     25  C   UNL     1      34.135 -16.140 -24.908  0.00  0.00    +0.139 A 
ATOM     26  C   UNL     1      34.921 -14.899 -22.932  0.00  0.00    +0.345 A 
ATOM     27  C   UNL     1      34.568 -17.388 -24.277  0.00  0.00    +0.068 A 
ATOM     28  C   UNL     1      35.151 -17.330 -23.016  0.00  0.00    +0.152 A 
ATOM     29  C   UNL     1      34.428 -18.648 -24.876  0.00  0.00    +0.006 C 
ATOM     30  C   UNL     1      35.592 -18.473 -22.345  0.00  0.00    +0.038 C 
ATOM     31  C   UNL     1      34.863 -19.804 -24.217  0.00  0.00    +0.000 C 
ATOM     32  C   UNL     1      35.446 -19.715 -22.954  0.00  0.00    +0.003 C 
BRANCH  25  33
ATOM     33  O   UNL     1      33.565 -16.297 -26.154  0.00  0.00    -0.506 OA
ATOM     34  H   UNL     1      33.237 -15.552 -26.617  0.00  0.00    +0.292 HD
ENDBRANCH  25  33
ENDBRANCH  21  24
BRANCH  21  35
ATOM     35  C   UNL     1      33.056 -13.801 -26.115  0.00  0.00    +0.009 C 
ATOM     36  C   UNL     1      33.753 -13.290 -27.372  0.00  0.00    +0.001 C 
ENDBRANCH  21  35
ENDBRANCH   1  21
TORSDOF 9
ENDMDL
MODEL 8
REMARK VINA RESULT:     -10.5      3.476      4.939
REMARK  Name = 54689025
REMARK  9 active torsions:
REMARK  status: ('A' for Active; 'I' for Inactive)
REMARK    1  A    between atoms: C_1  and  C_21
REMARK    2  A    between atoms: C_4  and  N_8
REMARK    3  A    between atoms: C_9  and  C_11
REMARK    4  A    between atoms: C_11  and  N_13
REMARK    5  A    between atoms: C_14  and  O_16
REMARK    6  A    between atoms: O_16  and  C_17
REMARK    7  A    between atoms: C_21  and  C_24
REMARK    8  A    between atoms: C_21  and  C_35
REMARK    9  A    between atoms: C_25  and  O_33
REMARK                            x       y       z     vdW  Elec       q    Type
REMARK                         _______ _______ _______ _____ _____    ______ ____
ROOT
ATOM      1  C   UNL     1      35.432 -18.975 -22.528  0.00  0.00    -0.017 C 
ATOM      2  C   UNL     1      34.967 -19.883 -21.577  0.00  0.00    +0.011 C 
ATOM      3  C   UNL     1      36.736 -18.487 -22.447  0.00  0.00    -0.004 C 
ATOM      4  C   UNL     1      35.806 -20.305 -20.546  0.00  0.00    +0.050 C 
ATOM      5  C   UNL     1      37.575 -18.908 -21.415  0.00  0.00    +0.001 C 
ATOM      6  C   UNL     1      37.111 -19.817 -20.466  0.00  0.00    +0.015 C 
ENDROOT
BRANCH   4   8
ATOM      7  O   UNL     1      33.039 -21.370 -20.060  0.00  0.00    -0.273 OA
ATOM      8  N   UNL     1      35.341 -21.214 -19.595  0.00  0.00    -0.283 N 
ATOM      9  C   UNL     1      34.031 -21.681 -19.407  0.00  0.00    +0.246 C 
ATOM     10  H   UNL     1      36.019 -21.574 -18.977  0.00  0.00    +0.155 HD
BRANCH   9  11
ATOM     11  C   UNL     1      33.965 -22.666 -18.254  0.00  0.00    +0.179 C 
BRANCH  11  13
ATOM     12  O   UNL     1      32.973 -23.874 -15.806  0.00  0.00    -0.226 OA
ATOM     13  N   UNL     1      32.602 -22.917 -17.888  0.00  0.00    -0.262 N 
ATOM     14  C   UNL     1      32.213 -23.501 -16.694  0.00  0.00    +0.402 C 
ATOM     15  H   UNL     1      31.898 -22.658 -18.526  0.00  0.00    +0.153 HD
BRANCH  14  16
ATOM     16  O   UNL     1      30.851 -23.603 -16.644  0.00  0.00    -0.442 OA
BRANCH  16  17
ATOM     17  C   UNL     1      30.259 -23.413 -15.354  0.00  0.00    +0.138 C 
ATOM     18  C   UNL     1      29.964 -24.784 -14.747  0.00  0.00    +0.044 C 
ATOM     19  C   UNL     1      28.966 -22.624 -15.553  0.00  0.00    +0.044 C 
ATOM     20  C   UNL     1      31.237 -22.630 -14.480  0.00  0.00    +0.044 C 
ENDBRANCH  16  17
ENDBRANCH  14  16
ENDBRANCH  11  13
ENDBRANCH   9  11
ENDBRANCH   4   8
BRANCH   1  21
ATOM     21  C   UNL     1      34.519 -18.516 -23.650  0.00  0.00    +0.054 C 
BRANCH  21  24
ATOM     22  O   UNL     1      34.316 -15.008 -22.241  0.00  0.00    -0.421 OA
ATOM     23  O   UNL     1      34.571 -17.058 -21.289  0.00  0.00    -0.245 OA
ATOM     24  C   UNL     1      34.393 -17.016 -23.663  0.00  0.00    +0.091 A 
ATOM     25  C   UNL     1      34.250 -16.251 -24.762  0.00  0.00    +0.139 A 
ATOM     26  C   UNL     1      34.436 -16.390 -22.310  0.00  0.00    +0.345 A 
ATOM     27  C   UNL     1      34.126 -14.796 -24.654  0.00  0.00    +0.068 A 
ATOM     28  C   UNL     1      34.163 -14.215 -23.391  0.00  0.00    +0.152 A 
ATOM     29  C   UNL     1      33.972 -13.948 -25.760  0.00  0.00    +0.006 C 
ATOM     30  C   UNL     1      34.051 -12.837 -23.201  0.00  0.00    +0.038 C 
ATOM     31  C   UNL     1      33.859 -12.564 -25.587  0.00  0.00    +0.000 C 
ATOM     32  C   UNL     1      33.898 -12.010 -24.309  0.00  0.00    +0.003 C 
BRANCH  25  33
ATOM     33  O   UNL     1      34.208 -16.735 -26.052  0.00  0.00    -0.506 OA
ATOM     34  H   UNL     1      34.912 -16.556 -26.643  0.00  0.00    +0.292 HD
ENDBRANCH  25  33
ENDBRANCH  21  24
BRANCH  21  35
ATOM     35  C   UNL     1      34.949 -19.019 -25.044  0.00  0.00    +0.009 C 
ATOM     36  C   UNL     1      35.264 -20.511 -25.066  0.00  0.00    +0.001 C 
ENDBRANCH  21  35
ENDBRANCH   1  21
TORSDOF 9
ENDMDL
MODEL 9
REMARK VINA RESULT:     -10.4      7.128     13.433
REMARK  Name = 54689025
REMARK  9 active torsions:
REMARK  status: ('A' for Active; 'I' for Inactive)
REMARK    1  A    between atoms: C_1  and  C_21
REMARK    2  A    between atoms: C_4  and  N_8
REMARK    3  A    between atoms: C_9  and  C_11
REMARK    4  A    between atoms: C_11  and  N_13
REMARK    5  A    between atoms: C_14  and  O_16
REMARK    6  A    between atoms: O_16  and  C_17
REMARK    7  A    between atoms: C_21  and  C_24
REMARK    8  A    between atoms: C_21  and  C_35
REMARK    9  A    between atoms: C_25  and  O_33
REMARK                            x       y       z     vdW  Elec       q    Type
REMARK                         _______ _______ _______ _____ _____    ______ ____
ROOT
ATOM      1  C   UNL     1      33.055 -12.894 -23.383  0.00  0.00    -0.017 C 
ATOM      2  C   UNL     1      32.957 -11.503 -23.349  0.00  0.00    +0.011 C 
ATOM      3  C   UNL     1      32.519 -13.657 -22.345  0.00  0.00    -0.004 C 
ATOM      4  C   UNL     1      32.321 -10.875 -22.278  0.00  0.00    +0.050 C 
ATOM      5  C   UNL     1      31.884 -13.028 -21.274  0.00  0.00    +0.001 C 
ATOM      6  C   UNL     1      31.785 -11.638 -21.240  0.00  0.00    +0.015 C 
ENDROOT
BRANCH   4   8
ATOM      7  O   UNL     1      32.804  -8.945 -20.026  0.00  0.00    -0.273 OA
ATOM      8  N   UNL     1      32.223  -9.483 -22.243  0.00  0.00    -0.283 N 
ATOM      9  C   UNL     1      32.460  -8.622 -21.159  0.00  0.00    +0.246 C 
ATOM     10  H   UNL     1      31.955  -9.050 -23.086  0.00  0.00    +0.155 HD
BRANCH   9  11
ATOM     11  C   UNL     1      32.238  -7.174 -21.557  0.00  0.00    +0.179 C 
BRANCH  11  13
ATOM     12  O   UNL     1      30.859  -5.311 -23.308  0.00  0.00    -0.226 OA
ATOM     13  N   UNL     1      32.400  -7.015 -22.973  0.00  0.00    -0.262 N 
ATOM     14  C   UNL     1      31.699  -6.097 -23.737  0.00  0.00    +0.402 C 
ATOM     15  H   UNL     1      33.051  -7.595 -23.431  0.00  0.00    +0.153 HD
BRANCH  14  16
ATOM     16  O   UNL     1      32.077  -6.190 -25.047  0.00  0.00    -0.442 OA
BRANCH  16  17
ATOM     17  C   UNL     1      33.011  -5.202 -25.497  0.00  0.00    +0.138 C 
ATOM     18  C   UNL     1      32.818  -4.999 -27.000  0.00  0.00    +0.044 C 
ATOM     19  C   UNL     1      34.415  -5.727 -25.201  0.00  0.00    +0.044 C 
ATOM     20  C   UNL     1      32.751  -3.904 -24.735  0.00  0.00    +0.044 C 
ENDBRANCH  16  17
ENDBRANCH  14  16
ENDBRANCH  11  13
ENDBRANCH   9  11
ENDBRANCH   4   8
BRANCH   1  21
ATOM     21  C   UNL     1      33.746 -13.578 -24.548  0.00  0.00    +0.054 C 
BRANCH  21  24
ATOM     22  O   UNL     1      35.483 -16.226 -22.473  0.00  0.00    -0.421 OA
ATOM     23  O   UNL     1      35.218 -13.979 -22.230  0.00  0.00    -0.245 OA
ATOM     24  C   UNL     1      34.221 -14.952 -24.161  0.00  0.00    +0.091 A 
ATOM     25  C   UNL     1      33.998 -16.084 -24.856  0.00  0.00    +0.139 A 
ATOM     26  C   UNL     1      35.002 -14.991 -22.891  0.00  0.00    +0.345 A 
ATOM     27  C   UNL     1      34.519 -17.370 -24.388  0.00  0.00    +0.068 A 
ATOM     28  C   UNL     1      35.250 -17.402 -23.205  0.00  0.00    +0.152 A 
ATOM     29  C   UNL     1      34.322 -18.579 -25.070  0.00  0.00    +0.006 C 
ATOM     30  C   UNL     1      35.782 -18.586 -22.690  0.00  0.00    +0.038 C 
ATOM     31  C   UNL     1      34.848 -19.775 -24.567  0.00  0.00    +0.000 C 
ATOM     32  C   UNL     1      35.578 -19.777 -23.379  0.00  0.00    +0.003 C 
BRANCH  25  33
ATOM     33  O   UNL     1      33.283 -16.151 -26.034  0.00  0.00    -0.506 OA
ATOM     34  H   UNL     1      32.617 -16.801 -26.142  0.00  0.00    +0.292 HD
ENDBRANCH  25  33
ENDBRANCH  21  24
BRANCH  21  35
ATOM     35  C   UNL     1      32.878 -13.662 -25.821  0.00  0.00    +0.009 C 
ATOM     36  C   UNL     1      33.604 -13.174 -27.070  0.00  0.00    +0.001 C 
ENDBRANCH  21  35
ENDBRANCH   1  21
TORSDOF 9
ENDMDL
