MODEL 1
REMARK VINA RESULT:     -12.9      0.000      0.000
REMARK  Name = 66571548
REMARK  8 active torsions:
REMARK  status: ('A' for Active; 'I' for Inactive)
REMARK    1  A    between atoms: C_2  and  C_10
REMARK    2  A    between atoms: C_2  and  C_22
REMARK    3  A    between atoms: N_3  and  C_15
REMARK    4  A    between atoms: C_15  and  C_18
REMARK    5  A    between atoms: C_18  and  O_19
REMARK    6  A    between atoms: C_25  and  N_28
REMARK    7  A    between atoms: C_29  and  C_31
REMARK    8  A    between atoms: C_31  and  C_34
REMARK                            x       y       z     vdW  Elec       q    Type
REMARK                         _______ _______ _______ _____ _____    ______ ____
ROOT
ATOM      1  O   UNL     1      37.243 -18.882 -22.355  0.00  0.00    -0.286 OA
ATOM      2  C   UNL     1      36.082 -18.675 -21.942  0.00  0.00    +0.199 C 
ENDROOT
BRANCH   2  10
ATOM      3  N   UNL     1      34.317 -15.531 -22.110  0.00  0.00    -0.261 N 
ATOM      4  N   UNL     1      33.744 -15.109 -24.413  0.00  0.00    -0.322 NA
ATOM      5  N   UNL     1      34.494 -16.871 -25.917  0.00  0.00    -0.170 NA
ATOM      6  N   UNL     1      33.340 -14.997 -26.714  0.00  0.00    -0.293 N 
ATOM      7  C   UNL     1      34.298 -15.853 -23.441  0.00  0.00    +0.201 C 
ATOM      8  C   UNL     1      34.967 -16.515 -21.410  0.00  0.00    +0.071 C 
ATOM      9  C   UNL     1      34.949 -17.071 -23.595  0.00  0.00    +0.069 C 
ATOM     10  C   UNL     1      35.369 -17.484 -22.305  0.00  0.00    +0.059 C 
ATOM     11  C   UNL     1      35.033 -17.574 -24.893  0.00  0.00    +0.116 C 
ATOM     12  C   UNL     1      33.891 -15.699 -25.617  0.00  0.00    +0.143 C 
ATOM     13  H   UNL     1      32.887 -14.136 -26.569  0.00  0.00    +0.155 HD
ATOM     14  H   UNL     1      33.412 -15.369 -27.622  0.00  0.00    +0.155 HD
BRANCH   3  15
ATOM     15  C   UNL     1      33.706 -14.263 -21.482  0.00  0.00    +0.091 C 
ATOM     16  C   UNL     1      32.457 -14.543 -20.612  0.00  0.00    +0.023 C 
ATOM     17  C   UNL     1      34.757 -13.601 -20.561  0.00  0.00    +0.023 C 
BRANCH  15  18
ATOM     18  C   UNL     1      33.308 -13.254 -22.588  0.00  0.00    +0.155 C 
BRANCH  18  19
ATOM     19  O   UNL     1      31.892 -13.164 -22.702  0.00  0.00    -0.380 OA
ATOM     20  H   UNL     1      31.584 -13.771 -23.394  0.00  0.00    +0.211 HD
ENDBRANCH  18  19
ENDBRANCH  15  18
ENDBRANCH   3  15
ENDBRANCH   2  10
BRANCH   2  22
ATOM     21  N   UNL     1      33.560 -20.987 -20.324  0.00  0.00    -0.241 NA
ATOM     22  C   UNL     1      35.500 -19.741 -21.055  0.00  0.00    +0.059 C 
ATOM     23  C   UNL     1      36.300 -20.453 -20.168  0.00  0.00    +0.021 C 
ATOM     24  C   UNL     1      34.148 -20.042 -21.094  0.00  0.00    +0.102 C 
ATOM     25  C   UNL     1      35.732 -21.432 -19.359  0.00  0.00    +0.070 C 
ATOM     26  C   UNL     1      34.370 -21.659 -19.475  0.00  0.00    +0.113 C 
BRANCH  25  28
ATOM     27  O   UNL     1      37.265 -20.532 -16.939  0.00  0.00    -0.274 OA
ATOM     28  N   UNL     1      36.509 -22.160 -18.461  0.00  0.00    -0.282 N 
ATOM     29  C   UNL     1      37.210 -21.692 -17.336  0.00  0.00    +0.232 C 
ATOM     30  H   UNL     1      36.575 -23.126 -18.637  0.00  0.00    +0.155 HD
BRANCH  29  31
ATOM     31  C   UNL     1      37.933 -22.828 -16.628  0.00  0.00    +0.131 C 
BRANCH  31  34
ATOM     32 CL   UNL     1      35.306 -24.612 -11.597  0.00  0.00    -0.081 Cl
ATOM     33  N   UNL     1      37.938 -23.174 -14.220  0.00  0.00    -0.247 NA
ATOM     34  C   UNL     1      37.240 -23.288 -15.372  0.00  0.00    +0.068 C 
ATOM     35  C   UNL     1      35.953 -23.795 -15.453  0.00  0.00    +0.016 C 
ATOM     36  C   UNL     1      35.342 -24.211 -14.275  0.00  0.00    +0.014 C 
ATOM     37  C   UNL     1      37.312 -23.588 -13.095  0.00  0.00    +0.110 C 
ATOM     38  C   UNL     1      36.028 -24.109 -13.069  0.00  0.00    +0.077 C 
ENDBRANCH  31  34
ENDBRANCH  29  31
ENDBRANCH  25  28
ENDBRANCH   2  22
TORSDOF 8
ENDMDL
MODEL 2
REMARK VINA RESULT:     -12.6      1.735      2.424
REMARK  Name = 66571548
REMARK  8 active torsions:
REMARK  status: ('A' for Active; 'I' for Inactive)
REMARK    1  A    between atoms: C_2  and  C_10
REMARK    2  A    between atoms: C_2  and  C_22
REMARK    3  A    between atoms: N_3  and  C_15
REMARK    4  A    between atoms: C_15  and  C_18
REMARK    5  A    between atoms: C_18  and  O_19
REMARK    6  A    between atoms: C_25  and  N_28
REMARK    7  A    between atoms: C_29  and  C_31
REMARK    8  A    between atoms: C_31  and  C_34
REMARK                            x       y       z     vdW  Elec       q    Type
REMARK                         _______ _______ _______ _____ _____    ______ ____
ROOT
ATOM      1  O   UNL     1      35.510 -19.139 -24.320  0.00  0.00    -0.286 OA
ATOM      2  C   UNL     1      35.397 -18.473 -23.268  0.00  0.00    +0.199 C 
ENDROOT
BRANCH   2  10
ATOM      3  N   UNL     1      33.987 -15.232 -22.542  0.00  0.00    -0.261 N 
ATOM      4  N   UNL     1      33.369 -14.192 -24.628  0.00  0.00    -0.322 NA
ATOM      5  N   UNL     1      33.858 -15.586 -26.564  0.00  0.00    -0.170 NA
ATOM      6  N   UNL     1      32.887 -13.468 -26.799  0.00  0.00    -0.293 N 
ATOM      7  C   UNL     1      33.878 -15.206 -23.907  0.00  0.00    +0.201 C 
ATOM      8  C   UNL     1      34.551 -16.418 -22.150  0.00  0.00    +0.071 C 
ATOM      9  C   UNL     1      34.382 -16.404 -24.399  0.00  0.00    +0.069 C 
ATOM     10  C   UNL     1      34.807 -17.165 -23.280  0.00  0.00    +0.059 C 
ATOM     11  C   UNL     1      34.357 -16.571 -25.783  0.00  0.00    +0.116 C 
ATOM     12  C   UNL     1      33.401 -14.473 -25.946  0.00  0.00    +0.143 C 
ATOM     13  H   UNL     1      32.538 -12.631 -26.417  0.00  0.00    +0.155 HD
ATOM     14  H   UNL     1      32.879 -13.606 -27.773  0.00  0.00    +0.155 HD
BRANCH   3  15
ATOM     15  C   UNL     1      33.546 -14.108 -21.583  0.00  0.00    +0.091 C 
ATOM     16  C   UNL     1      32.391 -14.518 -20.638  0.00  0.00    +0.023 C 
ATOM     17  C   UNL     1      34.742 -13.714 -20.687  0.00  0.00    +0.023 C 
BRANCH  15  18
ATOM     18  C   UNL     1      33.095 -12.862 -22.386  0.00  0.00    +0.155 C 
BRANCH  18  19
ATOM     19  O   UNL     1      31.682 -12.702 -22.316  0.00  0.00    -0.380 OA
ATOM     20  H   UNL     1      31.447 -12.271 -21.479  0.00  0.00    +0.211 HD
ENDBRANCH  18  19
ENDBRANCH  15  18
ENDBRANCH   3  15
ENDBRANCH   2  10
BRANCH   2  22
ATOM     21  N   UNL     1      37.634 -19.270 -20.321  0.00  0.00    -0.241 NA
ATOM     22  C   UNL     1      35.916 -19.128 -22.017  0.00  0.00    +0.059 C 
ATOM     23  C   UNL     1      35.212 -20.158 -21.402  0.00  0.00    +0.021 C 
ATOM     24  C   UNL     1      37.111 -18.725 -21.443  0.00  0.00    +0.102 C 
ATOM     25  C   UNL     1      35.719 -20.744 -20.246  0.00  0.00    +0.070 C 
ATOM     26  C   UNL     1      36.922 -20.268 -19.751  0.00  0.00    +0.113 C 
BRANCH  25  28
ATOM     27  O   UNL     1      32.832 -20.971 -19.454  0.00  0.00    -0.274 OA
ATOM     28  N   UNL     1      35.037 -21.778 -19.609  0.00  0.00    -0.282 N 
ATOM     29  C   UNL     1      33.677 -21.839 -19.257  0.00  0.00    +0.232 C 
ATOM     30  H   UNL     1      35.577 -22.567 -19.374  0.00  0.00    +0.155 HD
BRANCH  29  31
ATOM     31  C   UNL     1      33.345 -23.155 -18.573  0.00  0.00    +0.131 C 
BRANCH  31  34
ATOM     32 CL   UNL     1      35.728 -23.592 -13.140  0.00  0.00    -0.081 Cl
ATOM     33  N   UNL     1      35.259 -23.157 -17.071  0.00  0.00    -0.247 NA
ATOM     34  C   UNL     1      33.917 -23.270 -17.184  0.00  0.00    +0.068 C 
ATOM     35  C   UNL     1      33.064 -23.482 -16.113  0.00  0.00    +0.016 C 
ATOM     36  C   UNL     1      33.625 -23.584 -14.844  0.00  0.00    +0.014 C 
ATOM     37  C   UNL     1      35.768 -23.261 -15.823  0.00  0.00    +0.110 C 
ATOM     38  C   UNL     1      35.002 -23.473 -14.688  0.00  0.00    +0.077 C 
ENDBRANCH  31  34
ENDBRANCH  29  31
ENDBRANCH  25  28
ENDBRANCH   2  22
TORSDOF 8
ENDMDL
MODEL 3
REMARK VINA RESULT:     -12.5      4.037     10.368
REMARK  Name = 66571548
REMARK  8 active torsions:
REMARK  status: ('A' for Active; 'I' for Inactive)
REMARK    1  A    between atoms: C_2  and  C_10
REMARK    2  A    between atoms: C_2  and  C_22
REMARK    3  A    between atoms: N_3  and  C_15
REMARK    4  A    between atoms: C_15  and  C_18
REMARK    5  A    between atoms: C_18  and  O_19
REMARK    6  A    between atoms: C_25  and  N_28
REMARK    7  A    between atoms: C_29  and  C_31
REMARK    8  A    between atoms: C_31  and  C_34
REMARK                            x       y       z     vdW  Elec       q    Type
REMARK                         _______ _______ _______ _____ _____    ______ ____
ROOT
ATOM      1  O   UNL     1      33.799 -23.926 -19.767  0.00  0.00    -0.286 OA
ATOM      2  C   UNL     1      34.117 -23.163 -18.829  0.00  0.00    +0.199 C 
ENDROOT
BRANCH   2  10
ATOM      3  N   UNL     1      32.167 -23.500 -15.811  0.00  0.00    -0.261 N 
ATOM      4  N   UNL     1      33.650 -24.142 -14.022  0.00  0.00    -0.322 NA
ATOM      5  N   UNL     1      35.965 -24.369 -14.742  0.00  0.00    -0.170 NA
ATOM      6  N   UNL     1      35.336 -24.753 -12.521  0.00  0.00    -0.293 N 
ATOM      7  C   UNL     1      33.398 -23.818 -15.302  0.00  0.00    +0.201 C 
ATOM      8  C   UNL     1      32.282 -23.226 -17.150  0.00  0.00    +0.071 C 
ATOM      9  C   UNL     1      34.322 -23.744 -16.337  0.00  0.00    +0.069 C 
ATOM     10  C   UNL     1      33.608 -23.369 -17.504  0.00  0.00    +0.059 C 
ATOM     11  C   UNL     1      35.647 -24.035 -16.015  0.00  0.00    +0.116 C 
ATOM     12  C   UNL     1      34.960 -24.401 -13.838  0.00  0.00    +0.143 C 
ATOM     13  H   UNL     1      34.655 -24.797 -11.811  0.00  0.00    +0.155 HD
ATOM     14  H   UNL     1      36.276 -24.956 -12.314  0.00  0.00    +0.155 HD
BRANCH   3  15
ATOM     15  C   UNL     1      30.849 -23.452 -15.015  0.00  0.00    +0.091 C 
ATOM     16  C   UNL     1      30.883 -22.471 -13.818  0.00  0.00    +0.023 C 
ATOM     17  C   UNL     1      29.712 -22.981 -15.951  0.00  0.00    +0.023 C 
BRANCH  15  18
ATOM     18  C   UNL     1      30.495 -24.861 -14.475  0.00  0.00    +0.155 C 
BRANCH  18  19
ATOM     19  O   UNL     1      30.851 -24.978 -13.101  0.00  0.00    -0.380 OA
ATOM     20  H   UNL     1      30.110 -25.363 -12.607  0.00  0.00    +0.211 HD
ENDBRANCH  18  19
ENDBRANCH  15  18
ENDBRANCH   3  15
ENDBRANCH   2  10
BRANCH   2  22
ATOM     21  N   UNL     1      37.109 -20.847 -18.743  0.00  0.00    -0.241 NA
ATOM     22  C   UNL     1      35.051 -22.038 -19.183  0.00  0.00    +0.059 C 
ATOM     23  C   UNL     1      34.761 -21.166 -20.227  0.00  0.00    +0.021 C 
ATOM     24  C   UNL     1      36.227 -21.837 -18.478  0.00  0.00    +0.102 C 
ATOM     25  C   UNL     1      35.644 -20.134 -20.529  0.00  0.00    +0.070 C 
ATOM     26  C   UNL     1      36.794 -20.020 -19.765  0.00  0.00    +0.113 C 
BRANCH  25  28
ATOM     27  O   UNL     1      37.520 -18.552 -22.258  0.00  0.00    -0.274 OA
ATOM     28  N   UNL     1      35.379 -19.245 -21.568  0.00  0.00    -0.282 N 
ATOM     29  C   UNL     1      36.296 -18.525 -22.354  0.00  0.00    +0.232 C 
ATOM     30  H   UNL     1      34.429 -19.103 -21.779  0.00  0.00    +0.155 HD
BRANCH  29  31
ATOM     31  C   UNL     1      35.581 -17.663 -23.383  0.00  0.00    +0.131 C 
BRANCH  31  34
ATOM     32 CL   UNL     1      32.630 -13.150 -20.871  0.00  0.00    -0.081 Cl
ATOM     33  N   UNL     1      34.843 -16.415 -21.429  0.00  0.00    -0.247 NA
ATOM     34  C   UNL     1      34.825 -16.510 -22.778  0.00  0.00    +0.068 C 
ATOM     35  C   UNL     1      34.162 -15.622 -23.609  0.00  0.00    +0.016 C 
ATOM     36  C   UNL     1      33.473 -14.568 -23.019  0.00  0.00    +0.014 C 
ATOM     37  C   UNL     1      34.163 -15.378 -20.891  0.00  0.00    +0.110 C 
ATOM     38  C   UNL     1      33.468 -14.437 -21.634  0.00  0.00    +0.077 C 
ENDBRANCH  31  34
ENDBRANCH  29  31
ENDBRANCH  25  28
ENDBRANCH   2  22
TORSDOF 8
ENDMDL
MODEL 4
REMARK VINA RESULT:     -12.4      4.115     10.672
REMARK  Name = 66571548
REMARK  8 active torsions:
REMARK  status: ('A' for Active; 'I' for Inactive)
REMARK    1  A    between atoms: C_2  and  C_10
REMARK    2  A    between atoms: C_2  and  C_22
REMARK    3  A    between atoms: N_3  and  C_15
REMARK    4  A    between atoms: C_15  and  C_18
REMARK    5  A    between atoms: C_18  and  O_19
REMARK    6  A    between atoms: C_25  and  N_28
REMARK    7  A    between atoms: C_29  and  C_31
REMARK    8  A    between atoms: C_31  and  C_34
REMARK                            x       y       z     vdW  Elec       q    Type
REMARK                         _______ _______ _______ _____ _____    ______ ____
ROOT
ATOM      1  O   UNL     1      32.790 -22.312 -19.896  0.00  0.00    -0.286 OA
ATOM      2  C   UNL     1      33.806 -22.079 -19.205  0.00  0.00    +0.199 C 
ENDROOT
BRANCH   2  10
ATOM      3  N   UNL     1      34.965 -23.520 -16.106  0.00  0.00    -0.261 N 
ATOM      4  N   UNL     1      33.039 -24.081 -14.767  0.00  0.00    -0.322 NA
ATOM      5  N   UNL     1      30.932 -23.534 -15.858  0.00  0.00    -0.170 NA
ATOM      6  N   UNL     1      30.987 -24.504 -13.729  0.00  0.00    -0.293 N 
ATOM      7  C   UNL     1      33.616 -23.591 -15.878  0.00  0.00    +0.201 C 
ATOM      8  C   UNL     1      35.193 -22.963 -17.337  0.00  0.00    +0.071 C 
ATOM      9  C   UNL     1      32.967 -23.068 -16.990  0.00  0.00    +0.069 C 
ATOM     10  C   UNL     1      33.971 -22.674 -17.909  0.00  0.00    +0.059 C 
ATOM     11  C   UNL     1      31.573 -23.054 -16.950  0.00  0.00    +0.116 C 
ATOM     12  C   UNL     1      31.695 -24.011 -14.849  0.00  0.00    +0.143 C 
ATOM     13  H   UNL     1      31.479 -24.867 -12.957  0.00  0.00    +0.155 HD
ATOM     14  H   UNL     1      30.003 -24.484 -13.720  0.00  0.00    +0.155 HD
BRANCH   3  15
ATOM     15  C   UNL     1      36.066 -23.992 -15.137  0.00  0.00    +0.091 C 
ATOM     16  C   UNL     1      37.488 -23.534 -15.545  0.00  0.00    +0.023 C 
ATOM     17  C   UNL     1      35.789 -23.403 -13.734  0.00  0.00    +0.023 C 
BRANCH  15  18
ATOM     18  C   UNL     1      36.067 -25.538 -15.034  0.00  0.00    +0.155 C 
BRANCH  18  19
ATOM     19  O   UNL     1      37.164 -26.090 -15.756  0.00  0.00    -0.380 OA
ATOM     20  H   UNL     1      37.606 -26.759 -15.209  0.00  0.00    +0.211 HD
ENDBRANCH  18  19
ENDBRANCH  15  18
ENDBRANCH   3  15
ENDBRANCH   2  10
BRANCH   2  22
ATOM     21  N   UNL     1      37.135 -20.513 -20.089  0.00  0.00    -0.241 NA
ATOM     22  C   UNL     1      34.819 -21.150 -19.817  0.00  0.00    +0.059 C 
ATOM     23  C   UNL     1      34.425 -20.103 -20.643  0.00  0.00    +0.021 C 
ATOM     24  C   UNL     1      36.173 -21.311 -19.573  0.00  0.00    +0.102 C 
ATOM     25  C   UNL     1      35.386 -19.260 -21.192  0.00  0.00    +0.070 C 
ATOM     26  C   UNL     1      36.715 -19.506 -20.888  0.00  0.00    +0.113 C 
BRANCH  25  28
ATOM     27  O   UNL     1      35.201 -16.317 -20.623  0.00  0.00    -0.274 OA
ATOM     28  N   UNL     1      35.022 -18.202 -22.022  0.00  0.00    -0.282 N 
ATOM     29  C   UNL     1      34.951 -16.833 -21.709  0.00  0.00    +0.232 C 
ATOM     30  H   UNL     1      34.784 -18.444 -22.945  0.00  0.00    +0.155 HD
BRANCH  29  31
ATOM     31  C   UNL     1      34.508 -16.017 -22.913  0.00  0.00    +0.131 C 
BRANCH  31  34
ATOM     32 CL   UNL     1      31.133 -11.295 -21.606  0.00  0.00    -0.081 Cl
ATOM     33  N   UNL     1      33.530 -13.863 -23.484  0.00  0.00    -0.247 NA
ATOM     34  C   UNL     1      33.646 -14.835 -22.551  0.00  0.00    +0.068 C 
ATOM     35  C   UNL     1      33.030 -14.797 -21.311  0.00  0.00    +0.016 C 
ATOM     36  C   UNL     1      32.242 -13.692 -21.009  0.00  0.00    +0.014 C 
ATOM     37  C   UNL     1      32.755 -12.805 -23.156  0.00  0.00    +0.110 C 
ATOM     38  C   UNL     1      32.097 -12.672 -21.943  0.00  0.00    +0.077 C 
ENDBRANCH  31  34
ENDBRANCH  29  31
ENDBRANCH  25  28
ENDBRANCH   2  22
TORSDOF 8
ENDMDL
MODEL 5
REMARK VINA RESULT:     -12.4      3.977     10.599
REMARK  Name = 66571548
REMARK  8 active torsions:
REMARK  status: ('A' for Active; 'I' for Inactive)
REMARK    1  A    between atoms: C_2  and  C_10
REMARK    2  A    between atoms: C_2  and  C_22
REMARK    3  A    between atoms: N_3  and  C_15
REMARK    4  A    between atoms: C_15  and  C_18
REMARK    5  A    between atoms: C_18  and  O_19
REMARK    6  A    between atoms: C_25  and  N_28
REMARK    7  A    between atoms: C_29  and  C_31
REMARK    8  A    between atoms: C_31  and  C_34
REMARK                            x       y       z     vdW  Elec       q    Type
REMARK                         _______ _______ _______ _____ _____    ______ ____
ROOT
ATOM      1  O   UNL     1      32.651 -22.682 -19.171  0.00  0.00    -0.286 OA
ATOM      2  C   UNL     1      33.686 -22.513 -18.492  0.00  0.00    +0.199 C 
ENDROOT
BRANCH   2  10
ATOM      3  N   UNL     1      34.727 -23.783 -15.279  0.00  0.00    -0.261 N 
ATOM      4  N   UNL     1      32.762 -24.491 -14.074  0.00  0.00    -0.322 NA
ATOM      5  N   UNL     1      30.705 -24.158 -15.333  0.00  0.00    -0.170 NA
ATOM      6  N   UNL     1      30.682 -25.078 -13.181  0.00  0.00    -0.293 N 
ATOM      7  C   UNL     1      33.377 -23.972 -15.150  0.00  0.00    +0.201 C 
ATOM      8  C   UNL     1      34.999 -23.232 -16.504  0.00  0.00    +0.071 C 
ATOM      9  C   UNL     1      32.771 -23.532 -16.321  0.00  0.00    +0.069 C 
ATOM     10  C   UNL     1      33.804 -23.065 -17.173  0.00  0.00    +0.059 C 
ATOM     11  C   UNL     1      31.382 -23.643 -16.386  0.00  0.00    +0.116 C 
ATOM     12  C   UNL     1      31.428 -24.545 -14.258  0.00  0.00    +0.143 C 
ATOM     13  H   UNL     1      31.143 -25.380 -12.365  0.00  0.00    +0.155 HD
ATOM     14  H   UNL     1      29.703 -25.147 -13.247  0.00  0.00    +0.155 HD
BRANCH   3  15
ATOM     15  C   UNL     1      35.789 -24.134 -14.218  0.00  0.00    +0.091 C 
ATOM     16  C   UNL     1      36.260 -25.608 -14.276  0.00  0.00    +0.023 C 
ATOM     17  C   UNL     1      37.039 -23.253 -14.446  0.00  0.00    +0.023 C 
BRANCH  15  18
ATOM     18  C   UNL     1      35.240 -23.858 -12.795  0.00  0.00    +0.155 C 
BRANCH  18  19
ATOM     19  O   UNL     1      34.921 -25.077 -12.133  0.00  0.00    -0.380 OA
ATOM     20  H   UNL     1      35.731 -25.592 -11.996  0.00  0.00    +0.211 HD
ENDBRANCH  18  19
ENDBRANCH  15  18
ENDBRANCH   3  15
ENDBRANCH   2  10
BRANCH   2  22
ATOM     21  N   UNL     1      37.122 -21.141 -19.287  0.00  0.00    -0.241 NA
ATOM     22  C   UNL     1      34.776 -21.706 -19.144  0.00  0.00    +0.059 C 
ATOM     23  C   UNL     1      34.489 -20.804 -20.163  0.00  0.00    +0.021 C 
ATOM     24  C   UNL     1      36.096 -21.836 -18.745  0.00  0.00    +0.102 C 
ATOM     25  C   UNL     1      35.518 -20.071 -20.745  0.00  0.00    +0.070 C 
ATOM     26  C   UNL     1      36.806 -20.275 -20.275  0.00  0.00    +0.113 C 
BRANCH  25  28
ATOM     27  O   UNL     1      37.407 -18.463 -22.436  0.00  0.00    -0.274 OA
ATOM     28  N   UNL     1      35.261 -19.160 -21.767  0.00  0.00    -0.282 N 
ATOM     29  C   UNL     1      36.184 -18.428 -22.534  0.00  0.00    +0.232 C 
ATOM     30  H   UNL     1      34.312 -19.009 -21.978  0.00  0.00    +0.155 HD
BRANCH  29  31
ATOM     31  C   UNL     1      35.476 -17.543 -23.549  0.00  0.00    +0.131 C 
BRANCH  31  34
ATOM     32 CL   UNL     1      32.568 -13.045 -20.961  0.00  0.00    -0.081 Cl
ATOM     33  N   UNL     1      34.737 -16.330 -21.574  0.00  0.00    -0.247 NA
ATOM     34  C   UNL     1      34.731 -16.393 -22.924  0.00  0.00    +0.068 C 
ATOM     35  C   UNL     1      34.089 -15.476 -23.741  0.00  0.00    +0.016 C 
ATOM     36  C   UNL     1      33.410 -14.426 -23.132  0.00  0.00    +0.014 C 
ATOM     37  C   UNL     1      34.068 -15.295 -21.018  0.00  0.00    +0.110 C 
ATOM     38  C   UNL     1      33.394 -14.327 -21.746  0.00  0.00    +0.077 C 
ENDBRANCH  31  34
ENDBRANCH  29  31
ENDBRANCH  25  28
ENDBRANCH   2  22
TORSDOF 8
ENDMDL
MODEL 6
REMARK VINA RESULT:     -12.1      4.047     10.955
REMARK  Name = 66571548
REMARK  8 active torsions:
REMARK  status: ('A' for Active; 'I' for Inactive)
REMARK    1  A    between atoms: C_2  and  C_10
REMARK    2  A    between atoms: C_2  and  C_22
REMARK    3  A    between atoms: N_3  and  C_15
REMARK    4  A    between atoms: C_15  and  C_18
REMARK    5  A    between atoms: C_18  and  O_19
REMARK    6  A    between atoms: C_25  and  N_28
REMARK    7  A    between atoms: C_29  and  C_31
REMARK    8  A    between atoms: C_31  and  C_34
REMARK                            x       y       z     vdW  Elec       q    Type
REMARK                         _______ _______ _______ _____ _____    ______ ____
ROOT
ATOM      1  O   UNL     1      36.926 -22.434 -18.144  0.00  0.00    -0.286 OA
ATOM      2  C   UNL     1      35.698 -22.329 -17.933  0.00  0.00    +0.199 C 
ENDROOT
BRANCH   2  10
ATOM      3  N   UNL     1      33.582 -23.497 -15.253  0.00  0.00    -0.261 N 
ATOM      4  N   UNL     1      34.963 -23.883 -13.314  0.00  0.00    -0.322 NA
ATOM      5  N   UNL     1      37.314 -23.386 -13.709  0.00  0.00    -0.170 NA
ATOM      6  N   UNL     1      36.561 -24.154 -11.629  0.00  0.00    -0.293 N 
ATOM      7  C   UNL     1      34.782 -23.512 -14.594  0.00  0.00    +0.201 C 
ATOM      8  C   UNL     1      33.772 -23.067 -16.541  0.00  0.00    +0.071 C 
ATOM      9  C   UNL     1      35.762 -23.081 -15.480  0.00  0.00    +0.069 C 
ATOM     10  C   UNL     1      35.115 -22.801 -16.710  0.00  0.00    +0.059 C 
ATOM     11  C   UNL     1      37.067 -23.026 -14.990  0.00  0.00    +0.116 C 
ATOM     12  C   UNL     1      36.260 -23.787 -12.961  0.00  0.00    +0.143 C 
ATOM     13  H   UNL     1      35.842 -24.456 -11.028  0.00  0.00    +0.155 HD
ATOM     14  H   UNL     1      37.489 -24.108 -11.303  0.00  0.00    +0.155 HD
BRANCH   3  15
ATOM     15  C   UNL     1      32.220 -23.897 -14.652  0.00  0.00    +0.091 C 
ATOM     16  C   UNL     1      31.636 -22.840 -13.684  0.00  0.00    +0.023 C 
ATOM     17  C   UNL     1      31.197 -24.073 -15.798  0.00  0.00    +0.023 C 
BRANCH  15  18
ATOM     18  C   UNL     1      32.344 -25.238 -13.886  0.00  0.00    +0.155 C 
BRANCH  18  19
ATOM     19  O   UNL     1      31.204 -25.453 -13.060  0.00  0.00    -0.380 OA
ATOM     20  H   UNL     1      31.417 -26.113 -12.381  0.00  0.00    +0.211 HD
ENDBRANCH  18  19
ENDBRANCH  15  18
ENDBRANCH   3  15
ENDBRANCH   2  10
BRANCH   2  22
ATOM     21  N   UNL     1      32.752 -21.364 -20.103  0.00  0.00    -0.241 NA
ATOM     22  C   UNL     1      34.894 -21.685 -19.030  0.00  0.00    +0.059 C 
ATOM     23  C   UNL     1      35.496 -20.848 -19.964  0.00  0.00    +0.021 C 
ATOM     24  C   UNL     1      33.532 -21.909 -19.142  0.00  0.00    +0.102 C 
ATOM     25  C   UNL     1      34.726 -20.269 -20.967  0.00  0.00    +0.070 C 
ATOM     26  C   UNL     1      33.371 -20.556 -20.992  0.00  0.00    +0.113 C 
BRANCH  25  28
ATOM     27  O   UNL     1      35.268 -17.317 -20.876  0.00  0.00    -0.274 OA
ATOM     28  N   UNL     1      35.301 -19.428 -21.917  0.00  0.00    -0.282 N 
ATOM     29  C   UNL     1      35.536 -18.045 -21.828  0.00  0.00    +0.232 C 
ATOM     30  H   UNL     1      35.578 -19.857 -22.758  0.00  0.00    +0.155 HD
BRANCH  29  31
ATOM     31  C   UNL     1      36.186 -17.515 -23.097  0.00  0.00    +0.131 C 
BRANCH  31  34
ATOM     32 CL   UNL     1      32.679 -13.811 -26.158  0.00  0.00    -0.081 Cl
ATOM     33  N   UNL     1      35.175 -15.330 -23.450  0.00  0.00    -0.247 NA
ATOM     34  C   UNL     1      35.291 -16.602 -23.893  0.00  0.00    +0.068 C 
ATOM     35  C   UNL     1      34.643 -17.095 -25.014  0.00  0.00    +0.016 C 
ATOM     36  C   UNL     1      33.824 -16.227 -25.728  0.00  0.00    +0.014 C 
ATOM     37  C   UNL     1      34.371 -14.515 -24.169  0.00  0.00    +0.110 C 
ATOM     38  C   UNL     1      33.680 -14.910 -25.303  0.00  0.00    +0.077 C 
ENDBRANCH  31  34
ENDBRANCH  29  31
ENDBRANCH  25  28
ENDBRANCH   2  22
TORSDOF 8
ENDMDL
MODEL 7
REMARK VINA RESULT:     -12.1      3.939     11.268
REMARK  Name = 66571548
REMARK  8 active torsions:
REMARK  status: ('A' for Active; 'I' for Inactive)
REMARK    1  A    between atoms: C_2  and  C_10
REMARK    2  A    between atoms: C_2  and  C_22
REMARK    3  A    between atoms: N_3  and  C_15
REMARK    4  A    between atoms: C_15  and  C_18
REMARK    5  A    between atoms: C_18  and  O_19
REMARK    6  A    between atoms: C_25  and  N_28
REMARK    7  A    between atoms: C_29  and  C_31
REMARK    8  A    between atoms: C_31  and  C_34
REMARK                            x       y       z     vdW  Elec       q    Type
REMARK                         _______ _______ _______ _____ _____    ______ ____
ROOT
ATOM      1  O   UNL     1      37.724 -21.010 -16.995  0.00  0.00    -0.286 OA
ATOM      2  C   UNL     1      36.808 -21.848 -17.145  0.00  0.00    +0.199 C 
ENDROOT
BRANCH   2  10
ATOM      3  N   UNL     1      37.026 -24.556 -14.770  0.00  0.00    -0.261 N 
ATOM      4  N   UNL     1      34.804 -25.038 -13.967  0.00  0.00    -0.322 NA
ATOM      5  N   UNL     1      33.105 -23.605 -14.961  0.00  0.00    -0.170 NA
ATOM      6  N   UNL     1      32.547 -25.254 -13.397  0.00  0.00    -0.293 N 
ATOM      7  C   UNL     1      35.673 -24.349 -14.727  0.00  0.00    +0.201 C 
ATOM      8  C   UNL     1      37.597 -23.673 -15.650  0.00  0.00    +0.071 C 
ATOM      9  C   UNL     1      35.372 -23.312 -15.601  0.00  0.00    +0.069 C 
ATOM     10  C   UNL     1      36.595 -22.889 -16.181  0.00  0.00    +0.059 C 
ATOM     11  C   UNL     1      34.029 -22.949 -15.701  0.00  0.00    +0.116 C 
ATOM     12  C   UNL     1      33.544 -24.594 -14.151  0.00  0.00    +0.143 C 
ATOM     13  H   UNL     1      32.795 -25.985 -12.786  0.00  0.00    +0.155 HD
ATOM     14  H   UNL     1      31.605 -24.982 -13.481  0.00  0.00    +0.155 HD
BRANCH   3  15
ATOM     15  C   UNL     1      37.800 -25.615 -13.960  0.00  0.00    +0.091 C 
ATOM     16  C   UNL     1      37.374 -27.069 -14.274  0.00  0.00    +0.023 C 
ATOM     17  C   UNL     1      39.305 -25.505 -14.297  0.00  0.00    +0.023 C 
BRANCH  15  18
ATOM     18  C   UNL     1      37.612 -25.373 -12.441  0.00  0.00    +0.155 C 
BRANCH  18  19
ATOM     19  O   UNL     1      36.663 -26.286 -11.899  0.00  0.00    -0.380 OA
ATOM     20  H   UNL     1      36.155 -26.689 -12.621  0.00  0.00    +0.211 HD
ENDBRANCH  18  19
ENDBRANCH  15  18
ENDBRANCH   3  15
ENDBRANCH   2  10
BRANCH   2  22
ATOM     21  N   UNL     1      33.961 -22.268 -19.602  0.00  0.00    -0.241 NA
ATOM     22  C   UNL     1      35.966 -21.688 -18.381  0.00  0.00    +0.059 C 
ATOM     23  C   UNL     1      36.369 -20.858 -19.422  0.00  0.00    +0.021 C 
ATOM     24  C   UNL     1      34.765 -22.365 -18.519  0.00  0.00    +0.102 C 
ATOM     25  C   UNL     1      35.569 -20.733 -20.553  0.00  0.00    +0.070 C 
ATOM     26  C   UNL     1      34.385 -21.452 -20.593  0.00  0.00    +0.113 C 
BRANCH  25  28
ATOM     27  O   UNL     1      34.996 -17.829 -21.058  0.00  0.00    -0.274 OA
ATOM     28  N   UNL     1      35.946 -19.910 -21.611  0.00  0.00    -0.282 N 
ATOM     29  C   UNL     1      35.653 -18.548 -21.805  0.00  0.00    +0.232 C 
ATOM     30  H   UNL     1      36.488 -20.336 -22.313  0.00  0.00    +0.155 HD
BRANCH  29  31
ATOM     31  C   UNL     1      36.262 -18.034 -23.099  0.00  0.00    +0.131 C 
BRANCH  31  34
ATOM     32 CL   UNL     1      32.842 -14.027 -25.864  0.00  0.00    -0.081 Cl
ATOM     33  N   UNL     1      35.359 -15.786 -23.325  0.00  0.00    -0.247 NA
ATOM     34  C   UNL     1      35.387 -17.043 -23.822  0.00  0.00    +0.068 C 
ATOM     35  C   UNL     1      34.669 -17.455 -24.933  0.00  0.00    +0.016 C 
ATOM     36  C   UNL     1      33.871 -16.516 -25.576  0.00  0.00    +0.014 C 
ATOM     37  C   UNL     1      34.572 -14.900 -23.977  0.00  0.00    +0.110 C 
ATOM     38  C   UNL     1      33.815 -15.212 -25.095  0.00  0.00    +0.077 C 
ENDBRANCH  31  34
ENDBRANCH  29  31
ENDBRANCH  25  28
ENDBRANCH   2  22
TORSDOF 8
ENDMDL
MODEL 8
REMARK VINA RESULT:     -11.5      3.755     11.423
REMARK  Name = 66571548
REMARK  8 active torsions:
REMARK  status: ('A' for Active; 'I' for Inactive)
REMARK    1  A    between atoms: C_2  and  C_10
REMARK    2  A    between atoms: C_2  and  C_22
REMARK    3  A    between atoms: N_3  and  C_15
REMARK    4  A    between atoms: C_15  and  C_18
REMARK    5  A    between atoms: C_18  and  O_19
REMARK    6  A    between atoms: C_25  and  N_28
REMARK    7  A    between atoms: C_29  and  C_31
REMARK    8  A    between atoms: C_31  and  C_34
REMARK                            x       y       z     vdW  Elec       q    Type
REMARK                         _______ _______ _______ _____ _____    ______ ____
ROOT
ATOM      1  O   UNL     1      38.020 -20.866 -16.510  0.00  0.00    -0.286 OA
ATOM      2  C   UNL     1      37.337 -21.914 -16.510  0.00  0.00    +0.199 C 
ENDROOT
BRANCH   2  10
ATOM      3  N   UNL     1      37.207 -24.169 -13.696  0.00  0.00    -0.261 N 
ATOM      4  N   UNL     1      39.086 -25.673 -13.846  0.00  0.00    -0.322 NA
ATOM      5  N   UNL     1      40.488 -25.249 -15.791  0.00  0.00    -0.170 NA
ATOM      6  N   UNL     1      40.989 -26.961 -14.275  0.00  0.00    -0.293 N 
ATOM      7  C   UNL     1      38.341 -24.648 -14.295  0.00  0.00    +0.201 C 
ATOM      8  C   UNL     1      36.709 -23.122 -14.428  0.00  0.00    +0.071 C 
ATOM      9  C   UNL     1      38.575 -23.889 -15.436  0.00  0.00    +0.069 C 
ATOM     10  C   UNL     1      37.537 -22.926 -15.513  0.00  0.00    +0.059 C 
ATOM     11  C   UNL     1      39.698 -24.226 -16.191  0.00  0.00    +0.116 C 
ATOM     12  C   UNL     1      40.137 -25.900 -14.658  0.00  0.00    +0.143 C 
ATOM     13  H   UNL     1      40.793 -27.479 -13.461  0.00  0.00    +0.155 HD
ATOM     14  H   UNL     1      41.776 -27.183 -14.822  0.00  0.00    +0.155 HD
BRANCH   3  15
ATOM     15  C   UNL     1      36.577 -24.712 -12.398  0.00  0.00    +0.091 C 
ATOM     16  C   UNL     1      35.032 -24.626 -12.376  0.00  0.00    +0.023 C 
ATOM     17  C   UNL     1      36.948 -26.205 -12.245  0.00  0.00    +0.023 C 
BRANCH  15  18
ATOM     18  C   UNL     1      37.122 -23.937 -11.171  0.00  0.00    +0.155 C 
BRANCH  18  19
ATOM     19  O   UNL     1      36.280 -24.130 -10.039  0.00  0.00    -0.380 OA
ATOM     20  H   UNL     1      36.315 -25.061  -9.766  0.00  0.00    +0.211 HD
ENDBRANCH  18  19
ENDBRANCH  15  18
ENDBRANCH   3  15
ENDBRANCH   2  10
BRANCH   2  22
ATOM     21  N   UNL     1      34.191 -22.907 -18.364  0.00  0.00    -0.241 NA
ATOM     22  C   UNL     1      36.315 -22.033 -17.607  0.00  0.00    +0.059 C 
ATOM     23  C   UNL     1      36.511 -21.421 -18.841  0.00  0.00    +0.021 C 
ATOM     24  C   UNL     1      35.150 -22.759 -17.421  0.00  0.00    +0.102 C 
ATOM     25  C   UNL     1      35.548 -21.551 -19.836  0.00  0.00    +0.070 C 
ATOM     26  C   UNL     1      34.416 -22.297 -19.550  0.00  0.00    +0.113 C 
BRANCH  25  28
ATOM     27  O   UNL     1      34.159 -19.185 -21.057  0.00  0.00    -0.274 OA
ATOM     28  N   UNL     1      35.717 -20.950 -21.081  0.00  0.00    -0.282 N 
ATOM     29  C   UNL     1      35.040 -19.837 -21.611  0.00  0.00    +0.232 C 
ATOM     30  H   UNL     1      36.397 -21.356 -21.664  0.00  0.00    +0.155 HD
BRANCH  29  31
ATOM     31  C   UNL     1      35.534 -19.508 -23.011  0.00  0.00    +0.131 C 
BRANCH  31  34
ATOM     32 CL   UNL     1      33.924 -14.066 -24.794  0.00  0.00    -0.081 Cl
ATOM     33  N   UNL     1      35.418 -17.100 -22.688  0.00  0.00    -0.247 NA
ATOM     34  C   UNL     1      35.113 -18.144 -23.490  0.00  0.00    +0.068 C 
ATOM     35  C   UNL     1      34.449 -18.024 -24.701  0.00  0.00    +0.016 C 
ATOM     36  C   UNL     1      34.074 -16.751 -25.114  0.00  0.00    +0.014 C 
ATOM     37  C   UNL     1      35.038 -15.877 -23.123  0.00  0.00    +0.110 C 
ATOM     38  C   UNL     1      34.370 -15.651 -24.316  0.00  0.00    +0.077 C 
ENDBRANCH  31  34
ENDBRANCH  29  31
ENDBRANCH  25  28
ENDBRANCH   2  22
TORSDOF 8
ENDMDL
MODEL 9
REMARK VINA RESULT:     -11.0      7.606     12.108
REMARK  Name = 66571548
REMARK  8 active torsions:
REMARK  status: ('A' for Active; 'I' for Inactive)
REMARK    1  A    between atoms: C_2  and  C_10
REMARK    2  A    between atoms: C_2  and  C_22
REMARK    3  A    between atoms: N_3  and  C_15
REMARK    4  A    between atoms: C_15  and  C_18
REMARK    5  A    between atoms: C_18  and  O_19
REMARK    6  A    between atoms: C_25  and  N_28
REMARK    7  A    between atoms: C_29  and  C_31
REMARK    8  A    between atoms: C_31  and  C_34
REMARK                            x       y       z     vdW  Elec       q    Type
REMARK                         _______ _______ _______ _____ _____    ______ ____
ROOT
ATOM      1  O   UNL     1      35.712  -7.414 -23.229  0.00  0.00    -0.286 OA
ATOM      2  C   UNL     1      34.497  -7.333 -23.512  0.00  0.00    +0.199 C 
ENDROOT
BRANCH   2  10
ATOM      3  N   UNL     1      33.859  -4.868 -26.069  0.00  0.00    -0.261 N 
ATOM      4  N   UNL     1      31.856  -3.664 -25.475  0.00  0.00    -0.322 NA
ATOM      5  N   UNL     1      30.871  -4.433 -23.385  0.00  0.00    -0.170 NA
ATOM      6  N   UNL     1      29.905  -2.698 -24.623  0.00  0.00    -0.293 N 
ATOM      7  C   UNL     1      32.791  -4.604 -25.253  0.00  0.00    +0.201 C 
ATOM      8  C   UNL     1      34.602  -5.888 -25.535  0.00  0.00    +0.071 C 
ATOM      9  C   UNL     1      32.854  -5.475 -24.172  0.00  0.00    +0.069 C 
ATOM     10  C   UNL     1      34.003  -6.284 -24.358  0.00  0.00    +0.059 C 
ATOM     11  C   UNL     1      31.843  -5.360 -23.218  0.00  0.00    +0.116 C 
ATOM     12  C   UNL     1      30.938  -3.654 -24.488  0.00  0.00    +0.143 C 
ATOM     13  H   UNL     1      29.890  -2.097 -25.403  0.00  0.00    +0.155 HD
ATOM     14  H   UNL     1      29.200  -2.634 -23.939  0.00  0.00    +0.155 HD
BRANCH   3  15
ATOM     15  C   UNL     1      34.187  -4.137 -27.386  0.00  0.00    +0.091 C 
ATOM     16  C   UNL     1      34.217  -2.596 -27.248  0.00  0.00    +0.023 C 
ATOM     17  C   UNL     1      35.590  -4.573 -27.868  0.00  0.00    +0.023 C 
BRANCH  15  18
ATOM     18  C   UNL     1      33.150  -4.505 -28.478  0.00  0.00    +0.155 C 
BRANCH  18  19
ATOM     19  O   UNL     1      32.079  -3.567 -28.491  0.00  0.00    -0.380 OA
ATOM     20  H   UNL     1      32.322  -2.807 -29.044  0.00  0.00    +0.211 HD
ENDBRANCH  18  19
ENDBRANCH  15  18
ENDBRANCH   3  15
ENDBRANCH   2  10
BRANCH   2  22
ATOM     21  N   UNL     1      32.084  -9.059 -21.163  0.00  0.00    -0.241 NA
ATOM     22  C   UNL     1      33.610  -8.392 -22.915  0.00  0.00    +0.059 C 
ATOM     23  C   UNL     1      33.484  -9.642 -23.511  0.00  0.00    +0.021 C 
ATOM     24  C   UNL     1      32.896  -8.152 -21.752  0.00  0.00    +0.102 C 
ATOM     25  C   UNL     1      32.658 -10.601 -22.934  0.00  0.00    +0.070 C 
ATOM     26  C   UNL     1      31.985 -10.262 -21.771  0.00  0.00    +0.113 C 
BRANCH  25  28
ATOM     27  O   UNL     1      34.579 -12.224 -24.574  0.00  0.00    -0.274 OA
ATOM     28  N   UNL     1      32.513 -11.862 -23.508  0.00  0.00    -0.282 N 
ATOM     29  C   UNL     1      33.446 -12.585 -24.271  0.00  0.00    +0.232 C 
ATOM     30  H   UNL     1      31.645 -12.302 -23.360  0.00  0.00    +0.155 HD
BRANCH  29  31
ATOM     31  C   UNL     1      32.878 -13.927 -24.705  0.00  0.00    +0.131 C 
BRANCH  31  34
ATOM     32 CL   UNL     1      36.311 -18.503 -23.073  0.00  0.00    -0.081 Cl
ATOM     33  N   UNL     1      34.127 -15.172 -23.029  0.00  0.00    -0.247 NA
ATOM     34  C   UNL     1      33.747 -15.098 -24.324  0.00  0.00    +0.068 C 
ATOM     35  C   UNL     1      34.107 -16.020 -25.293  0.00  0.00    +0.016 C 
ATOM     36  C   UNL     1      34.909 -17.088 -24.908  0.00  0.00    +0.014 C 
ATOM     37  C   UNL     1      34.906 -16.224 -22.692  0.00  0.00    +0.110 C 
ATOM     38  C   UNL     1      35.322 -17.200 -23.584  0.00  0.00    +0.077 C 
ENDBRANCH  31  34
ENDBRANCH  29  31
ENDBRANCH  25  28
ENDBRANCH   2  22
TORSDOF 8
ENDMDL
