MODEL 1
REMARK VINA RESULT:     -13.1      0.000      0.000
REMARK  Name = 6918388
REMARK  5 active torsions:
REMARK  status: ('A' for Active; 'I' for Inactive)
REMARK    1  A    between atoms: N_1  and  C_4
REMARK    2  A    between atoms: N_1  and  C_15
REMARK    3  A    between atoms: C_4  and  C_6
REMARK    4  A    between atoms: C_15  and  C_17
REMARK    5  A    between atoms: C_19  and  C_23
REMARK                            x       y       z     vdW  Elec       q    Type
REMARK                         _______ _______ _______ _____ _____    ______ ____
ROOT
ATOM      1  N   UNL     1      32.883 -13.541 -23.760  0.00  0.00    +0.389 N 
ATOM      2  H   UNL     1      32.715 -12.646 -24.219  0.00  0.00    -0.084 HD
ATOM      3  H   UNL     1      32.348 -14.281 -24.214  0.00  0.00    -0.084 HD
ENDROOT
BRANCH   1   4
ATOM      4  C   UNL     1      32.462 -13.450 -22.369  0.00  0.00    -0.037 C 
BRANCH   4   6
ATOM      5  O   UNL     1      32.734 -11.123 -22.806  0.00  0.00    -0.482 OA
ATOM      6  C   UNL     1      31.950 -12.053 -22.044  0.00  0.00    +0.145 C 
ATOM      7  C   UNL     1      32.055 -11.770 -20.546  0.00  0.00    +0.046 C 
ATOM      8  C   UNL     1      31.484 -10.387 -20.257  0.00  0.00    +0.033 C 
ATOM      9  C   UNL     1      31.998  -9.388 -21.254  0.00  0.00    +0.012 C 
ATOM     10  C   UNL     1      32.575  -9.806 -22.460  0.00  0.00    +0.134 C 
ATOM     11  C   UNL     1      31.877  -8.017 -20.994  0.00  0.00    -0.001 C 
ATOM     12  C   UNL     1      33.061  -8.866 -23.372  0.00  0.00    +0.037 C 
ATOM     13  C   UNL     1      32.351  -7.079 -21.912  0.00  0.00    -0.000 C 
ATOM     14  C   UNL     1      32.946  -7.504 -23.098  0.00  0.00    +0.003 C 
ENDBRANCH   4   6
ENDBRANCH   1   4
BRANCH   1  15
ATOM     15  C   UNL     1      34.300 -13.867 -23.856  0.00  0.00    -0.053 C 
BRANCH  15  17
ATOM     16  N   UNL     1      34.521 -17.107 -25.766  0.00  0.00    -0.243 NA
ATOM     17  C   UNL     1      34.521 -15.325 -24.156  0.00  0.00    -0.025 C 
ATOM     18  C   UNL     1      34.909 -16.193 -23.153  0.00  0.00    -0.003 C 
ATOM     19  C   UNL     1      35.106 -17.534 -23.460  0.00  0.00    +0.019 C 
ATOM     20  C   UNL     1      34.339 -15.810 -25.431  0.00  0.00    +0.092 C 
ATOM     21  C   UNL     1      34.902 -17.937 -24.770  0.00  0.00    +0.099 C 
BRANCH  19  23
ATOM     22  F   UNL     1      36.669 -21.180 -19.541  0.00  0.00    -0.204 F 
ATOM     23  C   UNL     1      35.512 -18.479 -22.446  0.00  0.00    +0.002 C 
ATOM     24  C   UNL     1      34.598 -19.412 -21.953  0.00  0.00    +0.002 C 
ATOM     25  C   UNL     1      36.818 -18.460 -21.952  0.00  0.00    +0.002 C 
ATOM     26  C   UNL     1      34.989 -20.324 -20.973  0.00  0.00    +0.030 C 
ATOM     27  C   UNL     1      37.209 -19.372 -20.971  0.00  0.00    +0.030 C 
ATOM     28  C   UNL     1      36.294 -20.304 -20.482  0.00  0.00    +0.140 C 
ENDBRANCH  19  23
ENDBRANCH  15  17
ENDBRANCH   1  15
TORSDOF 5
ENDMDL
MODEL 2
REMARK VINA RESULT:     -13.0      2.431      4.557
REMARK  Name = 6918388
REMARK  5 active torsions:
REMARK  status: ('A' for Active; 'I' for Inactive)
REMARK    1  A    between atoms: N_1  and  C_4
REMARK    2  A    between atoms: N_1  and  C_15
REMARK    3  A    between atoms: C_4  and  C_6
REMARK    4  A    between atoms: C_15  and  C_17
REMARK    5  A    between atoms: C_19  and  C_23
REMARK                            x       y       z     vdW  Elec       q    Type
REMARK                         _______ _______ _______ _____ _____    ______ ____
ROOT
ATOM      1  N   UNL     1      35.333 -17.137 -24.921  0.00  0.00    +0.389 N 
ATOM      2  H   UNL     1      35.801 -16.631 -24.170  0.00  0.00    -0.084 HD
ATOM      3  H   UNL     1      35.985 -17.328 -25.683  0.00  0.00    -0.084 HD
ENDROOT
BRANCH   1   4
ATOM      4  C   UNL     1      34.242 -16.323 -25.438  0.00  0.00    -0.037 C 
BRANCH   4   6
ATOM      5  O   UNL     1      33.426 -15.220 -23.489  0.00  0.00    -0.482 OA
ATOM      6  C   UNL     1      34.159 -14.991 -24.702  0.00  0.00    +0.145 C 
ATOM      7  C   UNL     1      33.481 -13.932 -25.569  0.00  0.00    +0.046 C 
ATOM      8  C   UNL     1      33.467 -12.606 -24.819  0.00  0.00    +0.033 C 
ATOM      9  C   UNL     1      33.031 -12.813 -23.396  0.00  0.00    +0.012 C 
ATOM     10  C   UNL     1      33.045 -14.088 -22.817  0.00  0.00    +0.134 C 
ATOM     11  C   UNL     1      32.628 -11.716 -22.623  0.00  0.00    -0.001 C 
ATOM     12  C   UNL     1      32.624 -14.267 -21.497  0.00  0.00    +0.037 C 
ATOM     13  C   UNL     1      32.220 -11.894 -21.301  0.00  0.00    -0.000 C 
ATOM     14  C   UNL     1      32.214 -13.170 -20.740  0.00  0.00    +0.003 C 
ENDBRANCH   4   6
ENDBRANCH   1   4
BRANCH   1  15
ATOM     15  C   UNL     1      34.838 -18.406 -24.405  0.00  0.00    -0.053 C 
BRANCH  15  17
ATOM     16  N   UNL     1      37.495 -18.664 -21.747  0.00  0.00    -0.243 NA
ATOM     17  C   UNL     1      35.544 -18.812 -23.139  0.00  0.00    -0.025 C 
ATOM     18  C   UNL     1      34.932 -19.663 -22.241  0.00  0.00    -0.003 C 
ATOM     19  C   UNL     1      35.608 -20.019 -21.080  0.00  0.00    +0.019 C 
ATOM     20  C   UNL     1      36.807 -18.339 -22.864  0.00  0.00    +0.092 C 
ATOM     21  C   UNL     1      36.877 -19.497 -20.881  0.00  0.00    +0.099 C 
BRANCH  19  23
ATOM     22  F   UNL     1      33.298 -23.448 -17.338  0.00  0.00    -0.204 F 
ATOM     23  C   UNL     1      35.009 -20.906 -20.110  0.00  0.00    +0.002 C 
ATOM     24  C   UNL     1      35.817 -21.626 -19.227  0.00  0.00    +0.002 C 
ATOM     25  C   UNL     1      33.622 -21.049 -20.053  0.00  0.00    +0.002 C 
ATOM     26  C   UNL     1      35.239 -22.484 -18.291  0.00  0.00    +0.030 C 
ATOM     27  C   UNL     1      33.044 -21.907 -19.117  0.00  0.00    +0.030 C 
ATOM     28  C   UNL     1      33.853 -22.624 -18.237  0.00  0.00    +0.140 C 
ENDBRANCH  19  23
ENDBRANCH  15  17
ENDBRANCH   1  15
TORSDOF 5
ENDMDL
MODEL 3
REMARK VINA RESULT:     -12.8      4.157      9.844
REMARK  Name = 6918388
REMARK  5 active torsions:
REMARK  status: ('A' for Active; 'I' for Inactive)
REMARK    1  A    between atoms: N_1  and  C_4
REMARK    2  A    between atoms: N_1  and  C_15
REMARK    3  A    between atoms: C_4  and  C_6
REMARK    4  A    between atoms: C_15  and  C_17
REMARK    5  A    between atoms: C_19  and  C_23
REMARK                            x       y       z     vdW  Elec       q    Type
REMARK                         _______ _______ _______ _____ _____    ______ ____
ROOT
ATOM      1  N   UNL     1      31.674 -12.361 -21.651  0.00  0.00    +0.389 N 
ATOM      2  H   UNL     1      32.282 -12.358 -20.833  0.00  0.00    -0.084 HD
ATOM      3  H   UNL     1      31.052 -13.169 -21.630  0.00  0.00    -0.084 HD
ENDROOT
BRANCH   1   4
ATOM      4  C   UNL     1      32.493 -12.436 -22.853  0.00  0.00    -0.037 C 
BRANCH   4   6
ATOM      5  O   UNL     1      33.393 -14.395 -23.869  0.00  0.00    -0.482 OA
ATOM      6  C   UNL     1      33.542 -13.534 -22.730  0.00  0.00    +0.145 C 
ATOM      7  C   UNL     1      33.371 -14.307 -21.424  0.00  0.00    +0.046 C 
ATOM      8  C   UNL     1      34.470 -15.357 -21.316  0.00  0.00    +0.033 C 
ATOM      9  C   UNL     1      34.622 -16.093 -22.617  0.00  0.00    +0.012 C 
ATOM     10  C   UNL     1      34.092 -15.572 -23.805  0.00  0.00    +0.134 C 
ATOM     11  C   UNL     1      35.325 -17.304 -22.656  0.00  0.00    -0.001 C 
ATOM     12  C   UNL     1      34.230 -16.275 -25.005  0.00  0.00    +0.037 C 
ATOM     13  C   UNL     1      35.473 -17.997 -23.858  0.00  0.00    -0.000 C 
ATOM     14  C   UNL     1      34.922 -17.484 -25.030  0.00  0.00    +0.003 C 
ENDBRANCH   4   6
ENDBRANCH   1   4
BRANCH   1  15
ATOM     15  C   UNL     1      30.863 -11.151 -21.647  0.00  0.00    -0.053 C 
BRANCH  15  17
ATOM     16  N   UNL     1      32.771  -8.428 -19.875  0.00  0.00    -0.243 NA
ATOM     17  C   UNL     1      31.696  -9.917 -21.422  0.00  0.00    -0.025 C 
ATOM     18  C   UNL     1      32.134  -9.166 -22.494  0.00  0.00    -0.003 C 
ATOM     19  C   UNL     1      32.902  -8.032 -22.256  0.00  0.00    +0.019 C 
ATOM     20  C   UNL     1      32.028  -9.524 -20.145  0.00  0.00    +0.092 C 
ATOM     21  C   UNL     1      33.191  -7.709 -20.939  0.00  0.00    +0.099 C 
BRANCH  19  23
ATOM     22  F   UNL     1      34.760  -4.881 -26.464  0.00  0.00    -0.204 F 
ATOM     23  C   UNL     1      33.384  -7.215 -23.345  0.00  0.00    +0.002 C 
ATOM     24  C   UNL     1      32.512  -6.354 -24.013  0.00  0.00    +0.002 C 
ATOM     25  C   UNL     1      34.722  -7.286 -23.735  0.00  0.00    +0.002 C 
ATOM     26  C   UNL     1      32.976  -5.565 -25.066  0.00  0.00    +0.030 C 
ATOM     27  C   UNL     1      35.187  -6.498 -24.789  0.00  0.00    +0.030 C 
ATOM     28  C   UNL     1      34.314  -5.638 -25.453  0.00  0.00    +0.140 C 
ENDBRANCH  19  23
ENDBRANCH  15  17
ENDBRANCH   1  15
TORSDOF 5
ENDMDL
MODEL 4
REMARK VINA RESULT:     -12.7      1.382      2.111
REMARK  Name = 6918388
REMARK  5 active torsions:
REMARK  status: ('A' for Active; 'I' for Inactive)
REMARK    1  A    between atoms: N_1  and  C_4
REMARK    2  A    between atoms: N_1  and  C_15
REMARK    3  A    between atoms: C_4  and  C_6
REMARK    4  A    between atoms: C_15  and  C_17
REMARK    5  A    between atoms: C_19  and  C_23
REMARK                            x       y       z     vdW  Elec       q    Type
REMARK                         _______ _______ _______ _____ _____    ______ ____
ROOT
ATOM      1  N   UNL     1      33.568 -14.819 -22.177  0.00  0.00    +0.389 N 
ATOM      2  H   UNL     1      32.927 -15.609 -22.119  0.00  0.00    -0.084 HD
ATOM      3  H   UNL     1      33.549 -14.281 -21.310  0.00  0.00    -0.084 HD
ENDROOT
BRANCH   1   4
ATOM      4  C   UNL     1      33.157 -13.950 -23.271  0.00  0.00    -0.037 C 
BRANCH   4   6
ATOM      5  O   UNL     1      33.089 -11.568 -23.218  0.00  0.00    -0.482 OA
ATOM      6  C   UNL     1      32.399 -12.736 -22.749  0.00  0.00    +0.145 C 
ATOM      7  C   UNL     1      32.320 -12.759 -21.223  0.00  0.00    +0.046 C 
ATOM      8  C   UNL     1      31.511 -11.560 -20.746  0.00  0.00    +0.033 C 
ATOM      9  C   UNL     1      31.945 -10.314 -21.464  0.00  0.00    +0.012 C 
ATOM     10  C   UNL     1      32.689 -10.388 -22.648  0.00  0.00    +0.134 C 
ATOM     11  C   UNL     1      31.582  -9.056 -20.963  0.00  0.00    -0.001 C 
ATOM     12  C   UNL     1      33.099  -9.220 -23.297  0.00  0.00    +0.037 C 
ATOM     13  C   UNL     1      31.980  -7.892 -21.620  0.00  0.00    -0.000 C 
ATOM     14  C   UNL     1      32.741  -7.974 -22.783  0.00  0.00    +0.003 C 
ENDBRANCH   4   6
ENDBRANCH   1   4
BRANCH   1  15
ATOM     15  C   UNL     1      34.921 -15.315 -22.385  0.00  0.00    -0.053 C 
BRANCH  15  17
ATOM     16  N   UNL     1      35.045 -18.510 -24.377  0.00  0.00    -0.243 NA
ATOM     17  C   UNL     1      34.937 -16.785 -22.711  0.00  0.00    -0.025 C 
ATOM     18  C   UNL     1      34.860 -17.724 -21.702  0.00  0.00    -0.003 C 
ATOM     19  C   UNL     1      34.877 -19.074 -22.032  0.00  0.00    +0.019 C 
ATOM     20  C   UNL     1      35.026 -17.208 -24.017  0.00  0.00    +0.092 C 
ATOM     21  C   UNL     1      34.970 -19.412 -23.373  0.00  0.00    +0.099 C 
BRANCH  19  23
ATOM     22  F   UNL     1      34.583 -23.013 -18.097  0.00  0.00    -0.204 F 
ATOM     23  C   UNL     1      34.800 -20.093 -21.012  0.00  0.00    +0.002 C 
ATOM     24  C   UNL     1      35.969 -20.641 -20.480  0.00  0.00    +0.002 C 
ATOM     25  C   UNL     1      33.558 -20.537 -20.556  0.00  0.00    +0.002 C 
ATOM     26  C   UNL     1      35.896 -21.626 -19.496  0.00  0.00    +0.030 C 
ATOM     27  C   UNL     1      33.484 -21.522 -19.572  0.00  0.00    +0.030 C 
ATOM     28  C   UNL     1      34.653 -22.067 -19.042  0.00  0.00    +0.140 C 
ENDBRANCH  19  23
ENDBRANCH  15  17
ENDBRANCH   1  15
TORSDOF 5
ENDMDL
MODEL 5
REMARK VINA RESULT:     -12.6      2.194      3.684
REMARK  Name = 6918388
REMARK  5 active torsions:
REMARK  status: ('A' for Active; 'I' for Inactive)
REMARK    1  A    between atoms: N_1  and  C_4
REMARK    2  A    between atoms: N_1  and  C_15
REMARK    3  A    between atoms: C_4  and  C_6
REMARK    4  A    between atoms: C_15  and  C_17
REMARK    5  A    between atoms: C_19  and  C_23
REMARK                            x       y       z     vdW  Elec       q    Type
REMARK                         _______ _______ _______ _____ _____    ______ ____
ROOT
ATOM      1  N   UNL     1      35.132 -16.026 -23.392  0.00  0.00    +0.389 N 
ATOM      2  H   UNL     1      34.910 -15.887 -22.407  0.00  0.00    -0.084 HD
ATOM      3  H   UNL     1      36.076 -15.699 -23.595  0.00  0.00    -0.084 HD
ENDROOT
BRANCH   1   4
ATOM      4  C   UNL     1      34.193 -15.264 -24.204  0.00  0.00    -0.037 C 
BRANCH   4   6
ATOM      5  O   UNL     1      33.434 -13.083 -23.616  0.00  0.00    -0.482 OA
ATOM      6  C   UNL     1      33.230 -14.474 -23.327  0.00  0.00    +0.145 C 
ATOM      7  C   UNL     1      33.469 -14.774 -21.848  0.00  0.00    +0.046 C 
ATOM      8  C   UNL     1      32.453 -14.007 -21.011  0.00  0.00    +0.033 C 
ATOM      9  C   UNL     1      32.346 -12.587 -21.488  0.00  0.00    +0.012 C 
ATOM     10  C   UNL     1      32.825 -12.212 -22.749  0.00  0.00    +0.134 C 
ATOM     11  C   UNL     1      31.735 -11.622 -20.675  0.00  0.00    -0.001 C 
ATOM     12  C   UNL     1      32.731 -10.884 -23.173  0.00  0.00    +0.037 C 
ATOM     13  C   UNL     1      31.630 -10.299 -21.106  0.00  0.00    -0.000 C 
ATOM     14  C   UNL     1      32.132  -9.930 -22.352  0.00  0.00    +0.003 C 
ENDBRANCH   4   6
ENDBRANCH   1   4
BRANCH   1  15
ATOM     15  C   UNL     1      35.056 -17.447 -23.702  0.00  0.00    -0.053 C 
BRANCH  15  17
ATOM     16  N   UNL     1      37.741 -18.937 -21.519  0.00  0.00    -0.243 NA
ATOM     17  C   UNL     1      35.722 -18.289 -22.647  0.00  0.00    -0.025 C 
ATOM     18  C   UNL     1      34.976 -19.150 -21.867  0.00  0.00    -0.003 C 
ATOM     19  C   UNL     1      35.618 -19.914 -20.900  0.00  0.00    +0.019 C 
ATOM     20  C   UNL     1      37.081 -18.210 -22.449  0.00  0.00    +0.092 C 
ATOM     21  C   UNL     1      36.990 -19.772 -20.766  0.00  0.00    +0.099 C 
BRANCH  19  23
ATOM     22  F   UNL     1      32.764 -23.436 -17.652  0.00  0.00    -0.204 F 
ATOM     23  C   UNL     1      34.880 -20.827 -20.059  0.00  0.00    +0.002 C 
ATOM     24  C   UNL     1      33.484 -20.844 -20.102  0.00  0.00    +0.002 C 
ATOM     25  C   UNL     1      35.557 -21.693 -19.200  0.00  0.00    +0.002 C 
ATOM     26  C   UNL     1      32.770 -21.725 -19.289  0.00  0.00    +0.030 C 
ATOM     27  C   UNL     1      34.843 -22.574 -18.388  0.00  0.00    +0.030 C 
ATOM     28  C   UNL     1      33.450 -22.590 -18.432  0.00  0.00    +0.140 C 
ENDBRANCH  19  23
ENDBRANCH  15  17
ENDBRANCH   1  15
TORSDOF 5
ENDMDL
MODEL 6
REMARK VINA RESULT:     -12.6      3.243      8.876
REMARK  Name = 6918388
REMARK  5 active torsions:
REMARK  status: ('A' for Active; 'I' for Inactive)
REMARK    1  A    between atoms: N_1  and  C_4
REMARK    2  A    between atoms: N_1  and  C_15
REMARK    3  A    between atoms: C_4  and  C_6
REMARK    4  A    between atoms: C_15  and  C_17
REMARK    5  A    between atoms: C_19  and  C_23
REMARK                            x       y       z     vdW  Elec       q    Type
REMARK                         _______ _______ _______ _____ _____    ______ ____
ROOT
ATOM      1  N   UNL     1      35.665 -17.340 -24.338  0.00  0.00    +0.389 N 
ATOM      2  H   UNL     1      36.048 -18.244 -24.610  0.00  0.00    -0.084 HD
ATOM      3  H   UNL     1      36.250 -16.583 -24.692  0.00  0.00    -0.084 HD
ENDROOT
BRANCH   1   4
ATOM      4  C   UNL     1      35.628 -17.255 -22.885  0.00  0.00    -0.037 C 
BRANCH   4   6
ATOM      5  O   UNL     1      34.520 -18.952 -21.630  0.00  0.00    -0.482 OA
ATOM      6  C   UNL     1      35.773 -18.635 -22.254  0.00  0.00    +0.145 C 
ATOM      7  C   UNL     1      36.918 -18.652 -21.242  0.00  0.00    +0.046 C 
ATOM      8  C   UNL     1      37.063 -20.059 -20.676  0.00  0.00    +0.033 C 
ATOM      9  C   UNL     1      35.718 -20.619 -20.308  0.00  0.00    +0.012 C 
ATOM     10  C   UNL     1      34.541 -20.049 -20.808  0.00  0.00    +0.134 C 
ATOM     11  C   UNL     1      35.633 -21.743 -19.476  0.00  0.00    -0.001 C 
ATOM     12  C   UNL     1      33.296 -20.571 -20.446  0.00  0.00    +0.037 C 
ATOM     13  C   UNL     1      34.390 -22.272 -19.127  0.00  0.00    -0.000 C 
ATOM     14  C   UNL     1      33.223 -21.683 -19.609  0.00  0.00    +0.003 C 
ENDBRANCH   4   6
ENDBRANCH   1   4
BRANCH   1  15
ATOM     15  C   UNL     1      34.330 -17.197 -24.903  0.00  0.00    -0.053 C 
BRANCH  15  17
ATOM     16  N   UNL     1      33.561 -13.823 -26.391  0.00  0.00    -0.243 NA
ATOM     17  C   UNL     1      33.916 -15.754 -25.008  0.00  0.00    -0.025 C 
ATOM     18  C   UNL     1      33.527 -15.055 -23.883  0.00  0.00    -0.003 C 
ATOM     19  C   UNL     1      33.149 -13.724 -24.011  0.00  0.00    +0.019 C 
ATOM     20  C   UNL     1      33.921 -15.115 -26.227  0.00  0.00    +0.092 C 
ATOM     21  C   UNL     1      33.183 -13.159 -25.276  0.00  0.00    +0.099 C 
BRANCH  19  23
ATOM     22  F   UNL     1      31.550 -10.741 -19.579  0.00  0.00    -0.204 F 
ATOM     23  C   UNL     1      32.734 -12.953 -22.863  0.00  0.00    +0.002 C 
ATOM     24  C   UNL     1      32.434 -11.596 -23.003  0.00  0.00    +0.002 C 
ATOM     25  C   UNL     1      32.633 -13.559 -21.610  0.00  0.00    +0.002 C 
ATOM     26  C   UNL     1      32.034 -10.850 -21.894  0.00  0.00    +0.030 C 
ATOM     27  C   UNL     1      32.234 -12.812 -20.501  0.00  0.00    +0.030 C 
ATOM     28  C   UNL     1      31.934 -11.458 -20.643  0.00  0.00    +0.140 C 
ENDBRANCH  19  23
ENDBRANCH  15  17
ENDBRANCH   1  15
TORSDOF 5
ENDMDL
MODEL 7
REMARK VINA RESULT:     -12.6      4.072      9.974
REMARK  Name = 6918388
REMARK  5 active torsions:
REMARK  status: ('A' for Active; 'I' for Inactive)
REMARK    1  A    between atoms: N_1  and  C_4
REMARK    2  A    between atoms: N_1  and  C_15
REMARK    3  A    between atoms: C_4  and  C_6
REMARK    4  A    between atoms: C_15  and  C_17
REMARK    5  A    between atoms: C_19  and  C_23
REMARK                            x       y       z     vdW  Elec       q    Type
REMARK                         _______ _______ _______ _____ _____    ______ ____
ROOT
ATOM      1  N   UNL     1      31.563 -12.085 -22.191  0.00  0.00    +0.389 N 
ATOM      2  H   UNL     1      30.881 -12.648 -22.698  0.00  0.00    -0.084 HD
ATOM      3  H   UNL     1      32.179 -11.598 -22.842  0.00  0.00    -0.084 HD
ENDROOT
BRANCH   1   4
ATOM      4  C   UNL     1      32.372 -12.959 -21.352  0.00  0.00    -0.037 C 
BRANCH   4   6
ATOM      5  O   UNL     1      33.726 -14.918 -21.278  0.00  0.00    -0.482 OA
ATOM      6  C   UNL     1      32.815 -14.197 -22.120  0.00  0.00    +0.145 C 
ATOM      7  C   UNL     1      33.471 -13.810 -23.445  0.00  0.00    +0.046 C 
ATOM      8  C   UNL     1      33.849 -15.075 -24.204  0.00  0.00    +0.033 C 
ATOM      9  C   UNL     1      34.519 -16.058 -23.286  0.00  0.00    +0.012 C 
ATOM     10  C   UNL     1      34.411 -15.932 -21.895  0.00  0.00    +0.134 C 
ATOM     11  C   UNL     1      35.240 -17.133 -23.821  0.00  0.00    -0.001 C 
ATOM     12  C   UNL     1      35.051 -16.846 -21.054  0.00  0.00    +0.037 C 
ATOM     13  C   UNL     1      35.866 -18.053 -22.979  0.00  0.00    -0.000 C 
ATOM     14  C   UNL     1      35.775 -17.906 -21.597  0.00  0.00    +0.003 C 
ENDBRANCH   4   6
ENDBRANCH   1   4
BRANCH   1  15
ATOM     15  C   UNL     1      30.861 -11.094 -21.388  0.00  0.00    -0.053 C 
BRANCH  15  17
ATOM     16  N   UNL     1      32.694  -8.268 -19.700  0.00  0.00    -0.243 NA
ATOM     17  C   UNL     1      31.676  -9.842 -21.201  0.00  0.00    -0.025 C 
ATOM     18  C   UNL     1      32.138  -9.141 -22.297  0.00  0.00    -0.003 C 
ATOM     19  C   UNL     1      32.889  -7.989 -22.094  0.00  0.00    +0.019 C 
ATOM     20  C   UNL     1      31.968  -9.383 -19.937  0.00  0.00    +0.092 C 
ATOM     21  C   UNL     1      33.137  -7.598 -20.787  0.00  0.00    +0.099 C 
BRANCH  19  23
ATOM     22  F   UNL     1      34.847  -5.026 -26.393  0.00  0.00    -0.204 F 
ATOM     23  C   UNL     1      33.395  -7.222 -23.208  0.00  0.00    +0.002 C 
ATOM     24  C   UNL     1      34.734  -7.337 -23.586  0.00  0.00    +0.002 C 
ATOM     25  C   UNL     1      32.549  -6.362 -23.909  0.00  0.00    +0.002 C 
ATOM     26  C   UNL     1      35.224  -6.596 -24.661  0.00  0.00    +0.030 C 
ATOM     27  C   UNL     1      33.039  -5.620 -24.985  0.00  0.00    +0.030 C 
ATOM     28  C   UNL     1      34.376  -5.737 -25.360  0.00  0.00    +0.140 C 
ENDBRANCH  19  23
ENDBRANCH  15  17
ENDBRANCH   1  15
TORSDOF 5
ENDMDL
MODEL 8
REMARK VINA RESULT:     -12.5      6.335     12.080
REMARK  Name = 6918388
REMARK  5 active torsions:
REMARK  status: ('A' for Active; 'I' for Inactive)
REMARK    1  A    between atoms: N_1  and  C_4
REMARK    2  A    between atoms: N_1  and  C_15
REMARK    3  A    between atoms: C_4  and  C_6
REMARK    4  A    between atoms: C_15  and  C_17
REMARK    5  A    between atoms: C_19  and  C_23
REMARK                            x       y       z     vdW  Elec       q    Type
REMARK                         _______ _______ _______ _____ _____    ______ ____
ROOT
ATOM      1  N   UNL     1      36.324 -22.068 -17.905  0.00  0.00    +0.389 N 
ATOM      2  H   UNL     1      35.366 -21.786 -17.701  0.00  0.00    -0.084 HD
ATOM      3  H   UNL     1      36.418 -23.082 -17.848  0.00  0.00    -0.084 HD
ENDROOT
BRANCH   1   4
ATOM      4  C   UNL     1      37.218 -21.464 -16.928  0.00  0.00    -0.037 C 
BRANCH   4   6
ATOM      5  O   UNL     1      38.123 -23.246 -15.631  0.00  0.00    -0.482 OA
ATOM      6  C   UNL     1      37.145 -22.196 -15.594  0.00  0.00    +0.145 C 
ATOM      7  C   UNL     1      35.742 -22.753 -15.356  0.00  0.00    +0.046 C 
ATOM      8  C   UNL     1      35.697 -23.429 -13.992  0.00  0.00    +0.033 C 
ATOM      9  C   UNL     1      36.902 -24.306 -13.801  0.00  0.00    +0.012 C 
ATOM     10  C   UNL     1      38.034 -24.160 -14.612  0.00  0.00    +0.134 C 
ATOM     11  C   UNL     1      36.911 -25.268 -12.782  0.00  0.00    -0.001 C 
ATOM     12  C   UNL     1      39.142 -24.992 -14.432  0.00  0.00    +0.037 C 
ATOM     13  C   UNL     1      38.024 -26.089 -12.595  0.00  0.00    -0.000 C 
ATOM     14  C   UNL     1      39.137 -25.953 -13.423  0.00  0.00    +0.003 C 
ENDBRANCH   4   6
ENDBRANCH   1   4
BRANCH   1  15
ATOM     15  C   UNL     1      36.667 -21.647 -19.257  0.00  0.00    -0.053 C 
BRANCH  15  17
ATOM     16  N   UNL     1      33.096 -20.951 -20.237  0.00  0.00    -0.243 NA
ATOM     17  C   UNL     1      35.481 -21.069 -19.983  0.00  0.00    -0.025 C 
ATOM     18  C   UNL     1      35.665 -20.170 -21.015  0.00  0.00    -0.003 C 
ATOM     19  C   UNL     1      34.551 -19.653 -21.666  0.00  0.00    +0.019 C 
ATOM     20  C   UNL     1      34.202 -21.432 -19.627  0.00  0.00    +0.092 C 
ATOM     21  C   UNL     1      33.299 -20.071 -21.243  0.00  0.00    +0.099 C 
BRANCH  19  23
ATOM     22  F   UNL     1      35.102 -16.012 -25.854  0.00  0.00    -0.204 F 
ATOM     23  C   UNL     1      34.693 -18.709 -22.750  0.00  0.00    +0.002 C 
ATOM     24  C   UNL     1      34.451 -19.112 -24.065  0.00  0.00    +0.002 C 
ATOM     25  C   UNL     1      35.075 -17.392 -22.488  0.00  0.00    +0.002 C 
ATOM     26  C   UNL     1      34.589 -18.201 -25.113  0.00  0.00    +0.030 C 
ATOM     27  C   UNL     1      35.213 -16.482 -23.536  0.00  0.00    +0.030 C 
ATOM     28  C   UNL     1      34.970 -16.887 -24.848  0.00  0.00    +0.140 C 
ENDBRANCH  19  23
ENDBRANCH  15  17
ENDBRANCH   1  15
TORSDOF 5
ENDMDL
MODEL 9
REMARK VINA RESULT:     -12.5      3.721      9.531
REMARK  Name = 6918388
REMARK  5 active torsions:
REMARK  status: ('A' for Active; 'I' for Inactive)
REMARK    1  A    between atoms: N_1  and  C_4
REMARK    2  A    between atoms: N_1  and  C_15
REMARK    3  A    between atoms: C_4  and  C_6
REMARK    4  A    between atoms: C_15  and  C_17
REMARK    5  A    between atoms: C_19  and  C_23
REMARK                            x       y       z     vdW  Elec       q    Type
REMARK                         _______ _______ _______ _____ _____    ______ ____
ROOT
ATOM      1  N   UNL     1      36.027 -17.529 -23.224  0.00  0.00    +0.389 N 
ATOM      2  H   UNL     1      35.344 -17.980 -23.832  0.00  0.00    -0.084 HD
ATOM      3  H   UNL     1      36.743 -17.060 -23.778  0.00  0.00    -0.084 HD
ENDROOT
BRANCH   1   4
ATOM      4  C   UNL     1      36.668 -18.540 -22.396  0.00  0.00    -0.037 C 
BRANCH   4   6
ATOM      5  O   UNL     1      36.395 -20.112 -20.625  0.00  0.00    -0.482 OA
ATOM      6  C   UNL     1      35.686 -19.126 -21.389  0.00  0.00    +0.145 C 
ATOM      7  C   UNL     1      34.479 -19.736 -22.100  0.00  0.00    +0.046 C 
ATOM      8  C   UNL     1      33.498 -20.261 -21.058  0.00  0.00    +0.033 C 
ATOM      9  C   UNL     1      34.225 -21.037 -19.997  0.00  0.00    +0.012 C 
ATOM     10  C   UNL     1      35.611 -20.912 -19.836  0.00  0.00    +0.134 C 
ATOM     11  C   UNL     1      33.510 -21.879 -19.135  0.00  0.00    -0.001 C 
ATOM     12  C   UNL     1      36.275 -21.651 -18.853  0.00  0.00    +0.037 C 
ATOM     13  C   UNL     1      34.173 -22.606 -18.146  0.00  0.00    -0.000 C 
ATOM     14  C   UNL     1      35.555 -22.494 -18.008  0.00  0.00    +0.003 C 
ENDBRANCH   4   6
ENDBRANCH   1   4
BRANCH   1  15
ATOM     15  C   UNL     1      35.350 -16.534 -22.403  0.00  0.00    -0.053 C 
BRANCH  15  17
ATOM     16  N   UNL     1      33.508 -15.067 -25.344  0.00  0.00    -0.243 NA
ATOM     17  C   UNL     1      34.534 -15.581 -23.234  0.00  0.00    -0.025 C 
ATOM     18  C   UNL     1      34.078 -14.396 -22.691  0.00  0.00    -0.003 C 
ATOM     19  C   UNL     1      33.326 -13.535 -23.482  0.00  0.00    +0.019 C 
ATOM     20  C   UNL     1      34.235 -15.879 -24.544  0.00  0.00    +0.092 C 
ATOM     21  C   UNL     1      33.071 -13.914 -24.791  0.00  0.00    +0.099 C 
BRANCH  19  23
ATOM     22  F   UNL     1      31.392  -8.712 -21.462  0.00  0.00    -0.204 F 
ATOM     23  C   UNL     1      32.827 -12.285 -22.959  0.00  0.00    +0.002 C 
ATOM     24  C   UNL     1      31.970 -12.281 -21.856  0.00  0.00    +0.002 C 
ATOM     25  C   UNL     1      33.195 -11.078 -23.554  0.00  0.00    +0.002 C 
ATOM     26  C   UNL     1      31.486 -11.075 -21.350  0.00  0.00    +0.030 C 
ATOM     27  C   UNL     1      32.711  -9.871 -23.049  0.00  0.00    +0.030 C 
ATOM     28  C   UNL     1      31.856  -9.870 -21.947  0.00  0.00    +0.140 C 
ENDBRANCH  19  23
ENDBRANCH  15  17
ENDBRANCH   1  15
TORSDOF 5
ENDMDL
