MODEL 1
REMARK VINA RESULT:     -12.8      0.000      0.000
REMARK  Name = 54726191
REMARK  4 active torsions:
REMARK  status: ('A' for Active; 'I' for Inactive)
REMARK    1  A    between atoms: C_15  and  O_31
REMARK    2  A    between atoms: C_16  and  C_20
REMARK    3  A    between atoms: N_19  and  C_22
REMARK    4  A    between atoms: C_22  and  C_25
REMARK                            x       y       z     vdW  Elec       q    Type
REMARK                         _______ _______ _______ _____ _____    ______ ____
ROOT
ATOM      1  O   UNL     1      37.585 -22.906 -15.718  0.00  0.00    -0.336 OA
ATOM      2  O   UNL     1      33.653 -23.900 -18.088  0.00  0.00    -0.268 OA
ATOM      3  O   UNL     1      33.517 -20.121 -21.495  0.00  0.00    -0.283 OA
ATOM      4  N   UNL     1      35.446 -23.275 -16.764  0.00  0.00    -0.253 N 
ATOM      5  N   UNL     1      36.202 -21.434 -18.757  0.00  0.00    -0.275 N 
ATOM      6  C   UNL     1      36.545 -22.334 -16.521  0.00  0.00    +0.215 C 
ATOM      7  C   UNL     1      35.004 -24.128 -15.646  0.00  0.00    +0.080 C 
ATOM      8  C   UNL     1      36.186 -24.605 -14.802  0.00  0.00    +0.052 C 
ATOM      9  C   UNL     1      37.205 -21.941 -17.832  0.00  0.00    +0.147 C 
ATOM     10  C   UNL     1      37.123 -23.454 -14.491  0.00  0.00    +0.146 C 
ATOM     11  C   UNL     1      34.612 -23.157 -17.884  0.00  0.00    +0.267 C 
ATOM     12  C   UNL     1      34.943 -22.034 -18.841  0.00  0.00    +0.143 C 
ATOM     13  C   UNL     1      33.960 -23.396 -14.793  0.00  0.00    +0.022 C 
ATOM     14  C   UNL     1      36.518 -20.410 -19.639  0.00  0.00    +0.074 C 
ATOM     15  C   UNL     1      34.006 -21.639 -19.731  0.00  0.00    +0.191 C 
ATOM     16  C   UNL     1      35.691 -19.919 -20.571  0.00  0.00    +0.110 C 
ATOM     17  C   UNL     1      34.336 -20.520 -20.673  0.00  0.00    +0.236 C 
ENDROOT
BRANCH  16  20
ATOM     18  O   UNL     1      37.300 -18.850 -21.908  0.00  0.00    -0.270 OA
ATOM     19  N   UNL     1      35.218 -17.839 -21.617  0.00  0.00    -0.297 N 
ATOM     20  C   UNL     1      36.165 -18.833 -21.428  0.00  0.00    +0.251 C 
ATOM     21  H   UNL     1      34.343 -17.940 -21.178  0.00  0.00    +0.150 HD
BRANCH  19  22
ATOM     22  C   UNL     1      35.449 -16.662 -22.423  0.00  0.00    +0.119 C 
BRANCH  22  25
ATOM     23  F   UNL     1      34.558 -14.871 -24.424  0.00  0.00    -0.204 F 
ATOM     24  F   UNL     1      31.607 -12.661 -21.458  0.00  0.00    -0.204 F 
ATOM     25  C   UNL     1      34.425 -15.595 -22.167  0.00  0.00    +0.025 C 
ATOM     26  C   UNL     1      34.029 -14.744 -23.200  0.00  0.00    +0.140 C 
ATOM     27  C   UNL     1      33.869 -15.455 -20.896  0.00  0.00    +0.002 C 
ATOM     28  C   UNL     1      33.077 -13.753 -22.959  0.00  0.00    +0.059 C 
ATOM     29  C   UNL     1      32.916 -14.464 -20.656  0.00  0.00    +0.030 C 
ATOM     30  C   UNL     1      32.521 -13.612 -21.688  0.00  0.00    +0.142 C 
ENDBRANCH  22  25
ENDBRANCH  19  22
ENDBRANCH  16  20
BRANCH  15  31
ATOM     31  O   UNL     1      32.747 -22.189 -19.825  0.00  0.00    -0.502 OA
ATOM     32  H   UNL     1      32.313 -22.227 -20.654  0.00  0.00    +0.292 HD
ENDBRANCH  15  31
TORSDOF 4
ENDMDL
MODEL 2
REMARK VINA RESULT:     -12.7      3.994      9.261
REMARK  Name = 54726191
REMARK  4 active torsions:
REMARK  status: ('A' for Active; 'I' for Inactive)
REMARK    1  A    between atoms: C_15  and  O_31
REMARK    2  A    between atoms: C_16  and  C_20
REMARK    3  A    between atoms: N_19  and  C_22
REMARK    4  A    between atoms: C_22  and  C_25
REMARK                            x       y       z     vdW  Elec       q    Type
REMARK                         _______ _______ _______ _____ _____    ______ ____
ROOT
ATOM      1  O   UNL     1      32.550 -13.044 -20.620  0.00  0.00    -0.336 OA
ATOM      2  O   UNL     1      33.391 -14.981 -24.816  0.00  0.00    -0.268 OA
ATOM      3  O   UNL     1      36.697 -18.660 -23.610  0.00  0.00    -0.283 OA
ATOM      4  N   UNL     1      33.167 -13.870 -22.797  0.00  0.00    -0.253 N 
ATOM      5  N   UNL     1      34.390 -16.064 -21.520  0.00  0.00    -0.275 N 
ATOM      6  C   UNL     1      33.508 -13.799 -21.372  0.00  0.00    +0.215 C 
ATOM      7  C   UNL     1      32.650 -12.653 -23.447  0.00  0.00    +0.080 C 
ATOM      8  C   UNL     1      31.713 -11.877 -22.522  0.00  0.00    +0.052 C 
ATOM      9  C   UNL     1      33.511 -15.190 -20.758  0.00  0.00    +0.147 C 
ATOM     10  C   UNL     1      32.316 -11.742 -21.138  0.00  0.00    +0.146 C 
ATOM     11  C   UNL     1      33.618 -14.922 -23.608  0.00  0.00    +0.267 C 
ATOM     12  C   UNL     1      34.431 -15.991 -22.915  0.00  0.00    +0.143 C 
ATOM     13  C   UNL     1      33.807 -11.777 -23.944  0.00  0.00    +0.022 C 
ATOM     14  C   UNL     1      35.125 -17.050 -20.877  0.00  0.00    +0.074 C 
ATOM     15  C   UNL     1      35.182 -16.827 -23.666  0.00  0.00    +0.191 C 
ATOM     16  C   UNL     1      35.909 -17.944 -21.492  0.00  0.00    +0.110 C 
ATOM     17  C   UNL     1      35.993 -17.881 -22.974  0.00  0.00    +0.236 C 
ENDROOT
BRANCH  16  20
ATOM     18  O   UNL     1      37.701 -18.641 -20.142  0.00  0.00    -0.270 OA
ATOM     19  N   UNL     1      35.976 -20.144 -20.596  0.00  0.00    -0.297 N 
ATOM     20  C   UNL     1      36.628 -18.924 -20.678  0.00  0.00    +0.251 C 
ATOM     21  H   UNL     1      35.121 -20.248 -21.072  0.00  0.00    +0.150 HD
BRANCH  19  22
ATOM     22  C   UNL     1      36.488 -21.272 -19.851  0.00  0.00    +0.119 C 
BRANCH  22  25
ATOM     23  F   UNL     1      37.059 -22.334 -17.292  0.00  0.00    -0.204 F 
ATOM     24  F   UNL     1      32.554 -23.573 -16.546  0.00  0.00    -0.204 F 
ATOM     25  C   UNL     1      35.441 -21.886 -18.969  0.00  0.00    +0.025 C 
ATOM     26  C   UNL     1      35.790 -22.391 -17.716  0.00  0.00    +0.140 C 
ATOM     27  C   UNL     1      34.116 -21.949 -19.403  0.00  0.00    +0.002 C 
ATOM     28  C   UNL     1      34.814 -22.961 -16.898  0.00  0.00    +0.059 C 
ATOM     29  C   UNL     1      33.141 -22.519 -18.584  0.00  0.00    +0.030 C 
ATOM     30  C   UNL     1      33.489 -23.026 -17.332  0.00  0.00    +0.142 C 
ENDBRANCH  22  25
ENDBRANCH  19  22
ENDBRANCH  16  20
BRANCH  15  31
ATOM     31  O   UNL     1      35.268 -16.768 -25.039  0.00  0.00    -0.502 OA
ATOM     32  H   UNL     1      35.103 -15.961 -25.484  0.00  0.00    +0.292 HD
ENDBRANCH  15  31
TORSDOF 4
ENDMDL
MODEL 3
REMARK VINA RESULT:     -12.6      1.464      2.075
REMARK  Name = 54726191
REMARK  4 active torsions:
REMARK  status: ('A' for Active; 'I' for Inactive)
REMARK    1  A    between atoms: C_15  and  O_31
REMARK    2  A    between atoms: C_16  and  C_20
REMARK    3  A    between atoms: N_19  and  C_22
REMARK    4  A    between atoms: C_22  and  C_25
REMARK                            x       y       z     vdW  Elec       q    Type
REMARK                         _______ _______ _______ _____ _____    ______ ____
ROOT
ATOM      1  O   UNL     1      37.243 -23.094 -15.521  0.00  0.00    -0.336 OA
ATOM      2  O   UNL     1      33.453 -23.817 -18.201  0.00  0.00    -0.268 OA
ATOM      3  O   UNL     1      33.848 -20.038 -21.588  0.00  0.00    -0.283 OA
ATOM      4  N   UNL     1      35.174 -23.317 -16.736  0.00  0.00    -0.253 N 
ATOM      5  N   UNL     1      36.210 -21.531 -18.653  0.00  0.00    -0.275 N 
ATOM      6  C   UNL     1      36.312 -22.453 -16.401  0.00  0.00    +0.215 C 
ATOM      7  C   UNL     1      34.587 -24.136 -15.661  0.00  0.00    +0.080 C 
ATOM      8  C   UNL     1      35.663 -24.693 -14.728  0.00  0.00    +0.052 C 
ATOM      9  C   UNL     1      37.100 -22.106 -17.654  0.00  0.00    +0.147 C 
ATOM     10  C   UNL     1      36.648 -23.609 -14.338  0.00  0.00    +0.146 C 
ATOM     11  C   UNL     1      34.442 -23.141 -17.918  0.00  0.00    +0.267 C 
ATOM     12  C   UNL     1      34.924 -22.044 -18.840  0.00  0.00    +0.143 C 
ATOM     13  C   UNL     1      33.531 -23.335 -14.890  0.00  0.00    +0.022 C 
ATOM     14  C   UNL     1      36.665 -20.532 -19.502  0.00  0.00    +0.074 C 
ATOM     15  C   UNL     1      34.090 -21.586 -19.800  0.00  0.00    +0.191 C 
ATOM     16  C   UNL     1      35.950 -19.986 -20.494  0.00  0.00    +0.110 C 
ATOM     17  C   UNL     1      34.570 -20.493 -20.706  0.00  0.00    +0.236 C 
ENDROOT
BRANCH  16  20
ATOM     18  O   UNL     1      37.744 -19.006 -21.652  0.00  0.00    -0.270 OA
ATOM     19  N   UNL     1      35.688 -17.906 -21.612  0.00  0.00    -0.297 N 
ATOM     20  C   UNL     1      36.564 -18.935 -21.305  0.00  0.00    +0.251 C 
ATOM     21  H   UNL     1      34.765 -17.964 -21.275  0.00  0.00    +0.150 HD
BRANCH  19  22
ATOM     22  C   UNL     1      36.059 -16.753 -22.401  0.00  0.00    +0.119 C 
BRANCH  22  25
ATOM     23  F   UNL     1      34.927 -14.236 -23.024  0.00  0.00    -0.204 F 
ATOM     24  F   UNL     1      32.564 -15.958 -26.744  0.00  0.00    -0.204 F 
ATOM     25  C   UNL     1      35.127 -16.540 -23.558  0.00  0.00    +0.025 C 
ATOM     26  C   UNL     1      34.604 -15.271 -23.810  0.00  0.00    +0.140 C 
ATOM     27  C   UNL     1      34.785 -17.612 -24.383  0.00  0.00    +0.002 C 
ATOM     28  C   UNL     1      33.738 -15.075 -24.886  0.00  0.00    +0.059 C 
ATOM     29  C   UNL     1      33.919 -17.415 -25.459  0.00  0.00    +0.030 C 
ATOM     30  C   UNL     1      33.395 -16.147 -25.711  0.00  0.00    +0.142 C 
ENDBRANCH  22  25
ENDBRANCH  19  22
ENDBRANCH  16  20
BRANCH  15  31
ATOM     31  O   UNL     1      32.808 -22.048 -19.996  0.00  0.00    -0.502 OA
ATOM     32  H   UNL     1      32.633 -22.968 -19.976  0.00  0.00    +0.292 HD
ENDBRANCH  15  31
TORSDOF 4
ENDMDL
MODEL 4
REMARK VINA RESULT:     -12.4      5.717     11.446
REMARK  Name = 54726191
REMARK  4 active torsions:
REMARK  status: ('A' for Active; 'I' for Inactive)
REMARK    1  A    between atoms: C_15  and  O_31
REMARK    2  A    between atoms: C_16  and  C_20
REMARK    3  A    between atoms: N_19  and  C_22
REMARK    4  A    between atoms: C_22  and  C_25
REMARK                            x       y       z     vdW  Elec       q    Type
REMARK                         _______ _______ _______ _____ _____    ______ ____
ROOT
ATOM      1  O   UNL     1      31.598  -7.938 -19.429  0.00  0.00    -0.336 OA
ATOM      2  O   UNL     1      31.915  -9.092 -23.971  0.00  0.00    -0.268 OA
ATOM      3  O   UNL     1      33.505 -13.921 -23.700  0.00  0.00    -0.283 OA
ATOM      4  N   UNL     1      31.997  -8.445 -21.750  0.00  0.00    -0.253 N 
ATOM      5  N   UNL     1      32.218 -11.159 -21.027  0.00  0.00    -0.275 N 
ATOM      6  C   UNL     1      32.247  -8.820 -20.353  0.00  0.00    +0.215 C 
ATOM      7  C   UNL     1      32.020  -7.014 -22.098  0.00  0.00    +0.080 C 
ATOM      8  C   UNL     1      31.386  -6.158 -21.001  0.00  0.00    +0.052 C 
ATOM      9  C   UNL     1      31.686 -10.203 -20.067  0.00  0.00    +0.147 C 
ATOM     10  C   UNL     1      31.906  -6.566 -19.636  0.00  0.00    +0.146 C 
ATOM     11  C   UNL     1      32.069  -9.387 -22.786  0.00  0.00    +0.267 C 
ATOM     12  C   UNL     1      32.373 -10.808 -22.371  0.00  0.00    +0.143 C 
ATOM     13  C   UNL     1      33.451  -6.560 -22.413  0.00  0.00    +0.022 C 
ATOM     14  C   UNL     1      32.484 -12.465 -20.639  0.00  0.00    +0.074 C 
ATOM     15  C   UNL     1      32.800 -11.684 -23.307  0.00  0.00    +0.191 C 
ATOM     16  C   UNL     1      32.911 -13.435 -21.457  0.00  0.00    +0.110 C 
ATOM     17  C   UNL     1      33.108 -13.090 -22.889  0.00  0.00    +0.236 C 
ENDROOT
BRANCH  16  20
ATOM     18  O   UNL     1      32.322 -15.314 -20.176  0.00  0.00    -0.270 OA
ATOM     19  N   UNL     1      34.377 -15.297 -21.280  0.00  0.00    -0.297 N 
ATOM     20  C   UNL     1      33.154 -14.766 -20.901  0.00  0.00    +0.251 C 
ATOM     21  H   UNL     1      34.957 -14.759 -21.865  0.00  0.00    +0.150 HD
BRANCH  19  22
ATOM     22  C   UNL     1      34.845 -16.597 -20.858  0.00  0.00    +0.119 C 
BRANCH  22  25
ATOM     23  F   UNL     1      34.839 -19.403 -20.495  0.00  0.00    -0.204 F 
ATOM     24  F   UNL     1      35.090 -20.239 -25.145  0.00  0.00    -0.204 F 
ATOM     25  C   UNL     1      34.910 -17.569 -22.000  0.00  0.00    +0.025 C 
ATOM     26  C   UNL     1      34.904 -18.942 -21.751  0.00  0.00    +0.140 C 
ATOM     27  C   UNL     1      34.977 -17.098 -23.311  0.00  0.00    +0.002 C 
ATOM     28  C   UNL     1      34.964 -19.844 -22.814  0.00  0.00    +0.059 C 
ATOM     29  C   UNL     1      35.038 -18.000 -24.374  0.00  0.00    +0.030 C 
ATOM     30  C   UNL     1      35.032 -19.373 -24.126  0.00  0.00    +0.142 C 
ENDBRANCH  22  25
ENDBRANCH  19  22
ENDBRANCH  16  20
BRANCH  15  31
ATOM     31  O   UNL     1      32.990 -11.367 -24.633  0.00  0.00    -0.502 OA
ATOM     32  H   UNL     1      33.846 -11.423 -25.011  0.00  0.00    +0.292 HD
ENDBRANCH  15  31
TORSDOF 4
ENDMDL
MODEL 5
REMARK VINA RESULT:     -12.2      1.028      1.197
REMARK  Name = 54726191
REMARK  4 active torsions:
REMARK  status: ('A' for Active; 'I' for Inactive)
REMARK    1  A    between atoms: C_15  and  O_31
REMARK    2  A    between atoms: C_16  and  C_20
REMARK    3  A    between atoms: N_19  and  C_22
REMARK    4  A    between atoms: C_22  and  C_25
REMARK                            x       y       z     vdW  Elec       q    Type
REMARK                         _______ _______ _______ _____ _____    ______ ____
ROOT
ATOM      1  O   UNL     1      37.087 -23.217 -15.078  0.00  0.00    -0.336 OA
ATOM      2  O   UNL     1      33.170 -23.912 -17.576  0.00  0.00    -0.268 OA
ATOM      3  O   UNL     1      33.651 -20.413 -21.242  0.00  0.00    -0.283 OA
ATOM      4  N   UNL     1      34.968 -23.407 -16.207  0.00  0.00    -0.253 N 
ATOM      5  N   UNL     1      36.031 -21.826 -18.282  0.00  0.00    -0.275 N 
ATOM      6  C   UNL     1      36.162 -22.588 -15.973  0.00  0.00    +0.215 C 
ATOM      7  C   UNL     1      34.375 -24.113 -15.057  0.00  0.00    +0.080 C 
ATOM      8  C   UNL     1      35.452 -24.662 -14.120  0.00  0.00    +0.052 C 
ATOM      9  C   UNL     1      36.922 -22.377 -17.272  0.00  0.00    +0.147 C 
ATOM     10  C   UNL     1      36.508 -23.611 -13.842  0.00  0.00    +0.146 C 
ATOM     11  C   UNL     1      34.204 -23.275 -17.376  0.00  0.00    +0.267 C 
ATOM     12  C   UNL     1      34.713 -22.276 -18.390  0.00  0.00    +0.143 C 
ATOM     13  C   UNL     1      33.393 -23.199 -14.314  0.00  0.00    +0.022 C 
ATOM     14  C   UNL     1      36.509 -20.917 -19.216  0.00  0.00    +0.074 C 
ATOM     15  C   UNL     1      33.871 -21.840 -19.354  0.00  0.00    +0.191 C 
ATOM     16  C   UNL     1      35.790 -20.403 -20.222  0.00  0.00    +0.110 C 
ATOM     17  C   UNL     1      34.377 -20.844 -20.352  0.00  0.00    +0.236 C 
ENDROOT
BRANCH  16  20
ATOM     18  O   UNL     1      37.601 -19.101 -20.959  0.00  0.00    -0.270 OA
ATOM     19  N   UNL     1      35.592 -19.015 -22.140  0.00  0.00    -0.297 N 
ATOM     20  C   UNL     1      36.431 -19.450 -21.126  0.00  0.00    +0.251 C 
ATOM     21  H   UNL     1      34.673 -19.368 -22.167  0.00  0.00    +0.150 HD
BRANCH  19  22
ATOM     22  C   UNL     1      35.994 -18.071 -23.158  0.00  0.00    +0.119 C 
BRANCH  22  25
ATOM     23  F   UNL     1      35.428 -16.324 -25.310  0.00  0.00    -0.204 F 
ATOM     24  F   UNL     1      33.544 -13.051 -22.459  0.00  0.00    -0.204 F 
ATOM     25  C   UNL     1      35.341 -16.733 -22.973  0.00  0.00    +0.025 C 
ATOM     26  C   UNL     1      35.090 -15.919 -24.078  0.00  0.00    +0.140 C 
ATOM     27  C   UNL     1      34.985 -16.303 -21.695  0.00  0.00    +0.002 C 
ATOM     28  C   UNL     1      34.483 -14.675 -23.904  0.00  0.00    +0.059 C 
ATOM     29  C   UNL     1      34.377 -15.059 -21.521  0.00  0.00    +0.030 C 
ATOM     30  C   UNL     1      34.127 -14.244 -22.625  0.00  0.00    +0.142 C 
ENDBRANCH  22  25
ENDBRANCH  19  22
ENDBRANCH  16  20
BRANCH  15  31
ATOM     31  O   UNL     1      32.560 -22.241 -19.475  0.00  0.00    -0.502 OA
ATOM     32  H   UNL     1      31.874 -21.603 -19.494  0.00  0.00    +0.292 HD
ENDBRANCH  15  31
TORSDOF 4
ENDMDL
MODEL 6
REMARK VINA RESULT:     -12.1      5.176      8.714
REMARK  Name = 54726191
REMARK  4 active torsions:
REMARK  status: ('A' for Active; 'I' for Inactive)
REMARK    1  A    between atoms: C_15  and  O_31
REMARK    2  A    between atoms: C_16  and  C_20
REMARK    3  A    between atoms: N_19  and  C_22
REMARK    4  A    between atoms: C_22  and  C_25
REMARK                            x       y       z     vdW  Elec       q    Type
REMARK                         _______ _______ _______ _____ _____    ______ ____
ROOT
ATOM      1  O   UNL     1      35.328 -17.864 -21.100  0.00  0.00    -0.336 OA
ATOM      2  O   UNL     1      35.392 -16.574 -25.616  0.00  0.00    -0.268 OA
ATOM      3  O   UNL     1      32.663 -12.278 -25.501  0.00  0.00    -0.283 OA
ATOM      4  N   UNL     1      35.153 -17.341 -23.445  0.00  0.00    -0.253 N 
ATOM      5  N   UNL     1      34.184 -14.798 -22.714  0.00  0.00    -0.275 N 
ATOM      6  C   UNL     1      34.624 -17.112 -22.096  0.00  0.00    +0.215 C 
ATOM      7  C   UNL     1      35.525 -18.717 -23.819  0.00  0.00    +0.080 C 
ATOM      8  C   UNL     1      36.184 -19.456 -22.654  0.00  0.00    +0.052 C 
ATOM      9  C   UNL     1      34.789 -15.653 -21.703  0.00  0.00    +0.147 C 
ATOM     10  C   UNL     1      35.393 -19.256 -21.376  0.00  0.00    +0.146 C 
ATOM     11  C   UNL     1      35.004 -16.388 -24.463  0.00  0.00    +0.267 C 
ATOM     12  C   UNL     1      34.311 -15.103 -24.072  0.00  0.00    +0.143 C 
ATOM     13  C   UNL     1      34.305 -19.477 -24.354  0.00  0.00    +0.022 C 
ATOM     14  C   UNL     1      33.558 -13.615 -22.348  0.00  0.00    +0.074 C 
ATOM     15  C   UNL     1      33.823 -14.304 -25.047  0.00  0.00    +0.191 C 
ATOM     16  C   UNL     1      33.031 -12.730 -23.203  0.00  0.00    +0.110 C 
ATOM     17  C   UNL     1      33.129 -13.034 -24.654  0.00  0.00    +0.236 C 
ENDROOT
BRANCH  16  20
ATOM     18  O   UNL     1      31.414 -11.599 -21.928  0.00  0.00    -0.270 OA
ATOM     19  N   UNL     1      33.021 -10.357 -23.075  0.00  0.00    -0.297 N 
ATOM     20  C   UNL     1      32.398 -11.526 -22.666  0.00  0.00    +0.251 C 
ATOM     21  H   UNL     1      33.803 -10.429 -23.668  0.00  0.00    +0.150 HD
BRANCH  19  22
ATOM     22  C   UNL     1      32.580  -9.039 -22.678  0.00  0.00    +0.119 C 
BRANCH  22  25
ATOM     23  F   UNL     1      31.064  -7.097 -24.070  0.00  0.00    -0.204 F 
ATOM     24  F   UNL     1      34.928  -4.998 -25.818  0.00  0.00    -0.204 F 
ATOM     25  C   UNL     1      33.204  -7.961 -23.516  0.00  0.00    +0.025 C 
ATOM     26  C   UNL     1      32.398  -7.034 -24.177  0.00  0.00    +0.140 C 
ATOM     27  C   UNL     1      34.593  -7.887 -23.632  0.00  0.00    +0.002 C 
ATOM     28  C   UNL     1      32.981  -6.033 -24.954  0.00  0.00    +0.059 C 
ATOM     29  C   UNL     1      35.175  -6.886 -24.410  0.00  0.00    +0.030 C 
ATOM     30  C   UNL     1      34.369  -5.959 -25.071  0.00  0.00    +0.142 C 
ENDBRANCH  22  25
ENDBRANCH  19  22
ENDBRANCH  16  20
BRANCH  15  31
ATOM     31  O   UNL     1      33.905 -14.584 -26.392  0.00  0.00    -0.502 OA
ATOM     32  H   UNL     1      33.222 -15.068 -26.813  0.00  0.00    +0.292 HD
ENDBRANCH  15  31
TORSDOF 4
ENDMDL
MODEL 7
REMARK VINA RESULT:     -12.1      4.373      9.611
REMARK  Name = 54726191
REMARK  4 active torsions:
REMARK  status: ('A' for Active; 'I' for Inactive)
REMARK    1  A    between atoms: C_15  and  O_31
REMARK    2  A    between atoms: C_16  and  C_20
REMARK    3  A    between atoms: N_19  and  C_22
REMARK    4  A    between atoms: C_22  and  C_25
REMARK                            x       y       z     vdW  Elec       q    Type
REMARK                         _______ _______ _______ _____ _____    ______ ____
ROOT
ATOM      1  O   UNL     1      32.301 -12.492 -20.485  0.00  0.00    -0.336 OA
ATOM      2  O   UNL     1      32.436 -12.875 -25.165  0.00  0.00    -0.268 OA
ATOM      3  O   UNL     1      35.300 -17.038 -25.778  0.00  0.00    -0.283 OA
ATOM      4  N   UNL     1      32.574 -12.542 -22.878  0.00  0.00    -0.253 N 
ATOM      5  N   UNL     1      33.602 -15.152 -22.618  0.00  0.00    -0.275 N 
ATOM      6  C   UNL     1      33.063 -13.017 -21.579  0.00  0.00    +0.215 C 
ATOM      7  C   UNL     1      32.169 -11.129 -22.992  0.00  0.00    +0.080 C 
ATOM      8  C   UNL     1      31.447 -10.649 -21.733  0.00  0.00    +0.052 C 
ATOM      9  C   UNL     1      32.934 -14.528 -21.485  0.00  0.00    +0.147 C 
ATOM     10  C   UNL     1      32.200 -11.075 -20.488  0.00  0.00    +0.146 C 
ATOM     11  C   UNL     1      32.790 -13.273 -24.056  0.00  0.00    +0.267 C 
ATOM     12  C   UNL     1      33.511 -14.591 -23.895  0.00  0.00    +0.143 C 
ATOM     13  C   UNL     1      33.381 -10.248 -23.320  0.00  0.00    +0.022 C 
ATOM     14  C   UNL     1      34.253 -16.368 -22.464  0.00  0.00    +0.074 C 
ATOM     15  C   UNL     1      34.059 -15.172 -24.985  0.00  0.00    +0.191 C 
ATOM     16  C   UNL     1      34.838 -17.054 -23.453  0.00  0.00    +0.110 C 
ATOM     17  C   UNL     1      34.781 -16.475 -24.820  0.00  0.00    +0.236 C 
ENDROOT
BRANCH  16  20
ATOM     18  O   UNL     1      35.787 -19.127 -24.022  0.00  0.00    -0.270 OA
ATOM     19  N   UNL     1      35.723 -18.490 -21.779  0.00  0.00    -0.297 N 
ATOM     20  C   UNL     1      35.492 -18.323 -23.135  0.00  0.00    +0.251 C 
ATOM     21  H   UNL     1      35.440 -17.773 -21.166  0.00  0.00    +0.150 HD
BRANCH  19  22
ATOM     22  C   UNL     1      36.355 -19.662 -21.217  0.00  0.00    +0.119 C 
BRANCH  22  25
ATOM     23  F   UNL     1      37.166 -21.730 -19.464  0.00  0.00    -0.204 F 
ATOM     24  F   UNL     1      32.706 -22.854 -18.354  0.00  0.00    -0.204 F 
ATOM     25  C   UNL     1      35.383 -20.514 -20.453  0.00  0.00    +0.025 C 
ATOM     26  C   UNL     1      35.851 -21.518 -19.604  0.00  0.00    +0.140 C 
ATOM     27  C   UNL     1      34.012 -20.300 -20.593  0.00  0.00    +0.002 C 
ATOM     28  C   UNL     1      34.946 -22.309 -18.895  0.00  0.00    +0.059 C 
ATOM     29  C   UNL     1      33.107 -21.091 -19.883  0.00  0.00    +0.030 C 
ATOM     30  C   UNL     1      33.574 -22.096 -19.035  0.00  0.00    +0.142 C 
ENDBRANCH  22  25
ENDBRANCH  19  22
ENDBRANCH  16  20
BRANCH  15  31
ATOM     31  O   UNL     1      34.013 -14.635 -26.253  0.00  0.00    -0.502 OA
ATOM     32  H   UNL     1      34.681 -14.042 -26.535  0.00  0.00    +0.292 HD
ENDBRANCH  15  31
TORSDOF 4
ENDMDL
MODEL 8
REMARK VINA RESULT:     -11.6      3.418      4.933
REMARK  Name = 54726191
REMARK  4 active torsions:
REMARK  status: ('A' for Active; 'I' for Inactive)
REMARK    1  A    between atoms: C_15  and  O_31
REMARK    2  A    between atoms: C_16  and  C_20
REMARK    3  A    between atoms: N_19  and  C_22
REMARK    4  A    between atoms: C_22  and  C_25
REMARK                            x       y       z     vdW  Elec       q    Type
REMARK                         _______ _______ _______ _____ _____    ______ ____
ROOT
ATOM      1  O   UNL     1      38.280 -24.449 -13.867  0.00  0.00    -0.336 OA
ATOM      2  O   UNL     1      33.696 -24.665 -12.864  0.00  0.00    -0.268 OA
ATOM      3  O   UNL     1      31.623 -22.731 -17.092  0.00  0.00    -0.283 OA
ATOM      4  N   UNL     1      35.953 -24.331 -13.252  0.00  0.00    -0.253 N 
ATOM      5  N   UNL     1      35.355 -23.832 -15.960  0.00  0.00    -0.275 N 
ATOM      6  C   UNL     1      37.004 -23.872 -14.168  0.00  0.00    +0.215 C 
ATOM      7  C   UNL     1      36.286 -24.451 -11.821  0.00  0.00    +0.080 C 
ATOM      8  C   UNL     1      37.702 -24.989 -11.617  0.00  0.00    +0.052 C 
ATOM      9  C   UNL     1      36.686 -24.294 -15.593  0.00  0.00    +0.147 C 
ATOM     10  C   UNL     1      38.685 -24.265 -12.517  0.00  0.00    +0.146 C 
ATOM     11  C   UNL     1      34.602 -24.334 -13.627  0.00  0.00    +0.267 C 
ATOM     12  C   UNL     1      34.305 -23.882 -15.039  0.00  0.00    +0.143 C 
ATOM     13  C   UNL     1      36.082 -23.109 -11.108  0.00  0.00    +0.022 C 
ATOM     14  C   UNL     1      35.089 -23.429 -17.261  0.00  0.00    +0.074 C 
ATOM     15  C   UNL     1      33.041 -23.526 -15.357  0.00  0.00    +0.191 C 
ATOM     16  C   UNL     1      33.888 -23.051 -17.715  0.00  0.00    +0.110 C 
ATOM     17  C   UNL     1      32.753 -23.071 -16.755  0.00  0.00    +0.236 C 
ENDROOT
BRANCH  16  20
ATOM     18  O   UNL     1      33.808 -23.477 -20.023  0.00  0.00    -0.270 OA
ATOM     19  N   UNL     1      33.592 -21.280 -19.271  0.00  0.00    -0.297 N 
ATOM     20  C   UNL     1      33.762 -22.646 -19.114  0.00  0.00    +0.251 C 
ATOM     21  H   UNL     1      33.571 -20.717 -18.464  0.00  0.00    +0.150 HD
BRANCH  19  22
ATOM     22  C   UNL     1      33.445 -20.638 -20.558  0.00  0.00    +0.119 C 
BRANCH  22  25
ATOM     23  F   UNL     1      33.698 -19.325 -23.051  0.00  0.00    -0.204 F 
ATOM     24  F   UNL     1      38.313 -18.500 -22.411  0.00  0.00    -0.204 F 
ATOM     25  C   UNL     1      34.742 -20.068 -21.053  0.00  0.00    +0.025 C 
ATOM     26  C   UNL     1      34.797 -19.432 -22.294  0.00  0.00    +0.140 C 
ATOM     27  C   UNL     1      35.892 -20.174 -20.271  0.00  0.00    +0.002 C 
ATOM     28  C   UNL     1      36.004 -18.902 -22.752  0.00  0.00    +0.059 C 
ATOM     29  C   UNL     1      37.099 -19.644 -20.730  0.00  0.00    +0.030 C 
ATOM     30  C   UNL     1      37.155 -19.009 -21.971  0.00  0.00    +0.142 C 
ENDBRANCH  22  25
ENDBRANCH  19  22
ENDBRANCH  16  20
BRANCH  15  31
ATOM     31  O   UNL     1      31.988 -23.537 -14.470  0.00  0.00    -0.502 OA
ATOM     32  H   UNL     1      31.513 -22.748 -14.296  0.00  0.00    +0.292 HD
ENDBRANCH  15  31
TORSDOF 4
ENDMDL
MODEL 9
REMARK VINA RESULT:     -11.4      6.297     11.998
REMARK  Name = 54726191
REMARK  4 active torsions:
REMARK  status: ('A' for Active; 'I' for Inactive)
REMARK    1  A    between atoms: C_15  and  O_31
REMARK    2  A    between atoms: C_16  and  C_20
REMARK    3  A    between atoms: N_19  and  C_22
REMARK    4  A    between atoms: C_22  and  C_25
REMARK                            x       y       z     vdW  Elec       q    Type
REMARK                         _______ _______ _______ _____ _____    ______ ____
ROOT
ATOM      1  O   UNL     1      33.442  -6.571 -24.097  0.00  0.00    -0.336 OA
ATOM      2  O   UNL     1      32.123  -8.758 -20.154  0.00  0.00    -0.268 OA
ATOM      3  O   UNL     1      32.067 -13.625 -21.645  0.00  0.00    -0.283 OA
ATOM      4  N   UNL     1      32.528  -7.660 -22.152  0.00  0.00    -0.253 N 
ATOM      5  N   UNL     1      33.281 -10.125 -23.289  0.00  0.00    -0.275 N 
ATOM      6  C   UNL     1      32.815  -7.754 -23.587  0.00  0.00    +0.215 C 
ATOM      7  C   UNL     1      32.013  -6.381 -21.630  0.00  0.00    +0.080 C 
ATOM      8  C   UNL     1      32.684  -5.187 -22.309  0.00  0.00    +0.052 C 
ATOM      9  C   UNL     1      33.791  -8.887 -23.860  0.00  0.00    +0.147 C 
ATOM     10  C   UNL     1      32.724  -5.377 -23.813  0.00  0.00    +0.146 C 
ATOM     11  C   UNL     1      32.413  -8.804 -21.350  0.00  0.00    +0.267 C 
ATOM     12  C   UNL     1      32.646 -10.126 -22.044  0.00  0.00    +0.143 C 
ATOM     13  C   UNL     1      30.486  -6.323 -21.764  0.00  0.00    +0.022 C 
ATOM     14  C   UNL     1      33.509 -11.336 -23.928  0.00  0.00    +0.074 C 
ATOM     15  C   UNL     1      32.217 -11.260 -21.447  0.00  0.00    +0.191 C 
ATOM     16  C   UNL     1      33.141 -12.533 -23.454  0.00  0.00    +0.110 C 
ATOM     17  C   UNL     1      32.443 -12.568 -22.143  0.00  0.00    +0.236 C 
ENDROOT
BRANCH  16  20
ATOM     18  O   UNL     1      32.772 -14.024 -25.231  0.00  0.00    -0.270 OA
ATOM     19  N   UNL     1      34.536 -14.432 -23.761  0.00  0.00    -0.297 N 
ATOM     20  C   UNL     1      33.447 -13.725 -24.244  0.00  0.00    +0.251 C 
ATOM     21  H   UNL     1      34.995 -14.090 -22.960  0.00  0.00    +0.150 HD
BRANCH  19  22
ATOM     22  C   UNL     1      35.032 -15.645 -24.370  0.00  0.00    +0.119 C 
BRANCH  22  25
ATOM     23  F   UNL     1      34.911 -18.341 -25.220  0.00  0.00    -0.204 F 
ATOM     24  F   UNL     1      34.960 -19.984 -20.783  0.00  0.00    -0.204 F 
ATOM     25  C   UNL     1      35.013 -16.803 -23.415  0.00  0.00    +0.025 C 
ATOM     26  C   UNL     1      34.952 -18.109 -23.901  0.00  0.00    +0.140 C 
ATOM     27  C   UNL     1      35.056 -16.571 -22.040  0.00  0.00    +0.002 C 
ATOM     28  C   UNL     1      34.934 -19.184 -23.011  0.00  0.00    +0.059 C 
ATOM     29  C   UNL     1      35.038 -17.646 -21.151  0.00  0.00    +0.030 C 
ATOM     30  C   UNL     1      34.977 -18.952 -21.636  0.00  0.00    +0.142 C 
ENDBRANCH  22  25
ENDBRANCH  19  22
ENDBRANCH  16  20
BRANCH  15  31
ATOM     31  O   UNL     1      31.564 -11.298 -20.235  0.00  0.00    -0.502 OA
ATOM     32  H   UNL     1      31.381 -10.501 -19.777  0.00  0.00    +0.292 HD
ENDBRANCH  15  31
TORSDOF 4
ENDMDL
