MODEL 1
REMARK VINA RESULT:     -12.6      0.000      0.000
REMARK  Name = 6102777
REMARK  2 active torsions:
REMARK  status: ('A' for Active; 'I' for Inactive)
REMARK    1  A    between atoms: C_4  and  S_16
REMARK    2  A    between atoms: S_16  and  N_19
REMARK                            x       y       z     vdW  Elec       q    Type
REMARK                         _______ _______ _______ _____ _____    ______ ____
ROOT
ATOM      1  O   UNL     1      36.857 -20.832 -19.206  0.00  0.00    -0.453 OA
ATOM      2  O   UNL     1      32.985 -22.149 -19.053  0.00  0.00    -0.286 OA
ATOM      3  C   UNL     1      35.131 -22.145 -18.082  0.00  0.00    +0.075 A 
ATOM      4  C   UNL     1      35.734 -23.337 -16.073  0.00  0.00    +0.126 C 
ATOM      5  C   UNL     1      36.434 -21.660 -18.195  0.00  0.00    +0.148 A 
ATOM      6  C   UNL     1      34.776 -22.983 -17.023  0.00  0.00    +0.026 C 
ATOM      7  C   UNL     1      34.613 -20.868 -20.172  0.00  0.00    +0.074 A 
ATOM      8  C   UNL     1      34.141 -21.755 -19.098  0.00  0.00    +0.201 A 
ATOM      9  C   UNL     1      35.946 -20.457 -20.164  0.00  0.00    +0.148 A 
ATOM     10  C   UNL     1      37.039 -22.855 -16.182  0.00  0.00    +0.023 C 
ATOM     11  C   UNL     1      37.389 -22.018 -17.242  0.00  0.00    +0.039 C 
ATOM     12  C   UNL     1      33.746 -20.444 -21.181  0.00  0.00    +0.006 C 
ATOM     13  C   UNL     1      36.417 -19.615 -21.174  0.00  0.00    +0.038 C 
ATOM     14  C   UNL     1      34.222 -19.603 -22.188  0.00  0.00    +0.000 C 
ATOM     15  C   UNL     1      35.554 -19.189 -22.185  0.00  0.00    +0.003 C 
ENDROOT
BRANCH   4  16
ATOM     16  S   UNL     1      35.301 -24.385 -14.745  0.00  0.00    +0.081 S 
ATOM     17  O   UNL     1      33.882 -24.204 -14.467  0.00  0.00    -0.149 OA
ATOM     18  O   UNL     1      35.811 -25.719 -15.036  0.00  0.00    -0.149 OA
BRANCH  16  19
ATOM     19  N   UNL     1      36.211 -23.704 -13.470  0.00  0.00    -0.156 N 
ATOM     20  N   UNL     1      36.831 -23.493 -11.155  0.00  0.00    -0.094 NA
ATOM     21  N   UNL     1      35.221 -25.000 -11.672  0.00  0.00    -0.071 NA
ATOM     22  N   UNL     1      36.346 -24.160 -10.097  0.00  0.00    -0.139 N 
ATOM     23  N   UNL     1      35.389 -25.061 -10.357  0.00  0.00    -0.020 NA
ATOM     24  C   UNL     1      36.095 -24.057 -12.105  0.00  0.00    +0.145 C 
ATOM     25  H   UNL     1      36.870 -23.010 -13.705  0.00  0.00    +0.186 HD
ATOM     26  H   UNL     1      36.674 -23.996  -9.183  0.00  0.00    +0.197 HD
ENDBRANCH  16  19
ENDBRANCH   4  16
TORSDOF 2
ENDMDL
MODEL 2
REMARK VINA RESULT:     -12.6      2.732      4.023
REMARK  Name = 6102777
REMARK  2 active torsions:
REMARK  status: ('A' for Active; 'I' for Inactive)
REMARK    1  A    between atoms: C_4  and  S_16
REMARK    2  A    between atoms: S_16  and  N_19
REMARK                            x       y       z     vdW  Elec       q    Type
REMARK                         _______ _______ _______ _____ _____    ______ ____
ROOT
ATOM      1  O   UNL     1      34.027 -23.124 -16.945  0.00  0.00    -0.453 OA
ATOM      2  O   UNL     1      37.942 -21.954 -16.734  0.00  0.00    -0.286 OA
ATOM      3  C   UNL     1      36.119 -23.017 -15.689  0.00  0.00    +0.075 A 
ATOM      4  C   UNL     1      36.177 -23.998 -13.485  0.00  0.00    +0.126 C 
ATOM      5  C   UNL     1      34.781 -23.386 -15.828  0.00  0.00    +0.148 A 
ATOM      6  C   UNL     1      36.822 -23.321 -14.521  0.00  0.00    +0.026 C 
ATOM      7  C   UNL     1      35.949 -22.033 -17.985  0.00  0.00    +0.074 A 
ATOM      8  C   UNL     1      36.773 -22.304 -16.797  0.00  0.00    +0.201 A 
ATOM      9  C   UNL     1      34.621 -22.459 -17.990  0.00  0.00    +0.148 A 
ATOM     10  C   UNL     1      34.838 -24.369 -13.619  0.00  0.00    +0.023 C 
ATOM     11  C   UNL     1      34.141 -24.064 -14.788  0.00  0.00    +0.039 C 
ATOM     12  C   UNL     1      36.483 -21.361 -19.087  0.00  0.00    +0.006 C 
ATOM     13  C   UNL     1      33.819 -22.212 -19.106  0.00  0.00    +0.038 C 
ATOM     14  C   UNL     1      35.677 -21.117 -20.200  0.00  0.00    +0.000 C 
ATOM     15  C   UNL     1      34.349 -21.541 -20.210  0.00  0.00    +0.003 C 
ENDROOT
BRANCH   4  16
ATOM     16  S   UNL     1      37.045 -24.382 -12.020  0.00  0.00    +0.081 S 
ATOM     17  O   UNL     1      36.837 -23.296 -11.071  0.00  0.00    -0.149 OA
ATOM     18  O   UNL     1      36.705 -25.746 -11.636  0.00  0.00    -0.149 OA
BRANCH  16  19
ATOM     19  N   UNL     1      38.662 -24.343 -12.569  0.00  0.00    -0.156 N 
ATOM     20  N   UNL     1      40.506 -25.187 -13.863  0.00  0.00    -0.094 NA
ATOM     21  N   UNL     1      38.540 -26.304 -13.994  0.00  0.00    -0.071 NA
ATOM     22  N   UNL     1      40.537 -26.254 -14.674  0.00  0.00    -0.139 N 
ATOM     23  N   UNL     1      39.394 -26.946 -14.781  0.00  0.00    -0.020 NA
ATOM     24  C   UNL     1      39.241 -25.268 -13.469  0.00  0.00    +0.145 C 
ATOM     25  H   UNL     1      39.237 -23.617 -12.232  0.00  0.00    +0.186 HD
ATOM     26  H   UNL     1      41.352 -26.514 -15.162  0.00  0.00    +0.197 HD
ENDBRANCH  16  19
ENDBRANCH   4  16
TORSDOF 2
ENDMDL
MODEL 3
REMARK VINA RESULT:     -12.5      5.053      7.388
REMARK  Name = 6102777
REMARK  2 active torsions:
REMARK  status: ('A' for Active; 'I' for Inactive)
REMARK    1  A    between atoms: C_4  and  S_16
REMARK    2  A    between atoms: S_16  and  N_19
REMARK                            x       y       z     vdW  Elec       q    Type
REMARK                         _______ _______ _______ _____ _____    ______ ____
ROOT
ATOM      1  O   UNL     1      36.677 -24.016 -15.916  0.00  0.00    -0.453 OA
ATOM      2  O   UNL     1      35.875 -25.437 -12.163  0.00  0.00    -0.286 OA
ATOM      3  C   UNL     1      35.050 -24.502 -14.160  0.00  0.00    +0.075 A 
ATOM      4  C   UNL     1      32.729 -23.995 -14.586  0.00  0.00    +0.126 C 
ATOM      5  C   UNL     1      35.394 -24.032 -15.428  0.00  0.00    +0.148 A 
ATOM      6  C   UNL     1      33.719 -24.486 -13.735  0.00  0.00    +0.026 C 
ATOM      7  C   UNL     1      37.482 -24.989 -13.825  0.00  0.00    +0.074 A 
ATOM      8  C   UNL     1      36.114 -25.014 -13.284  0.00  0.00    +0.201 A 
ATOM      9  C   UNL     1      37.685 -24.490 -15.112  0.00  0.00    +0.148 A 
ATOM     10  C   UNL     1      33.068 -23.523 -15.854  0.00  0.00    +0.023 C 
ATOM     11  C   UNL     1      34.398 -23.541 -16.276  0.00  0.00    +0.039 C 
ATOM     12  C   UNL     1      38.559 -25.455 -13.067  0.00  0.00    +0.006 C 
ATOM     13  C   UNL     1      38.974 -24.457 -15.646  0.00  0.00    +0.038 C 
ATOM     14  C   UNL     1      39.846 -25.419 -13.605  0.00  0.00    +0.000 C 
ATOM     15  C   UNL     1      40.053 -24.922 -14.892  0.00  0.00    +0.003 C 
ENDROOT
BRANCH   4  16
ATOM     16  S   UNL     1      31.063 -23.970 -14.064  0.00  0.00    +0.081 S 
ATOM     17  O   UNL     1      30.488 -25.286 -14.317  0.00  0.00    -0.149 OA
ATOM     18  O   UNL     1      31.019 -23.414 -12.718  0.00  0.00    -0.149 OA
BRANCH  16  19
ATOM     19  N   UNL     1      30.386 -22.846 -15.156  0.00  0.00    -0.156 N 
ATOM     20  N   UNL     1      28.908 -22.225 -16.951  0.00  0.00    -0.094 NA
ATOM     21  N   UNL     1      28.885 -24.388 -16.280  0.00  0.00    -0.071 NA
ATOM     22  N   UNL     1      28.048 -22.998 -17.628  0.00  0.00    -0.139 N 
ATOM     23  N   UNL     1      28.002 -24.288 -17.265  0.00  0.00    -0.020 NA
ATOM     24  C   UNL     1      29.399 -23.142 -16.126  0.00  0.00    +0.145 C 
ATOM     25  H   UNL     1      30.709 -21.916 -15.108  0.00  0.00    +0.186 HD
ATOM     26  H   UNL     1      27.483 -22.640 -18.351  0.00  0.00    +0.197 HD
ENDBRANCH  16  19
ENDBRANCH   4  16
TORSDOF 2
ENDMDL
MODEL 4
REMARK VINA RESULT:     -12.4      5.376      7.982
REMARK  Name = 6102777
REMARK  2 active torsions:
REMARK  status: ('A' for Active; 'I' for Inactive)
REMARK    1  A    between atoms: C_4  and  S_16
REMARK    2  A    between atoms: S_16  and  N_19
REMARK                            x       y       z     vdW  Elec       q    Type
REMARK                         _______ _______ _______ _____ _____    ______ ____
ROOT
ATOM      1  O   UNL     1      34.112 -16.775 -25.617  0.00  0.00    -0.453 OA
ATOM      2  O   UNL     1      34.837 -14.965 -22.019  0.00  0.00    -0.286 OA
ATOM      3  C   UNL     1      34.747 -16.961 -23.265  0.00  0.00    +0.075 A 
ATOM      4  C   UNL     1      35.233 -19.155 -22.386  0.00  0.00    +0.126 C 
ATOM      5  C   UNL     1      34.484 -17.512 -24.519  0.00  0.00    +0.148 A 
ATOM      6  C   UNL     1      35.121 -17.777 -22.196  0.00  0.00    +0.026 C 
ATOM      7  C   UNL     1      34.222 -14.734 -24.281  0.00  0.00    +0.074 A 
ATOM      8  C   UNL     1      34.621 -15.506 -23.094  0.00  0.00    +0.201 A 
ATOM      9  C   UNL     1      33.990 -15.414 -25.475  0.00  0.00    +0.148 A 
ATOM     10  C   UNL     1      34.971 -19.711 -23.638  0.00  0.00    +0.023 C 
ATOM     11  C   UNL     1      34.597 -18.892 -24.704  0.00  0.00    +0.039 C 
ATOM     12  C   UNL     1      34.078 -13.346 -24.215  0.00  0.00    +0.006 C 
ATOM     13  C   UNL     1      33.610 -14.702 -26.615  0.00  0.00    +0.038 C 
ATOM     14  C   UNL     1      33.698 -12.639 -25.357  0.00  0.00    +0.000 C 
ATOM     15  C   UNL     1      33.465 -13.315 -26.554  0.00  0.00    +0.003 C 
ENDROOT
BRANCH   4  16
ATOM     16  S   UNL     1      35.700 -20.185 -21.056  0.00  0.00    +0.081 S 
ATOM     17  O   UNL     1      36.147 -21.460 -21.604  0.00  0.00    -0.149 OA
ATOM     18  O   UNL     1      36.590 -19.426 -20.187  0.00  0.00    -0.149 OA
BRANCH  16  19
ATOM     19  N   UNL     1      34.204 -20.410 -20.265  0.00  0.00    -0.156 N 
ATOM     20  N   UNL     1      32.633 -21.703 -18.980  0.00  0.00    -0.094 NA
ATOM     21  N   UNL     1      34.618 -22.671 -19.484  0.00  0.00    -0.071 NA
ATOM     22  N   UNL     1      32.770 -22.950 -18.505  0.00  0.00    -0.139 N 
ATOM     23  N   UNL     1      33.929 -23.562 -18.781  0.00  0.00    -0.020 NA
ATOM     24  C   UNL     1      33.812 -21.584 -19.578  0.00  0.00    +0.145 C 
ATOM     25  H   UNL     1      33.562 -19.664 -20.289  0.00  0.00    +0.186 HD
ATOM     26  H   UNL     1      32.059 -23.389 -17.985  0.00  0.00    +0.197 HD
ENDBRANCH  16  19
ENDBRANCH   4  16
TORSDOF 2
ENDMDL
MODEL 5
REMARK VINA RESULT:     -12.3      6.808      9.247
REMARK  Name = 6102777
REMARK  2 active torsions:
REMARK  status: ('A' for Active; 'I' for Inactive)
REMARK    1  A    between atoms: C_4  and  S_16
REMARK    2  A    between atoms: S_16  and  N_19
REMARK                            x       y       z     vdW  Elec       q    Type
REMARK                         _______ _______ _______ _____ _____    ______ ____
ROOT
ATOM      1  O   UNL     1      33.747 -13.122 -23.522  0.00  0.00    -0.453 OA
ATOM      2  O   UNL     1      32.431 -14.532 -19.913  0.00  0.00    -0.286 OA
ATOM      3  C   UNL     1      33.721 -14.901 -21.849  0.00  0.00    +0.075 A 
ATOM      4  C   UNL     1      35.005 -16.897 -22.287  0.00  0.00    +0.126 C 
ATOM      5  C   UNL     1      34.130 -14.360 -23.067  0.00  0.00    +0.148 A 
ATOM      6  C   UNL     1      34.155 -16.169 -21.454  0.00  0.00    +0.026 C 
ATOM      7  C   UNL     1      32.426 -12.788 -21.495  0.00  0.00    +0.074 A 
ATOM      8  C   UNL     1      32.825 -14.111 -20.991  0.00  0.00    +0.201 A 
ATOM      9  C   UNL     1      32.911 -12.370 -22.734  0.00  0.00    +0.148 A 
ATOM     10  C   UNL     1      35.416 -16.360 -23.507  0.00  0.00    +0.023 C 
ATOM     11  C   UNL     1      34.980 -15.094 -23.898  0.00  0.00    +0.039 C 
ATOM     12  C   UNL     1      31.578 -11.965 -20.750  0.00  0.00    +0.006 C 
ATOM     13  C   UNL     1      32.545 -11.118 -23.233  0.00  0.00    +0.038 C 
ATOM     14  C   UNL     1      31.216 -10.715 -21.254  0.00  0.00    +0.000 C 
ATOM     15  C   UNL     1      31.698 -10.292 -22.492  0.00  0.00    +0.003 C 
ENDROOT
BRANCH   4  16
ATOM     16  S   UNL     1      35.553 -18.483 -21.803  0.00  0.00    +0.081 S 
ATOM     17  O   UNL     1      36.091 -19.155 -22.979  0.00  0.00    -0.149 OA
ATOM     18  O   UNL     1      36.387 -18.331 -20.619  0.00  0.00    -0.149 OA
BRANCH  16  19
ATOM     19  N   UNL     1      34.081 -19.225 -21.360  0.00  0.00    -0.156 N 
ATOM     20  N   UNL     1      32.787 -20.954 -20.298  0.00  0.00    -0.094 NA
ATOM     21  N   UNL     1      35.044 -21.110 -20.172  0.00  0.00    -0.071 NA
ATOM     22  N   UNL     1      33.225 -22.027 -19.622  0.00  0.00    -0.139 N 
ATOM     23  N   UNL     1      34.555 -22.160 -19.524  0.00  0.00    -0.020 NA
ATOM     24  C   UNL     1      33.962 -20.422 -20.615  0.00  0.00    +0.145 C 
ATOM     25  H   UNL     1      33.247 -18.784 -21.645  0.00  0.00    +0.186 HD
ATOM     26  H   UNL     1      32.604 -22.679 -19.222  0.00  0.00    +0.197 HD
ENDBRANCH  16  19
ENDBRANCH   4  16
TORSDOF 2
ENDMDL
MODEL 6
REMARK VINA RESULT:     -12.3      4.249      5.741
REMARK  Name = 6102777
REMARK  2 active torsions:
REMARK  status: ('A' for Active; 'I' for Inactive)
REMARK    1  A    between atoms: C_4  and  S_16
REMARK    2  A    between atoms: S_16  and  N_19
REMARK                            x       y       z     vdW  Elec       q    Type
REMARK                         _______ _______ _______ _____ _____    ______ ____
ROOT
ATOM      1  O   UNL     1      33.126 -22.940 -15.923  0.00  0.00    -0.453 OA
ATOM      2  O   UNL     1      31.788 -25.360 -12.906  0.00  0.00    -0.286 OA
ATOM      3  C   UNL     1      33.599 -24.238 -13.909  0.00  0.00    +0.075 A 
ATOM      4  C   UNL     1      35.869 -24.282 -13.090  0.00  0.00    +0.126 C 
ATOM      5  C   UNL     1      33.987 -23.411 -14.963  0.00  0.00    +0.148 A 
ATOM      6  C   UNL     1      34.536 -24.676 -12.969  0.00  0.00    +0.026 C 
ATOM      7  C   UNL     1      31.280 -24.122 -14.844  0.00  0.00    +0.074 A 
ATOM      8  C   UNL     1      32.187 -24.637 -13.807  0.00  0.00    +0.201 A 
ATOM      9  C   UNL     1      31.803 -23.302 -15.844  0.00  0.00    +0.148 A 
ATOM     10  C   UNL     1      36.262 -23.457 -14.143  0.00  0.00    +0.023 C 
ATOM     11  C   UNL     1      35.323 -23.021 -15.079  0.00  0.00    +0.039 C 
ATOM     12  C   UNL     1      29.922 -24.446 -14.830  0.00  0.00    +0.006 C 
ATOM     13  C   UNL     1      30.961 -22.802 -16.839  0.00  0.00    +0.038 C 
ATOM     14  C   UNL     1      29.085 -23.944 -15.827  0.00  0.00    +0.000 C 
ATOM     15  C   UNL     1      29.602 -23.124 -16.829  0.00  0.00    +0.003 C 
ENDROOT
BRANCH   4  16
ATOM     16  S   UNL     1      37.048 -24.825 -11.921  0.00  0.00    +0.081 S 
ATOM     17  O   UNL     1      36.881 -24.035 -10.708  0.00  0.00    -0.149 OA
ATOM     18  O   UNL     1      36.976 -26.278 -11.847  0.00  0.00    -0.149 OA
BRANCH  16  19
ATOM     19  N   UNL     1      38.507 -24.375 -12.685  0.00  0.00    -0.156 N 
ATOM     20  N   UNL     1      40.359 -24.771 -14.171  0.00  0.00    -0.094 NA
ATOM     21  N   UNL     1      38.806 -26.410 -13.976  0.00  0.00    -0.071 NA
ATOM     22  N   UNL     1      40.609 -25.854 -14.922  0.00  0.00    -0.139 N 
ATOM     23  N   UNL     1      39.716 -26.849 -14.837  0.00  0.00    -0.020 NA
ATOM     24  C   UNL     1      39.226 -25.174 -13.606  0.00  0.00    +0.145 C 
ATOM     25  H   UNL     1      38.878 -23.489 -12.467  0.00  0.00    +0.186 HD
ATOM     26  H   UNL     1      41.402 -25.913 -15.501  0.00  0.00    +0.197 HD
ENDBRANCH  16  19
ENDBRANCH   4  16
TORSDOF 2
ENDMDL
MODEL 7
REMARK VINA RESULT:     -12.0      5.711      8.192
REMARK  Name = 6102777
REMARK  2 active torsions:
REMARK  status: ('A' for Active; 'I' for Inactive)
REMARK    1  A    between atoms: C_4  and  S_16
REMARK    2  A    between atoms: S_16  and  N_19
REMARK                            x       y       z     vdW  Elec       q    Type
REMARK                         _______ _______ _______ _____ _____    ______ ____
ROOT
ATOM      1  O   UNL     1      34.320 -14.287 -23.079  0.00  0.00    -0.453 OA
ATOM      2  O   UNL     1      34.315 -17.297 -25.851  0.00  0.00    -0.286 OA
ATOM      3  C   UNL     1      34.625 -16.652 -23.608  0.00  0.00    +0.075 A 
ATOM      4  C   UNL     1      35.217 -18.153 -21.813  0.00  0.00    +0.126 C 
ATOM      5  C   UNL     1      34.609 -15.579 -22.716  0.00  0.00    +0.148 A 
ATOM      6  C   UNL     1      34.928 -17.941 -23.162  0.00  0.00    +0.026 C 
ATOM      7  C   UNL     1      34.009 -15.008 -25.392  0.00  0.00    +0.074 A 
ATOM      8  C   UNL     1      34.316 -16.398 -25.023  0.00  0.00    +0.201 A 
ATOM      9  C   UNL     1      34.029 -14.031 -24.397  0.00  0.00    +0.148 A 
ATOM     10  C   UNL     1      35.203 -17.084 -20.918  0.00  0.00    +0.023 C 
ATOM     11  C   UNL     1      34.900 -15.798 -21.368  0.00  0.00    +0.039 C 
ATOM     12  C   UNL     1      33.703 -14.670 -26.712  0.00  0.00    +0.006 C 
ATOM     13  C   UNL     1      33.741 -12.704 -24.724  0.00  0.00    +0.038 C 
ATOM     14  C   UNL     1      33.416 -13.342 -27.033  0.00  0.00    +0.000 C 
ATOM     15  C   UNL     1      33.435 -12.362 -26.042  0.00  0.00    +0.003 C 
ENDROOT
BRANCH   4  16
ATOM     16  S   UNL     1      35.597 -19.760 -21.245  0.00  0.00    +0.081 S 
ATOM     17  O   UNL     1      35.867 -20.600 -22.406  0.00  0.00    -0.149 OA
ATOM     18  O   UNL     1      36.600 -19.643 -20.195  0.00  0.00    -0.149 OA
BRANCH  16  19
ATOM     19  N   UNL     1      34.110 -20.230 -20.550  0.00  0.00    -0.156 N 
ATOM     20  N   UNL     1      32.724 -21.707 -19.251  0.00  0.00    -0.094 NA
ATOM     21  N   UNL     1      34.906 -22.266 -19.493  0.00  0.00    -0.071 NA
ATOM     22  N   UNL     1      33.070 -22.846 -18.632  0.00  0.00    -0.139 N 
ATOM     23  N   UNL     1      34.353 -23.215 -18.749  0.00  0.00    -0.020 NA
ATOM     24  C   UNL     1      33.906 -21.392 -19.768  0.00  0.00    +0.145 C 
ATOM     25  H   UNL     1      33.333 -19.646 -20.705  0.00  0.00    +0.186 HD
ATOM     26  H   UNL     1      32.418 -23.379 -18.121  0.00  0.00    +0.197 HD
ENDBRANCH  16  19
ENDBRANCH   4  16
TORSDOF 2
ENDMDL
MODEL 8
REMARK VINA RESULT:     -11.8      6.808      9.627
REMARK  Name = 6102777
REMARK  2 active torsions:
REMARK  status: ('A' for Active; 'I' for Inactive)
REMARK    1  A    between atoms: C_4  and  S_16
REMARK    2  A    between atoms: S_16  and  N_19
REMARK                            x       y       z     vdW  Elec       q    Type
REMARK                         _______ _______ _______ _____ _____    ______ ____
ROOT
ATOM      1  O   UNL     1      32.756 -21.857 -18.890  0.00  0.00    -0.453 OA
ATOM      2  O   UNL     1      36.837 -21.854 -18.583  0.00  0.00    -0.286 OA
ATOM      3  C   UNL     1      34.924 -21.127 -19.747  0.00  0.00    +0.075 A 
ATOM      4  C   UNL     1      34.958 -19.724 -21.711  0.00  0.00    +0.126 C 
ATOM      5  C   UNL     1      33.530 -21.171 -19.793  0.00  0.00    +0.148 A 
ATOM      6  C   UNL     1      35.642 -20.405 -20.703  0.00  0.00    +0.026 C 
ATOM      7  C   UNL     1      34.772 -22.582 -17.716  0.00  0.00    +0.074 A 
ATOM      8  C   UNL     1      35.618 -21.854 -18.674  0.00  0.00    +0.201 A 
ATOM      9  C   UNL     1      33.388 -22.542 -17.880  0.00  0.00    +0.148 A 
ATOM     10  C   UNL     1      33.565 -19.766 -21.761  0.00  0.00    +0.023 C 
ATOM     11  C   UNL     1      32.851 -20.488 -20.804  0.00  0.00    +0.039 C 
ATOM     12  C   UNL     1      35.341 -23.301 -16.663  0.00  0.00    +0.006 C 
ATOM     13  C   UNL     1      32.565 -23.225 -16.983  0.00  0.00    +0.038 C 
ATOM     14  C   UNL     1      34.514 -23.983 -15.769  0.00  0.00    +0.000 C 
ATOM     15  C   UNL     1      33.129 -23.945 -15.929  0.00  0.00    +0.003 C 
ENDROOT
BRANCH   4  16
ATOM     16  S   UNL     1      35.847 -18.820 -22.911  0.00  0.00    +0.081 S 
ATOM     17  O   UNL     1      37.202 -18.616 -22.415  0.00  0.00    -0.149 OA
ATOM     18  O   UNL     1      35.644 -19.462 -24.204  0.00  0.00    -0.149 OA
BRANCH  16  19
ATOM     19  N   UNL     1      35.014 -17.329 -22.891  0.00  0.00    -0.156 N 
ATOM     20  N   UNL     1      33.961 -15.448 -23.960  0.00  0.00    -0.094 NA
ATOM     21  N   UNL     1      34.851 -17.046 -25.296  0.00  0.00    -0.071 NA
ATOM     22  N   UNL     1      33.821 -15.205 -25.271  0.00  0.00    -0.139 N 
ATOM     23  N   UNL     1      34.334 -16.124 -26.100  0.00  0.00    -0.020 NA
ATOM     24  C   UNL     1      34.607 -16.605 -24.037  0.00  0.00    +0.145 C 
ATOM     25  H   UNL     1      34.800 -16.942 -22.010  0.00  0.00    +0.186 HD
ATOM     26  H   UNL     1      33.368 -14.397 -25.605  0.00  0.00    +0.197 HD
ENDBRANCH  16  19
ENDBRANCH   4  16
TORSDOF 2
ENDMDL
MODEL 9
REMARK VINA RESULT:     -11.5      3.878      5.949
REMARK  Name = 6102777
REMARK  2 active torsions:
REMARK  status: ('A' for Active; 'I' for Inactive)
REMARK    1  A    between atoms: C_4  and  S_16
REMARK    2  A    between atoms: S_16  and  N_19
REMARK                            x       y       z     vdW  Elec       q    Type
REMARK                         _______ _______ _______ _____ _____    ______ ____
ROOT
ATOM      1  O   UNL     1      31.845 -23.158 -17.238  0.00  0.00    -0.453 OA
ATOM      2  O   UNL     1      32.651 -24.870 -13.610  0.00  0.00    -0.286 OA
ATOM      3  C   UNL     1      33.474 -23.773 -15.525  0.00  0.00    +0.075 A 
ATOM      4  C   UNL     1      35.792 -23.221 -15.905  0.00  0.00    +0.126 C 
ATOM      5  C   UNL     1      33.128 -23.206 -16.751  0.00  0.00    +0.148 A 
ATOM      6  C   UNL     1      34.803 -23.783 -15.097  0.00  0.00    +0.026 C 
ATOM      7  C   UNL     1      31.043 -24.296 -15.232  0.00  0.00    +0.074 A 
ATOM      8  C   UNL     1      32.411 -24.358 -14.693  0.00  0.00    +0.201 A 
ATOM      9  C   UNL     1      30.839 -23.699 -16.475  0.00  0.00    +0.148 A 
ATOM     10  C   UNL     1      35.452 -22.654 -17.133  0.00  0.00    +0.023 C 
ATOM     11  C   UNL     1      34.122 -22.645 -17.557  0.00  0.00    +0.039 C 
ATOM     12  C   UNL     1      29.968 -24.825 -14.513  0.00  0.00    +0.006 C 
ATOM     13  C   UNL     1      29.550 -23.629 -17.006  0.00  0.00    +0.038 C 
ATOM     14  C   UNL     1      28.682 -24.752 -15.049  0.00  0.00    +0.000 C 
ATOM     15  C   UNL     1      28.472 -24.156 -16.292  0.00  0.00    +0.003 C 
ENDROOT
BRANCH   4  16
ATOM     16  S   UNL     1      37.457 -23.229 -15.380  0.00  0.00    +0.081 S 
ATOM     17  O   UNL     1      38.270 -22.643 -16.439  0.00  0.00    -0.149 OA
ATOM     18  O   UNL     1      37.511 -22.665 -14.038  0.00  0.00    -0.149 OA
BRANCH  16  19
ATOM     19  N   UNL     1      37.774 -24.905 -15.297  0.00  0.00    -0.156 N 
ATOM     20  N   UNL     1      39.205 -26.798 -14.898  0.00  0.00    -0.094 NA
ATOM     21  N   UNL     1      40.105 -24.735 -14.639  0.00  0.00    -0.071 NA
ATOM     22  N   UNL     1      40.496 -26.806 -14.534  0.00  0.00    -0.139 N 
ATOM     23  N   UNL     1      41.069 -25.605 -14.370  0.00  0.00    -0.020 NA
ATOM     24  C   UNL     1      39.017 -25.484 -14.948  0.00  0.00    +0.145 C 
ATOM     25  H   UNL     1      37.032 -25.517 -15.508  0.00  0.00    +0.186 HD
ATOM     26  H   UNL     1      40.993 -27.644 -14.395  0.00  0.00    +0.197 HD
ENDBRANCH  16  19
ENDBRANCH   4  16
TORSDOF 2
ENDMDL
