MODEL 1
REMARK VINA RESULT:     -12.9      0.000      0.000
REMARK  Name = 3168
REMARK  6 active torsions:
REMARK  status: ('A' for Active; 'I' for Inactive)
REMARK    1  A    between atoms: N_1  and  C_19
REMARK    2  A    between atoms: C_5  and  N_9
REMARK    3  A    between atoms: C_19  and  C_20
REMARK    4  A    between atoms: C_20  and  C_21
REMARK    5  A    between atoms: C_21  and  C_23
REMARK    6  A    between atoms: C_23  and  C_25
REMARK                            x       y       z     vdW  Elec       q    Type
REMARK                         _______ _______ _______ _____ _____    ______ ____
ROOT
ATOM      1  N   UNL     1      34.173 -16.044 -23.781  0.00  0.00    +0.390 N 
ATOM      2  C   UNL     1      34.957 -17.091 -24.447  0.00  0.00    -0.071 C 
ATOM      3  C   UNL     1      35.010 -18.354 -23.573  0.00  0.00    +0.021 C 
ATOM      4  C   UNL     1      34.808 -15.640 -22.515  0.00  0.00    -0.049 C 
ATOM      5  C   UNL     1      35.310 -18.049 -22.132  0.00  0.00    +0.037 C 
ATOM      6  C   UNL     1      35.231 -16.798 -21.654  0.00  0.00    -0.036 C 
ATOM      7  H   UNL     1      33.253 -16.430 -23.570  0.00  0.00    -0.079 HD
ENDROOT
BRANCH   5   9
ATOM      8  O   UNL     1      38.062 -18.870 -21.292  0.00  0.00    -0.246 OA
ATOM      9  N   UNL     1      35.681 -19.095 -21.338  0.00  0.00    -0.263 N 
ATOM     10  N   UNL     1      36.922 -20.587 -20.142  0.00  0.00    -0.305 N 
ATOM     11  C   UNL     1      34.811 -20.024 -20.737  0.00  0.00    +0.083 A 
ATOM     12  C   UNL     1      37.025 -19.436 -20.972  0.00  0.00    +0.332 A 
ATOM     13  C   UNL     1      35.579 -20.931 -20.009  0.00  0.00    +0.076 A 
ATOM     14  C   UNL     1      33.435 -20.129 -20.782  0.00  0.00    +0.019 C 
ATOM     15  C   UNL     1      35.023 -21.973 -19.299  0.00  0.00    +0.019 C 
ATOM     16  C   UNL     1      32.846 -21.180 -20.070  0.00  0.00    +0.002 C 
ATOM     17  C   UNL     1      33.632 -22.092 -19.336  0.00  0.00    +0.002 C 
ATOM     18  H   UNL     1      37.678 -21.063 -19.728  0.00  0.00    +0.170 HD
ENDBRANCH   5   9
BRANCH   1  19
ATOM     19  C   UNL     1      33.987 -14.890 -24.658  0.00  0.00    -0.076 C 
BRANCH  19  20
ATOM     20  C   UNL     1      33.869 -13.610 -23.829  0.00  0.00    -0.015 C 
BRANCH  20  21
ATOM     21  C   UNL     1      32.423 -13.310 -23.425  0.00  0.00    +0.067 C 
BRANCH  21  23
ATOM     22  O   UNL     1      32.260 -13.839 -21.075  0.00  0.00    -0.291 OA
ATOM     23  C   UNL     1      32.265 -12.974 -21.949  0.00  0.00    +0.173 C 
BRANCH  23  25
ATOM     24  F   UNL     1      31.773  -7.614 -20.465  0.00  0.00    -0.204 F 
ATOM     25  C   UNL     1      32.132 -11.543 -21.552  0.00  0.00    +0.035 C 
ATOM     26  C   UNL     1      32.263 -10.575 -22.522  0.00  0.00    +0.005 C 
ATOM     27  C   UNL     1      31.885 -11.243 -20.232  0.00  0.00    +0.005 C 
ATOM     28  C   UNL     1      32.140  -9.235 -22.151  0.00  0.00    +0.030 C 
ATOM     29  C   UNL     1      31.763  -9.904 -19.860  0.00  0.00    +0.030 C 
ATOM     30  C   UNL     1      31.891  -8.899 -20.821  0.00  0.00    +0.140 C 
ENDBRANCH  23  25
ENDBRANCH  21  23
ENDBRANCH  20  21
ENDBRANCH  19  20
ENDBRANCH   1  19
TORSDOF 6
ENDMDL
MODEL 2
REMARK VINA RESULT:     -12.3      3.307      5.249
REMARK  Name = 3168
REMARK  6 active torsions:
REMARK  status: ('A' for Active; 'I' for Inactive)
REMARK    1  A    between atoms: N_1  and  C_19
REMARK    2  A    between atoms: C_5  and  N_9
REMARK    3  A    between atoms: C_19  and  C_20
REMARK    4  A    between atoms: C_20  and  C_21
REMARK    5  A    between atoms: C_21  and  C_23
REMARK    6  A    between atoms: C_23  and  C_25
REMARK                            x       y       z     vdW  Elec       q    Type
REMARK                         _______ _______ _______ _____ _____    ______ ____
ROOT
ATOM      1  N   UNL     1      31.915 -12.358 -22.437  0.00  0.00    +0.390 N 
ATOM      2  C   UNL     1      33.049 -12.092 -23.330  0.00  0.00    -0.071 C 
ATOM      3  C   UNL     1      33.420 -13.361 -24.112  0.00  0.00    +0.021 C 
ATOM      4  C   UNL     1      32.268 -13.372 -21.429  0.00  0.00    -0.049 C 
ATOM      5  C   UNL     1      33.473 -14.584 -23.240  0.00  0.00    +0.037 C 
ATOM      6  C   UNL     1      32.957 -14.580 -22.002  0.00  0.00    -0.036 C 
ATOM      7  H   UNL     1      31.150 -12.724 -23.004  0.00  0.00    -0.079 HD
ENDROOT
BRANCH   5   9
ATOM      8  O   UNL     1      33.619 -15.477 -26.092  0.00  0.00    -0.246 OA
ATOM      9  N   UNL     1      34.083 -15.691 -23.756  0.00  0.00    -0.263 N 
ATOM     10  N   UNL     1      34.858 -17.276 -25.199  0.00  0.00    -0.305 N 
ATOM     11  C   UNL     1      34.789 -16.662 -23.020  0.00  0.00    +0.083 A 
ATOM     12  C   UNL     1      34.116 -16.064 -25.140  0.00  0.00    +0.332 A 
ATOM     13  C   UNL     1      35.258 -17.626 -23.911  0.00  0.00    +0.076 A 
ATOM     14  C   UNL     1      35.041 -16.759 -21.667  0.00  0.00    +0.019 C 
ATOM     15  C   UNL     1      35.991 -18.719 -23.504  0.00  0.00    +0.019 C 
ATOM     16  C   UNL     1      35.784 -17.860 -21.228  0.00  0.00    +0.002 C 
ATOM     17  C   UNL     1      36.254 -18.830 -22.137  0.00  0.00    +0.002 C 
ATOM     18  H   UNL     1      35.057 -17.787 -26.018  0.00  0.00    +0.170 HD
ENDBRANCH   5   9
BRANCH   1  19
ATOM     19  C   UNL     1      31.452 -11.129 -21.794  0.00  0.00    -0.076 C 
BRANCH  19  20
ATOM     20  C   UNL     1      31.951  -9.908 -22.569  0.00  0.00    -0.015 C 
BRANCH  20  21
ATOM     21  C   UNL     1      31.666  -8.596 -21.832  0.00  0.00    +0.067 C 
BRANCH  21  23
ATOM     22  O   UNL     1      33.427  -7.475 -20.621  0.00  0.00    -0.291 OA
ATOM     23  C   UNL     1      32.888  -7.698 -21.702  0.00  0.00    +0.173 C 
BRANCH  23  25
ATOM     24  F   UNL     1      35.018  -5.406 -26.326  0.00  0.00    -0.204 F 
ATOM     25  C   UNL     1      33.458  -7.085 -22.936  0.00  0.00    +0.035 C 
ATOM     26  C   UNL     1      32.670  -6.228 -23.672  0.00  0.00    +0.005 C 
ATOM     27  C   UNL     1      34.749  -7.400 -23.295  0.00  0.00    +0.005 C 
ATOM     28  C   UNL     1      33.202  -5.656 -24.827  0.00  0.00    +0.030 C 
ATOM     29  C   UNL     1      35.281  -6.828 -24.451  0.00  0.00    +0.030 C 
ATOM     30  C   UNL     1      34.507  -5.955 -25.217  0.00  0.00    +0.140 C 
ENDBRANCH  23  25
ENDBRANCH  21  23
ENDBRANCH  20  21
ENDBRANCH  19  20
ENDBRANCH   1  19
TORSDOF 6
ENDMDL
MODEL 3
REMARK VINA RESULT:     -12.2      4.398      9.694
REMARK  Name = 3168
REMARK  6 active torsions:
REMARK  status: ('A' for Active; 'I' for Inactive)
REMARK    1  A    between atoms: N_1  and  C_19
REMARK    2  A    between atoms: C_5  and  N_9
REMARK    3  A    between atoms: C_19  and  C_20
REMARK    4  A    between atoms: C_20  and  C_21
REMARK    5  A    between atoms: C_21  and  C_23
REMARK    6  A    between atoms: C_23  and  C_25
REMARK                            x       y       z     vdW  Elec       q    Type
REMARK                         _______ _______ _______ _____ _____    ______ ____
ROOT
ATOM      1  N   UNL     1      35.315 -21.195 -19.241  0.00  0.00    +0.390 N 
ATOM      2  C   UNL     1      36.448 -21.143 -20.173  0.00  0.00    -0.071 C 
ATOM      3  C   UNL     1      36.442 -19.814 -20.945  0.00  0.00    +0.021 C 
ATOM      4  C   UNL     1      34.036 -21.150 -19.970  0.00  0.00    -0.049 C 
ATOM      5  C   UNL     1      35.078 -19.451 -21.462  0.00  0.00    +0.037 C 
ATOM      6  C   UNL     1      33.976 -20.078 -21.023  0.00  0.00    -0.036 C 
ATOM      7  H   UNL     1      35.368 -20.375 -18.637  0.00  0.00    -0.079 HD
ENDROOT
BRANCH   5   9
ATOM      8  O   UNL     1      35.191 -19.718 -24.440  0.00  0.00    -0.246 OA
ATOM      9  N   UNL     1      35.012 -18.469 -22.408  0.00  0.00    -0.263 N 
ATOM     10  N   UNL     1      34.964 -17.369 -24.404  0.00  0.00    -0.305 N 
ATOM     11  C   UNL     1      34.871 -17.091 -22.158  0.00  0.00    +0.083 A 
ATOM     12  C   UNL     1      35.072 -18.666 -23.827  0.00  0.00    +0.332 A 
ATOM     13  C   UNL     1      34.843 -16.428 -23.384  0.00  0.00    +0.076 A 
ATOM     14  C   UNL     1      34.770 -16.397 -20.970  0.00  0.00    +0.019 C 
ATOM     15  C   UNL     1      34.714 -15.060 -23.485  0.00  0.00    +0.019 C 
ATOM     16  C   UNL     1      34.638 -15.006 -21.046  0.00  0.00    +0.002 C 
ATOM     17  C   UNL     1      34.611 -14.345 -22.291  0.00  0.00    +0.002 C 
ATOM     18  H   UNL     1      34.972 -17.169 -25.368  0.00  0.00    +0.170 HD
ENDBRANCH   5   9
BRANCH   1  19
ATOM     19  C   UNL     1      35.386 -22.384 -18.394  0.00  0.00    -0.076 C 
BRANCH  19  20
ATOM     20  C   UNL     1      36.395 -22.168 -17.264  0.00  0.00    -0.015 C 
BRANCH  20  21
ATOM     21  C   UNL     1      35.789 -22.441 -15.884  0.00  0.00    +0.067 C 
BRANCH  21  23
ATOM     22  O   UNL     1      35.297 -24.801 -16.003  0.00  0.00    -0.291 OA
ATOM     23  C   UNL     1      34.874 -23.657 -15.856  0.00  0.00    +0.173 C 
BRANCH  23  25
ATOM     24  F   UNL     1      29.416 -22.869 -14.982  0.00  0.00    -0.204 F 
ATOM     25  C   UNL     1      33.416 -23.448 -15.622  0.00  0.00    +0.035 C 
ATOM     26  C   UNL     1      32.594 -23.257 -16.709  0.00  0.00    +0.005 C 
ATOM     27  C   UNL     1      32.947 -23.452 -14.328  0.00  0.00    +0.005 C 
ATOM     28  C   UNL     1      31.230 -23.060 -16.491  0.00  0.00    +0.030 C 
ATOM     29  C   UNL     1      31.583 -23.254 -14.109  0.00  0.00    +0.030 C 
ATOM     30  C   UNL     1      30.725 -23.058 -15.191  0.00  0.00    +0.140 C 
ENDBRANCH  23  25
ENDBRANCH  21  23
ENDBRANCH  20  21
ENDBRANCH  19  20
ENDBRANCH   1  19
TORSDOF 6
ENDMDL
MODEL 4
REMARK VINA RESULT:     -12.2      5.673     11.164
REMARK  Name = 3168
REMARK  6 active torsions:
REMARK  status: ('A' for Active; 'I' for Inactive)
REMARK    1  A    between atoms: N_1  and  C_19
REMARK    2  A    between atoms: C_5  and  N_9
REMARK    3  A    between atoms: C_19  and  C_20
REMARK    4  A    between atoms: C_20  and  C_21
REMARK    5  A    between atoms: C_21  and  C_23
REMARK    6  A    between atoms: C_23  and  C_25
REMARK                            x       y       z     vdW  Elec       q    Type
REMARK                         _______ _______ _______ _____ _____    ______ ____
ROOT
ATOM      1  N   UNL     1      35.469 -20.957 -19.340  0.00  0.00    +0.390 N 
ATOM      2  C   UNL     1      36.605 -20.833 -20.261  0.00  0.00    -0.071 C 
ATOM      3  C   UNL     1      36.507 -19.519 -21.053  0.00  0.00    +0.021 C 
ATOM      4  C   UNL     1      34.198 -21.018 -20.080  0.00  0.00    -0.049 C 
ATOM      5  C   UNL     1      35.125 -19.267 -21.588  0.00  0.00    +0.037 C 
ATOM      6  C   UNL     1      34.069 -19.969 -21.150  0.00  0.00    -0.036 C 
ATOM      7  H   UNL     1      35.455 -20.127 -18.748  0.00  0.00    -0.079 HD
ENDROOT
BRANCH   5   9
ATOM      8  O   UNL     1      35.101 -19.594 -24.562  0.00  0.00    -0.246 OA
ATOM      9  N   UNL     1      34.995 -18.307 -22.549  0.00  0.00    -0.263 N 
ATOM     10  N   UNL     1      34.832 -17.249 -24.562  0.00  0.00    -0.305 N 
ATOM     11  C   UNL     1      34.841 -16.926 -22.320  0.00  0.00    +0.083 A 
ATOM     12  C   UNL     1      34.992 -18.531 -23.965  0.00  0.00    +0.332 A 
ATOM     13  C   UNL     1      34.742 -16.289 -23.556  0.00  0.00    +0.076 A 
ATOM     14  C   UNL     1      34.783 -16.210 -21.142  0.00  0.00    +0.019 C 
ATOM     15  C   UNL     1      34.583 -14.927 -23.678  0.00  0.00    +0.019 C 
ATOM     16  C   UNL     1      34.622 -14.823 -21.240  0.00  0.00    +0.002 C 
ATOM     17  C   UNL     1      34.523 -14.189 -22.495  0.00  0.00    +0.002 C 
ATOM     18  H   UNL     1      34.791 -17.069 -25.529  0.00  0.00    +0.170 HD
ENDBRANCH   5   9
BRANCH   1  19
ATOM     19  C   UNL     1      35.620 -22.126 -18.474  0.00  0.00    -0.076 C 
BRANCH  19  20
ATOM     20  C   UNL     1      36.888 -21.995 -17.627  0.00  0.00    -0.015 C 
BRANCH  20  21
ATOM     21  C   UNL     1      36.609 -22.173 -16.132  0.00  0.00    +0.067 C 
BRANCH  21  23
ATOM     22  O   UNL     1      35.378 -24.224 -15.808  0.00  0.00    -0.291 OA
ATOM     23  C   UNL     1      36.449 -23.629 -15.716  0.00  0.00    +0.173 C 
BRANCH  23  25
ATOM     24  F   UNL     1      40.913 -26.359 -13.769  0.00  0.00    -0.204 F 
ATOM     25  C   UNL     1      37.641 -24.358 -15.198  0.00  0.00    +0.035 C 
ATOM     26  C   UNL     1      37.474 -25.236 -14.150  0.00  0.00    +0.005 C 
ATOM     27  C   UNL     1      38.865 -24.127 -15.784  0.00  0.00    +0.005 C 
ATOM     28  C   UNL     1      38.589 -25.918 -13.663  0.00  0.00    +0.030 C 
ATOM     29  C   UNL     1      39.981 -24.808 -15.297  0.00  0.00    +0.030 C 
ATOM     30  C   UNL     1      39.842 -25.704 -14.236  0.00  0.00    +0.140 C 
ENDBRANCH  23  25
ENDBRANCH  21  23
ENDBRANCH  20  21
ENDBRANCH  19  20
ENDBRANCH   1  19
TORSDOF 6
ENDMDL
MODEL 5
REMARK VINA RESULT:     -12.2      1.656      2.338
REMARK  Name = 3168
REMARK  6 active torsions:
REMARK  status: ('A' for Active; 'I' for Inactive)
REMARK    1  A    between atoms: N_1  and  C_19
REMARK    2  A    between atoms: C_5  and  N_9
REMARK    3  A    between atoms: C_19  and  C_20
REMARK    4  A    between atoms: C_20  and  C_21
REMARK    5  A    between atoms: C_21  and  C_23
REMARK    6  A    between atoms: C_23  and  C_25
REMARK                            x       y       z     vdW  Elec       q    Type
REMARK                         _______ _______ _______ _____ _____    ______ ____
ROOT
ATOM      1  N   UNL     1      34.726 -15.291 -23.765  0.00  0.00    +0.390 N 
ATOM      2  C   UNL     1      34.143 -15.388 -22.421  0.00  0.00    -0.071 C 
ATOM      3  C   UNL     1      34.942 -16.383 -21.565  0.00  0.00    +0.021 C 
ATOM      4  C   UNL     1      34.652 -16.586 -24.463  0.00  0.00    -0.049 C 
ATOM      5  C   UNL     1      35.256 -17.657 -22.298  0.00  0.00    +0.037 C 
ATOM      6  C   UNL     1      35.106 -17.751 -23.628  0.00  0.00    -0.036 C 
ATOM      7  H   UNL     1      35.709 -15.040 -23.661  0.00  0.00    -0.079 HD
ENDROOT
BRANCH   5   9
ATOM      8  O   UNL     1      38.056 -18.430 -21.582  0.00  0.00    -0.246 OA
ATOM      9  N   UNL     1      35.682 -18.717 -21.551  0.00  0.00    -0.263 N 
ATOM     10  N   UNL     1      37.003 -20.211 -20.447  0.00  0.00    -0.305 N 
ATOM     11  C   UNL     1      34.858 -19.687 -20.949  0.00  0.00    +0.083 A 
ATOM     12  C   UNL     1      37.047 -19.033 -21.243  0.00  0.00    +0.332 A 
ATOM     13  C   UNL     1      35.675 -20.595 -20.278  0.00  0.00    +0.076 A 
ATOM     14  C   UNL     1      33.485 -19.827 -20.949  0.00  0.00    +0.019 C 
ATOM     15  C   UNL     1      35.172 -21.673 -19.582  0.00  0.00    +0.019 C 
ATOM     16  C   UNL     1      32.949 -20.914 -20.249  0.00  0.00    +0.002 C 
ATOM     17  C   UNL     1      33.784 -21.827 -19.573  0.00  0.00    +0.002 C 
ATOM     18  H   UNL     1      37.786 -20.680 -20.075  0.00  0.00    +0.170 HD
ENDBRANCH   5   9
BRANCH   1  19
ATOM     19  C   UNL     1      34.073 -14.243 -24.547  0.00  0.00    -0.076 C 
BRANCH  19  20
ATOM     20  C   UNL     1      33.273 -13.319 -23.627  0.00  0.00    -0.015 C 
BRANCH  20  21
ATOM     21  C   UNL     1      33.732 -11.861 -23.727  0.00  0.00    +0.067 C 
BRANCH  21  23
ATOM     22  O   UNL     1      31.873 -11.239 -22.319  0.00  0.00    -0.291 OA
ATOM     23  C   UNL     1      32.764 -10.878 -23.084  0.00  0.00    +0.173 C 
BRANCH  23  25
ATOM     24  F   UNL     1      33.339  -5.439 -24.206  0.00  0.00    -0.204 F 
ATOM     25  C   UNL     1      32.918  -9.425 -23.382  0.00  0.00    +0.035 C 
ATOM     26  C   UNL     1      31.785  -8.667 -23.577  0.00  0.00    +0.005 C 
ATOM     27  C   UNL     1      34.187  -8.896 -23.453  0.00  0.00    +0.005 C 
ATOM     28  C   UNL     1      31.929  -7.308 -23.858  0.00  0.00    +0.030 C 
ATOM     29  C   UNL     1      34.331  -7.537 -23.735  0.00  0.00    +0.030 C 
ATOM     30  C   UNL     1      33.201  -6.743 -23.937  0.00  0.00    +0.140 C 
ENDBRANCH  23  25
ENDBRANCH  21  23
ENDBRANCH  20  21
ENDBRANCH  19  20
ENDBRANCH   1  19
TORSDOF 6
ENDMDL
MODEL 6
REMARK VINA RESULT:     -12.0      4.168     10.370
REMARK  Name = 3168
REMARK  6 active torsions:
REMARK  status: ('A' for Active; 'I' for Inactive)
REMARK    1  A    between atoms: N_1  and  C_19
REMARK    2  A    between atoms: C_5  and  N_9
REMARK    3  A    between atoms: C_19  and  C_20
REMARK    4  A    between atoms: C_20  and  C_21
REMARK    5  A    between atoms: C_21  and  C_23
REMARK    6  A    between atoms: C_23  and  C_25
REMARK                            x       y       z     vdW  Elec       q    Type
REMARK                         _______ _______ _______ _____ _____    ______ ____
ROOT
ATOM      1  N   UNL     1      32.193 -12.707 -23.031  0.00  0.00    +0.390 N 
ATOM      2  C   UNL     1      31.986 -12.547 -21.587  0.00  0.00    -0.071 C 
ATOM      3  C   UNL     1      31.476 -11.131 -21.275  0.00  0.00    +0.021 C 
ATOM      4  C   UNL     1      33.229 -11.781 -23.518  0.00  0.00    -0.049 C 
ATOM      5  C   UNL     1      32.243 -10.066 -22.007  0.00  0.00    +0.037 C 
ATOM      6  C   UNL     1      33.059 -10.370 -23.026  0.00  0.00    -0.036 C 
ATOM      7  H   UNL     1      31.315 -12.479 -23.499  0.00  0.00    -0.079 HD
ENDROOT
BRANCH   5   9
ATOM      8  O   UNL     1      32.415  -8.994 -19.218  0.00  0.00    -0.246 OA
ATOM      9  N   UNL     1      32.085  -8.779 -21.577  0.00  0.00    -0.263 N 
ATOM     10  N   UNL     1      31.947  -6.927 -20.257  0.00  0.00    -0.305 N 
ATOM     11  C   UNL     1      31.802  -7.667 -22.392  0.00  0.00    +0.083 A 
ATOM     12  C   UNL     1      32.181  -8.330 -20.219  0.00  0.00    +0.332 A 
ATOM     13  C   UNL     1      31.719  -6.540 -21.575  0.00  0.00    +0.076 A 
ATOM     14  C   UNL     1      31.616  -7.574 -23.756  0.00  0.00    +0.019 C 
ATOM     15  C   UNL     1      31.451  -5.283 -22.070  0.00  0.00    +0.019 C 
ATOM     16  C   UNL     1      31.342  -6.307 -24.284  0.00  0.00    +0.002 C 
ATOM     17  C   UNL     1      31.261  -5.174 -23.449  0.00  0.00    +0.002 C 
ATOM     18  H   UNL     1      31.946  -6.325 -19.476  0.00  0.00    +0.170 HD
ENDBRANCH   5   9
BRANCH   1  19
ATOM     19  C   UNL     1      32.535 -14.089 -23.364  0.00  0.00    -0.076 C 
BRANCH  19  20
ATOM     20  C   UNL     1      33.416 -14.128 -24.614  0.00  0.00    -0.015 C 
BRANCH  20  21
ATOM     21  C   UNL     1      34.782 -14.766 -24.343  0.00  0.00    +0.067 C 
BRANCH  21  23
ATOM     22  O   UNL     1      34.853 -16.590 -25.921  0.00  0.00    -0.291 OA
ATOM     23  C   UNL     1      34.855 -16.231 -24.746  0.00  0.00    +0.173 C 
BRANCH  23  25
ATOM     24  F   UNL     1      35.228 -20.093 -20.731  0.00  0.00    -0.204 F 
ATOM     25  C   UNL     1      34.953 -17.263 -23.674  0.00  0.00    +0.035 C 
ATOM     26  C   UNL     1      35.117 -16.848 -22.372  0.00  0.00    +0.005 C 
ATOM     27  C   UNL     1      34.878 -18.592 -24.026  0.00  0.00    +0.005 C 
ATOM     28  C   UNL     1      35.211 -17.813 -21.368  0.00  0.00    +0.030 C 
ATOM     29  C   UNL     1      34.972 -19.557 -23.023  0.00  0.00    +0.030 C 
ATOM     30  C   UNL     1      35.138 -19.167 -21.694  0.00  0.00    +0.140 C 
ENDBRANCH  23  25
ENDBRANCH  21  23
ENDBRANCH  20  21
ENDBRANCH  19  20
ENDBRANCH   1  19
TORSDOF 6
ENDMDL
MODEL 7
REMARK VINA RESULT:     -11.9      4.303      7.292
REMARK  Name = 3168
REMARK  6 active torsions:
REMARK  status: ('A' for Active; 'I' for Inactive)
REMARK    1  A    between atoms: N_1  and  C_19
REMARK    2  A    between atoms: C_5  and  N_9
REMARK    3  A    between atoms: C_19  and  C_20
REMARK    4  A    between atoms: C_20  and  C_21
REMARK    5  A    between atoms: C_21  and  C_23
REMARK    6  A    between atoms: C_23  and  C_25
REMARK                            x       y       z     vdW  Elec       q    Type
REMARK                         _______ _______ _______ _____ _____    ______ ____
ROOT
ATOM      1  N   UNL     1      35.738 -21.349 -19.037  0.00  0.00    +0.390 N 
ATOM      2  C   UNL     1      34.856 -22.460 -19.418  0.00  0.00    -0.071 C 
ATOM      3  C   UNL     1      34.019 -22.913 -18.212  0.00  0.00    +0.021 C 
ATOM      4  C   UNL     1      36.699 -21.774 -18.006  0.00  0.00    -0.049 C 
ATOM      5  C   UNL     1      34.836 -23.051 -16.958  0.00  0.00    +0.037 C 
ATOM      6  C   UNL     1      36.074 -22.540 -16.873  0.00  0.00    -0.036 C 
ATOM      7  H   UNL     1      35.155 -20.609 -18.646  0.00  0.00    -0.079 HD
ENDROOT
BRANCH   5   9
ATOM      8  O   UNL     1      36.131 -24.971 -15.062  0.00  0.00    -0.246 OA
ATOM      9  N   UNL     1      34.272 -23.733 -15.918  0.00  0.00    -0.263 N 
ATOM     10  N   UNL     1      33.970 -25.104 -14.123  0.00  0.00    -0.305 N 
ATOM     11  C   UNL     1      32.923 -23.662 -15.521  0.00  0.00    +0.083 A 
ATOM     12  C   UNL     1      34.952 -24.643 -15.043  0.00  0.00    +0.332 A 
ATOM     13  C   UNL     1      32.749 -24.504 -14.424  0.00  0.00    +0.076 A 
ATOM     14  C   UNL     1      31.870 -22.935 -16.037  0.00  0.00    +0.019 C 
ATOM     15  C   UNL     1      31.534 -24.661 -13.794  0.00  0.00    +0.019 C 
ATOM     16  C   UNL     1      30.624 -23.078 -15.415  0.00  0.00    +0.002 C 
ATOM     17  C   UNL     1      30.459 -23.932 -14.305  0.00  0.00    +0.002 C 
ATOM     18  H   UNL     1      34.127 -25.745 -13.391  0.00  0.00    +0.170 HD
ENDBRANCH   5   9
BRANCH   1  19
ATOM     19  C   UNL     1      36.434 -20.808 -20.202  0.00  0.00    -0.076 C 
BRANCH  19  20
ATOM     20  C   UNL     1      35.486 -19.932 -21.024  0.00  0.00    -0.015 C 
BRANCH  20  21
ATOM     21  C   UNL     1      36.220 -18.798 -21.745  0.00  0.00    +0.067 C 
BRANCH  21  23
ATOM     22  O   UNL     1      35.235 -16.873 -20.673  0.00  0.00    -0.291 OA
ATOM     23  C   UNL     1      35.466 -17.477 -21.718  0.00  0.00    +0.173 C 
BRANCH  23  25
ATOM     24  F   UNL     1      33.750 -15.271 -26.552  0.00  0.00    -0.204 F 
ATOM     25  C   UNL     1      35.009 -16.888 -23.010  0.00  0.00    +0.035 C 
ATOM     26  C   UNL     1      34.618 -15.568 -23.031  0.00  0.00    +0.005 C 
ATOM     27  C   UNL     1      34.994 -17.685 -24.131  0.00  0.00    +0.005 C 
ATOM     28  C   UNL     1      34.189 -15.017 -24.239  0.00  0.00    +0.030 C 
ATOM     29  C   UNL     1      34.565 -17.135 -25.339  0.00  0.00    +0.030 C 
ATOM     30  C   UNL     1      34.162 -15.800 -25.393  0.00  0.00    +0.140 C 
ENDBRANCH  23  25
ENDBRANCH  21  23
ENDBRANCH  20  21
ENDBRANCH  19  20
ENDBRANCH   1  19
TORSDOF 6
ENDMDL
MODEL 8
REMARK VINA RESULT:     -11.8      3.187      5.102
REMARK  Name = 3168
REMARK  6 active torsions:
REMARK  status: ('A' for Active; 'I' for Inactive)
REMARK    1  A    between atoms: N_1  and  C_19
REMARK    2  A    between atoms: C_5  and  N_9
REMARK    3  A    between atoms: C_19  and  C_20
REMARK    4  A    between atoms: C_20  and  C_21
REMARK    5  A    between atoms: C_21  and  C_23
REMARK    6  A    between atoms: C_23  and  C_25
REMARK                            x       y       z     vdW  Elec       q    Type
REMARK                         _______ _______ _______ _____ _____    ______ ____
ROOT
ATOM      1  N   UNL     1      32.977 -11.718 -22.720  0.00  0.00    +0.390 N 
ATOM      2  C   UNL     1      32.026 -12.826 -22.571  0.00  0.00    -0.071 C 
ATOM      3  C   UNL     1      32.764 -14.173 -22.637  0.00  0.00    +0.021 C 
ATOM      4  C   UNL     1      33.632 -11.763 -24.038  0.00  0.00    -0.049 C 
ATOM      5  C   UNL     1      33.758 -14.234 -23.762  0.00  0.00    +0.037 C 
ATOM      6  C   UNL     1      34.143 -13.127 -24.413  0.00  0.00    -0.036 C 
ATOM      7  H   UNL     1      33.693 -11.823 -22.002  0.00  0.00    -0.079 HD
ENDROOT
BRANCH   5   9
ATOM      8  O   UNL     1      33.916 -15.494 -26.471  0.00  0.00    -0.246 OA
ATOM      9  N   UNL     1      34.239 -15.466 -24.102  0.00  0.00    -0.263 N 
ATOM     10  N   UNL     1      34.862 -17.307 -25.292  0.00  0.00    -0.305 N 
ATOM     11  C   UNL     1      34.775 -16.417 -23.212  0.00  0.00    +0.083 A 
ATOM     12  C   UNL     1      34.286 -16.013 -25.426  0.00  0.00    +0.332 A 
ATOM     13  C   UNL     1      35.152 -17.538 -23.949  0.00  0.00    +0.076 A 
ATOM     14  C   UNL     1      34.949 -16.371 -21.844  0.00  0.00    +0.019 C 
ATOM     15  C   UNL     1      35.714 -18.653 -23.369  0.00  0.00    +0.019 C 
ATOM     16  C   UNL     1      35.517 -17.493 -21.230  0.00  0.00    +0.002 C 
ATOM     17  C   UNL     1      35.896 -18.622 -21.985  0.00  0.00    +0.002 C 
ATOM     18  H   UNL     1      35.029 -17.938 -26.030  0.00  0.00    +0.170 HD
ENDBRANCH   5   9
BRANCH   1  19
ATOM     19  C   UNL     1      32.317 -10.429 -22.514  0.00  0.00    -0.076 C 
BRANCH  19  20
ATOM     20  C   UNL     1      31.772 -10.337 -21.087  0.00  0.00    -0.015 C 
BRANCH  20  21
ATOM     21  C   UNL     1      32.609  -9.407 -20.204  0.00  0.00    +0.067 C 
BRANCH  21  23
ATOM     22  O   UNL     1      31.814  -7.262 -19.435  0.00  0.00    -0.291 OA
ATOM     23  C   UNL     1      32.250  -7.937 -20.365  0.00  0.00    +0.173 C 
BRANCH  23  25
ATOM     24  F   UNL     1      33.008  -5.529 -25.345  0.00  0.00    -0.204 F 
ATOM     25  C   UNL     1      32.454  -7.293 -21.694  0.00  0.00    +0.035 C 
ATOM     26  C   UNL     1      31.378  -6.692 -22.308  0.00  0.00    +0.005 C 
ATOM     27  C   UNL     1      33.708  -7.324 -22.259  0.00  0.00    +0.005 C 
ATOM     28  C   UNL     1      31.567  -6.091 -23.553  0.00  0.00    +0.030 C 
ATOM     29  C   UNL     1      33.898  -6.723 -23.503  0.00  0.00    +0.030 C 
ATOM     30  C   UNL     1      32.827  -6.106 -24.150  0.00  0.00    +0.140 C 
ENDBRANCH  23  25
ENDBRANCH  21  23
ENDBRANCH  20  21
ENDBRANCH  19  20
ENDBRANCH   1  19
TORSDOF 6
ENDMDL
MODEL 9
REMARK VINA RESULT:     -11.8      5.229      8.611
REMARK  Name = 3168
REMARK  6 active torsions:
REMARK  status: ('A' for Active; 'I' for Inactive)
REMARK    1  A    between atoms: N_1  and  C_19
REMARK    2  A    between atoms: C_5  and  N_9
REMARK    3  A    between atoms: C_19  and  C_20
REMARK    4  A    between atoms: C_20  and  C_21
REMARK    5  A    between atoms: C_21  and  C_23
REMARK    6  A    between atoms: C_23  and  C_25
REMARK                            x       y       z     vdW  Elec       q    Type
REMARK                         _______ _______ _______ _____ _____    ______ ____
ROOT
ATOM      1  N   UNL     1      34.381 -22.798 -18.370  0.00  0.00    +0.390 N 
ATOM      2  C   UNL     1      35.399 -22.020 -17.653  0.00  0.00    -0.071 C 
ATOM      3  C   UNL     1      36.044 -22.874 -16.550  0.00  0.00    +0.021 C 
ATOM      4  C   UNL     1      33.289 -23.192 -17.465  0.00  0.00    -0.049 C 
ATOM      5  C   UNL     1      35.032 -23.638 -15.743  0.00  0.00    +0.037 C 
ATOM      6  C   UNL     1      33.764 -23.769 -16.159  0.00  0.00    -0.036 C 
ATOM      7  H   UNL     1      34.827 -23.645 -18.722  0.00  0.00    -0.079 HD
ENDROOT
BRANCH   5   9
ATOM      8  O   UNL     1      33.497 -24.007 -13.202  0.00  0.00    -0.246 OA
ATOM      9  N   UNL     1      35.456 -24.177 -14.563  0.00  0.00    -0.263 N 
ATOM     10  N   UNL     1      35.521 -24.931 -12.413  0.00  0.00    -0.305 N 
ATOM     11  C   UNL     1      36.744 -24.684 -14.302  0.00  0.00    +0.083 A 
ATOM     12  C   UNL     1      34.666 -24.326 -13.376  0.00  0.00    +0.332 A 
ATOM     13  C   UNL     1      36.772 -25.142 -12.986  0.00  0.00    +0.076 A 
ATOM     14  C   UNL     1      37.858 -24.769 -15.112  0.00  0.00    +0.019 C 
ATOM     15  C   UNL     1      37.897 -25.700 -12.419  0.00  0.00    +0.019 C 
ATOM     16  C   UNL     1      39.014 -25.332 -14.558  0.00  0.00    +0.002 C 
ATOM     17  C   UNL     1      39.032 -25.792 -13.226  0.00  0.00    +0.002 C 
ATOM     18  H   UNL     1      35.268 -25.165 -11.490  0.00  0.00    +0.170 HD
ENDBRANCH   5   9
BRANCH   1  19
ATOM     19  C   UNL     1      33.861 -22.053 -19.515  0.00  0.00    -0.076 C 
BRANCH  19  20
ATOM     20  C   UNL     1      34.950 -21.150 -20.097  0.00  0.00    -0.015 C 
BRANCH  20  21
ATOM     21  C   UNL     1      34.370 -19.999 -20.924  0.00  0.00    +0.067 C 
BRANCH  21  23
ATOM     22  O   UNL     1      36.481 -18.837 -20.785  0.00  0.00    -0.291 OA
ATOM     23  C   UNL     1      35.419 -18.996 -21.382  0.00  0.00    +0.173 C 
BRANCH  23  25
ATOM     24  F   UNL     1      34.414 -15.988 -25.978  0.00  0.00    -0.204 F 
ATOM     25  C   UNL     1      35.152 -18.194 -22.610  0.00  0.00    +0.035 C 
ATOM     26  C   UNL     1      35.219 -16.821 -22.529  0.00  0.00    +0.005 C 
ATOM     27  C   UNL     1      34.848 -18.854 -23.779  0.00  0.00    +0.005 C 
ATOM     28  C   UNL     1      34.967 -16.069 -23.677  0.00  0.00    +0.030 C 
ATOM     29  C   UNL     1      34.595 -18.103 -24.927  0.00  0.00    +0.030 C 
ATOM     30  C   UNL     1      34.656 -16.710 -24.876  0.00  0.00    +0.140 C 
ENDBRANCH  23  25
ENDBRANCH  21  23
ENDBRANCH  20  21
ENDBRANCH  19  20
ENDBRANCH   1  19
TORSDOF 6
ENDMDL
