MODEL 1
REMARK VINA RESULT:     -13.1      0.000      0.000
REMARK  Name = 208951
REMARK  4 active torsions:
REMARK  status: ('A' for Active; 'I' for Inactive)
REMARK    1  A    between atoms: N_1  and  C_19
REMARK    2  A    between atoms: N_2  and  C_11
REMARK    3  A    between atoms: C_19  and  C_20
REMARK    4  A    between atoms: C_23  and  C_26
REMARK                            x       y       z     vdW  Elec       q    Type
REMARK                         _______ _______ _______ _____ _____    ______ ____
ROOT
ATOM      1  N   UNL     1      32.212 -10.873 -22.304  0.00  0.00    +0.392 N 
ATOM      2  N   UNL     1      33.349 -13.488 -22.135  0.00  0.00    -0.309 N 
ATOM      3  C   UNL     1      32.868 -11.476 -23.471  0.00  0.00    -0.055 C 
ATOM      4  C   UNL     1      31.558 -11.916 -21.505  0.00  0.00    -0.055 C 
ATOM      5  C   UNL     1      33.928 -12.493 -23.043  0.00  0.00    +0.068 C 
ATOM      6  C   UNL     1      32.575 -12.948 -21.010  0.00  0.00    +0.068 C 
ATOM      7  H   UNL     1      32.920 -10.414 -21.730  0.00  0.00    -0.079 HD
ENDROOT
BRANCH   2  11
ATOM      8  O   UNL     1      34.217 -15.197 -24.371  0.00  0.00    -0.406 OA
ATOM      9  O   UNL     1      34.833 -16.409 -26.242  0.00  0.00    -0.223 OA
ATOM     10  N   UNL     1      35.261 -17.227 -24.102  0.00  0.00    -0.287 N 
ATOM     11  C   UNL     1      33.983 -14.724 -21.963  0.00  0.00    +0.084 C 
ATOM     12  C   UNL     1      34.385 -15.514 -23.032  0.00  0.00    +0.179 A 
ATOM     13  C   UNL     1      34.255 -15.243 -20.680  0.00  0.00    +0.018 C 
ATOM     14  C   UNL     1      35.010 -16.729 -22.850  0.00  0.00    +0.098 A 
ATOM     15  C   UNL     1      34.895 -16.487 -20.506  0.00  0.00    +0.003 C 
ATOM     16  C   UNL     1      35.284 -17.252 -21.608  0.00  0.00    +0.020 C 
ATOM     17  C   UNL     1      34.785 -16.308 -25.022  0.00  0.00    +0.419 A 
ATOM     18  H   UNL     1      35.700 -18.083 -24.309  0.00  0.00    +0.172 HD
ENDBRANCH   2  11
BRANCH   1  19
ATOM     19  C   UNL     1      31.241  -9.865 -22.725  0.00  0.00    -0.050 C 
BRANCH  19  20
ATOM     20  C   UNL     1      31.807  -8.477 -22.590  0.00  0.00    -0.043 C 
ATOM     21  C   UNL     1      32.365  -7.855 -23.699  0.00  0.00    -0.006 C 
ATOM     22  C   UNL     1      31.763  -7.837 -21.359  0.00  0.00    -0.006 C 
ATOM     23  C   UNL     1      32.888  -6.568 -23.573  0.00  0.00    -0.000 C 
ATOM     24  C   UNL     1      32.286  -6.551 -21.233  0.00  0.00    -0.000 C 
ATOM     25  C   UNL     1      32.849  -5.916 -22.340  0.00  0.00    -0.000 C 
BRANCH  23  26
ATOM     26  C   UNL     1      33.471  -5.908 -24.721  0.00  0.00    -0.000 C 
ATOM     27  C   UNL     1      32.726  -4.975 -25.442  0.00  0.00    -0.000 C 
ATOM     28  C   UNL     1      34.779  -6.205 -25.108  0.00  0.00    -0.000 C 
ATOM     29  C   UNL     1      33.288  -4.338 -26.549  0.00  0.00    -0.000 C 
ATOM     30  C   UNL     1      35.340  -5.569 -26.214  0.00  0.00    -0.000 C 
ATOM     31  C   UNL     1      34.595  -4.635 -26.935  0.00  0.00    +0.000 C 
ENDBRANCH  23  26
ENDBRANCH  19  20
ENDBRANCH   1  19
TORSDOF 4
ENDMDL
MODEL 2
REMARK VINA RESULT:     -13.0      8.698     12.843
REMARK  Name = 208951
REMARK  4 active torsions:
REMARK  status: ('A' for Active; 'I' for Inactive)
REMARK    1  A    between atoms: N_1  and  C_19
REMARK    2  A    between atoms: N_2  and  C_11
REMARK    3  A    between atoms: C_19  and  C_20
REMARK    4  A    between atoms: C_23  and  C_26
REMARK                            x       y       z     vdW  Elec       q    Type
REMARK                         _______ _______ _______ _____ _____    ______ ____
ROOT
ATOM      1  N   UNL     1      35.314 -21.914 -18.158  0.00  0.00    +0.392 N 
ATOM      2  N   UNL     1      36.389 -23.139 -15.813  0.00  0.00    -0.309 N 
ATOM      3  C   UNL     1      36.763 -22.097 -18.013  0.00  0.00    -0.055 C 
ATOM      4  C   UNL     1      34.603 -23.020 -17.507  0.00  0.00    -0.055 C 
ATOM      5  C   UNL     1      37.169 -22.131 -16.538  0.00  0.00    +0.068 C 
ATOM      6  C   UNL     1      34.935 -23.084 -16.014  0.00  0.00    +0.068 C 
ATOM      7  H   UNL     1      35.046 -21.039 -17.707  0.00  0.00    -0.079 HD
ENDROOT
BRANCH   2  11
ATOM      8  O   UNL     1      38.764 -24.866 -15.586  0.00  0.00    -0.406 OA
ATOM      9  O   UNL     1      40.647 -26.209 -15.593  0.00  0.00    -0.223 OA
ATOM     10  N   UNL     1      39.557 -25.700 -13.597  0.00  0.00    -0.287 N 
ATOM     11  C   UNL     1      36.865 -23.644 -14.597  0.00  0.00    +0.084 C 
ATOM     12  C   UNL     1      37.988 -24.457 -14.513  0.00  0.00    +0.179 A 
ATOM     13  C   UNL     1      36.227 -23.351 -13.375  0.00  0.00    +0.018 C 
ATOM     14  C   UNL     1      38.449 -24.947 -13.310  0.00  0.00    +0.098 A 
ATOM     15  C   UNL     1      36.706 -23.859 -12.150  0.00  0.00    +0.003 C 
ATOM     16  C   UNL     1      37.839 -24.673 -12.107  0.00  0.00    +0.020 C 
ATOM     17  C   UNL     1      39.752 -25.654 -14.967  0.00  0.00    +0.419 A 
ATOM     18  H   UNL     1      40.114 -26.185 -12.947  0.00  0.00    +0.172 HD
ENDBRANCH   2  11
BRANCH   1  19
ATOM     19  C   UNL     1      34.947 -21.829 -19.571  0.00  0.00    -0.050 C 
BRANCH  19  20
ATOM     20  C   UNL     1      35.685 -20.712 -20.257  0.00  0.00    -0.043 C 
ATOM     21  C   UNL     1      35.094 -20.060 -21.331  0.00  0.00    -0.006 C 
ATOM     22  C   UNL     1      36.946 -20.346 -19.806  0.00  0.00    -0.006 C 
ATOM     23  C   UNL     1      35.778 -19.023 -21.966  0.00  0.00    -0.000 C 
ATOM     24  C   UNL     1      37.629 -19.310 -20.441  0.00  0.00    -0.000 C 
ATOM     25  C   UNL     1      37.046 -18.649 -21.521  0.00  0.00    -0.000 C 
BRANCH  23  26
ATOM     26  C   UNL     1      35.172 -18.335 -23.086  0.00  0.00    -0.000 C 
ATOM     27  C   UNL     1      35.239 -16.944 -23.169  0.00  0.00    -0.000 C 
ATOM     28  C   UNL     1      34.522 -19.063 -24.083  0.00  0.00    -0.000 C 
ATOM     29  C   UNL     1      34.655 -16.281 -24.249  0.00  0.00    -0.000 C 
ATOM     30  C   UNL     1      33.938 -18.399 -25.162  0.00  0.00    -0.000 C 
ATOM     31  C   UNL     1      34.005 -17.008 -25.245  0.00  0.00    +0.000 C 
ENDBRANCH  23  26
ENDBRANCH  19  20
ENDBRANCH   1  19
TORSDOF 4
ENDMDL
MODEL 3
REMARK VINA RESULT:     -12.9      1.563      2.565
REMARK  Name = 208951
REMARK  4 active torsions:
REMARK  status: ('A' for Active; 'I' for Inactive)
REMARK    1  A    between atoms: N_1  and  C_19
REMARK    2  A    between atoms: N_2  and  C_11
REMARK    3  A    between atoms: C_19  and  C_20
REMARK    4  A    between atoms: C_23  and  C_26
REMARK                            x       y       z     vdW  Elec       q    Type
REMARK                         _______ _______ _______ _____ _____    ______ ____
ROOT
ATOM      1  N   UNL     1      32.329 -11.909 -21.509  0.00  0.00    +0.392 N 
ATOM      2  N   UNL     1      33.234 -14.155 -23.025  0.00  0.00    -0.309 N 
ATOM      3  C   UNL     1      32.128 -11.955 -22.962  0.00  0.00    -0.055 C 
ATOM      4  C   UNL     1      32.245 -13.264 -20.951  0.00  0.00    -0.055 C 
ATOM      5  C   UNL     1      33.192 -12.824 -23.638  0.00  0.00    +0.068 C 
ATOM      6  C   UNL     1      33.313 -14.177 -21.558  0.00  0.00    +0.068 C 
ATOM      7  H   UNL     1      33.257 -11.531 -21.317  0.00  0.00    -0.079 HD
ENDROOT
BRANCH   2  11
ATOM      8  O   UNL     1      34.824 -16.282 -21.753  0.00  0.00    -0.406 OA
ATOM      9  O   UNL     1      36.046 -17.867 -20.591  0.00  0.00    -0.223 OA
ATOM     10  N   UNL     1      35.749 -18.049 -22.896  0.00  0.00    -0.287 N 
ATOM     11  C   UNL     1      33.795 -15.227 -23.728  0.00  0.00    +0.084 C 
ATOM     12  C   UNL     1      34.542 -16.221 -23.108  0.00  0.00    +0.179 A 
ATOM     13  C   UNL     1      33.631 -15.363 -25.122  0.00  0.00    +0.018 C 
ATOM     14  C   UNL     1      35.088 -17.272 -23.811  0.00  0.00    +0.098 A 
ATOM     15  C   UNL     1      34.195 -16.443 -25.831  0.00  0.00    +0.003 C 
ATOM     16  C   UNL     1      34.940 -17.422 -25.171  0.00  0.00    +0.020 C 
ATOM     17  C   UNL     1      35.593 -17.457 -21.653  0.00  0.00    +0.419 A 
ATOM     18  H   UNL     1      36.245 -18.877 -23.086  0.00  0.00    +0.172 HD
ENDBRANCH   2  11
BRANCH   1  19
ATOM     19  C   UNL     1      31.341 -11.033 -20.882  0.00  0.00    -0.050 C 
BRANCH  19  20
ATOM     20  C   UNL     1      31.838  -9.614 -20.817  0.00  0.00    -0.043 C 
ATOM     21  C   UNL     1      32.371  -9.023 -21.954  0.00  0.00    -0.006 C 
ATOM     22  C   UNL     1      31.756  -8.915 -19.620  0.00  0.00    -0.006 C 
ATOM     23  C   UNL     1      32.831  -7.707 -21.893  0.00  0.00    -0.000 C 
ATOM     24  C   UNL     1      32.215  -7.600 -19.560  0.00  0.00    -0.000 C 
ATOM     25  C   UNL     1      32.753  -6.996 -20.695  0.00  0.00    -0.000 C 
BRANCH  23  26
ATOM     26  C   UNL     1      33.388  -7.079 -23.072  0.00  0.00    -0.000 C 
ATOM     27  C   UNL     1      32.598  -6.233 -23.850  0.00  0.00    -0.000 C 
ATOM     28  C   UNL     1      34.715  -7.321 -23.430  0.00  0.00    -0.000 C 
ATOM     29  C   UNL     1      33.135  -5.627 -24.986  0.00  0.00    -0.000 C 
ATOM     30  C   UNL     1      35.251  -6.716 -24.567  0.00  0.00    -0.000 C 
ATOM     31  C   UNL     1      34.461  -5.868 -25.344  0.00  0.00    +0.000 C 
ENDBRANCH  23  26
ENDBRANCH  19  20
ENDBRANCH   1  19
TORSDOF 4
ENDMDL
MODEL 4
REMARK VINA RESULT:     -12.8      6.052     10.039
REMARK  Name = 208951
REMARK  4 active torsions:
REMARK  status: ('A' for Active; 'I' for Inactive)
REMARK    1  A    between atoms: N_1  and  C_19
REMARK    2  A    between atoms: N_2  and  C_11
REMARK    3  A    between atoms: C_19  and  C_20
REMARK    4  A    between atoms: C_23  and  C_26
REMARK                            x       y       z     vdW  Elec       q    Type
REMARK                         _______ _______ _______ _____ _____    ______ ____
ROOT
ATOM      1  N   UNL     1      35.945 -20.004 -21.311  0.00  0.00    +0.392 N 
ATOM      2  N   UNL     1      34.917 -21.486 -19.096  0.00  0.00    -0.309 N 
ATOM      3  C   UNL     1      34.603 -19.722 -20.786  0.00  0.00    -0.055 C 
ATOM      4  C   UNL     1      36.833 -20.415 -20.217  0.00  0.00    -0.055 C 
ATOM      5  C   UNL     1      34.003 -20.960 -20.115  0.00  0.00    +0.068 C 
ATOM      6  C   UNL     1      36.308 -21.676 -19.527  0.00  0.00    +0.068 C 
ATOM      7  H   UNL     1      35.881 -20.766 -21.986  0.00  0.00    -0.079 HD
ENDROOT
BRANCH   2  11
ATOM      8  O   UNL     1      36.588 -22.579 -16.931  0.00  0.00    -0.406 OA
ATOM      9  O   UNL     1      38.044 -23.347 -15.306  0.00  0.00    -0.223 OA
ATOM     10  N   UNL     1      35.791 -23.942 -15.260  0.00  0.00    -0.287 N 
ATOM     11  C   UNL     1      34.424 -22.316 -18.083  0.00  0.00    +0.084 C 
ATOM     12  C   UNL     1      35.230 -22.821 -17.070  0.00  0.00    +0.179 A 
ATOM     13  C   UNL     1      33.066 -22.691 -18.029  0.00  0.00    +0.018 C 
ATOM     14  C   UNL     1      34.733 -23.637 -16.077  0.00  0.00    +0.098 A 
ATOM     15  C   UNL     1      32.569 -23.527 -17.009  0.00  0.00    +0.003 C 
ATOM     16  C   UNL     1      33.412 -24.014 -16.008  0.00  0.00    +0.020 C 
ATOM     17  C   UNL     1      36.911 -23.307 -15.771  0.00  0.00    +0.419 A 
ATOM     18  H   UNL     1      35.760 -24.509 -14.457  0.00  0.00    +0.172 HD
ENDBRANCH   2  11
BRANCH   1  19
ATOM     19  C   UNL     1      36.484 -18.831 -21.996  0.00  0.00    -0.050 C 
BRANCH  19  20
ATOM     20  C   UNL     1      35.611 -18.430 -23.154  0.00  0.00    -0.043 C 
ATOM     21  C   UNL     1      35.328 -17.087 -23.365  0.00  0.00    -0.006 C 
ATOM     22  C   UNL     1      35.100 -19.408 -23.997  0.00  0.00    -0.006 C 
ATOM     23  C   UNL     1      34.518 -16.716 -24.439  0.00  0.00    -0.000 C 
ATOM     24  C   UNL     1      34.291 -19.037 -25.070  0.00  0.00    -0.000 C 
ATOM     25  C   UNL     1      34.000 -17.691 -25.291  0.00  0.00    -0.000 C 
BRANCH  23  26
ATOM     26  C   UNL     1      34.218 -15.319 -24.670  0.00  0.00    -0.000 C 
ATOM     27  C   UNL     1      33.700 -14.911 -25.899  0.00  0.00    -0.000 C 
ATOM     28  C   UNL     1      34.445 -14.381 -23.662  0.00  0.00    -0.000 C 
ATOM     29  C   UNL     1      33.410 -13.565 -26.122  0.00  0.00    -0.000 C 
ATOM     30  C   UNL     1      34.155 -13.035 -23.885  0.00  0.00    -0.000 C 
ATOM     31  C   UNL     1      33.637 -12.627 -25.115  0.00  0.00    +0.000 C 
ENDBRANCH  23  26
ENDBRANCH  19  20
ENDBRANCH   1  19
TORSDOF 4
ENDMDL
MODEL 5
REMARK VINA RESULT:     -12.7      8.818     13.090
REMARK  Name = 208951
REMARK  4 active torsions:
REMARK  status: ('A' for Active; 'I' for Inactive)
REMARK    1  A    between atoms: N_1  and  C_19
REMARK    2  A    between atoms: N_2  and  C_11
REMARK    3  A    between atoms: C_19  and  C_20
REMARK    4  A    between atoms: C_23  and  C_26
REMARK                            x       y       z     vdW  Elec       q    Type
REMARK                         _______ _______ _______ _____ _____    ______ ____
ROOT
ATOM      1  N   UNL     1      36.282 -21.752 -18.053  0.00  0.00    +0.392 N 
ATOM      2  N   UNL     1      36.264 -23.172 -15.574  0.00  0.00    -0.309 N 
ATOM      3  C   UNL     1      37.537 -22.024 -17.342  0.00  0.00    -0.055 C 
ATOM      4  C   UNL     1      35.337 -22.854 -17.836  0.00  0.00    -0.055 C 
ATOM      5  C   UNL     1      37.299 -22.167 -15.838  0.00  0.00    +0.068 C 
ATOM      6  C   UNL     1      35.023 -23.025 -16.347  0.00  0.00    +0.068 C 
ATOM      7  H   UNL     1      35.874 -20.892 -17.684  0.00  0.00    -0.079 HD
ENDROOT
BRANCH   2  11
ATOM      8  O   UNL     1      38.345 -24.947 -14.484  0.00  0.00    -0.406 OA
ATOM      9  O   UNL     1      40.075 -26.315 -13.785  0.00  0.00    -0.223 OA
ATOM     10  N   UNL     1      38.228 -25.940 -12.414  0.00  0.00    -0.287 N 
ATOM     11  C   UNL     1      36.184 -23.774 -14.313  0.00  0.00    +0.084 C 
ATOM     12  C   UNL     1      37.178 -24.608 -13.817  0.00  0.00    +0.179 A 
ATOM     13  C   UNL     1      35.079 -23.564 -13.462  0.00  0.00    +0.018 C 
ATOM     14  C   UNL     1      37.089 -25.194 -12.573  0.00  0.00    +0.098 A 
ATOM     15  C   UNL     1      34.999 -24.169 -12.192  0.00  0.00    +0.003 C 
ATOM     16  C   UNL     1      36.020 -25.002 -11.729  0.00  0.00    +0.020 C 
ATOM     17  C   UNL     1      38.988 -25.795 -13.563  0.00  0.00    +0.419 A 
ATOM     18  H   UNL     1      38.462 -26.481 -11.626  0.00  0.00    +0.172 HD
ENDBRANCH   2  11
BRANCH   1  19
ATOM     19  C   UNL     1      36.531 -21.564 -19.481  0.00  0.00    -0.050 C 
BRANCH  19  20
ATOM     20  C   UNL     1      35.349 -20.924 -20.157  0.00  0.00    -0.043 C 
ATOM     21  C   UNL     1      35.559 -20.003 -21.176  0.00  0.00    -0.006 C 
ATOM     22  C   UNL     1      34.064 -21.262 -19.755  0.00  0.00    -0.006 C 
ATOM     23  C   UNL     1      34.463 -19.411 -21.803  0.00  0.00    -0.000 C 
ATOM     24  C   UNL     1      32.969 -20.670 -20.383  0.00  0.00    -0.000 C 
ATOM     25  C   UNL     1      33.168 -19.745 -21.406  0.00  0.00    -0.000 C 
BRANCH  23  26
ATOM     26  C   UNL     1      34.669 -18.452 -22.867  0.00  0.00    -0.000 C 
ATOM     27  C   UNL     1      34.461 -18.827 -24.194  0.00  0.00    -0.000 C 
ATOM     28  C   UNL     1      35.075 -17.151 -22.565  0.00  0.00    -0.000 C 
ATOM     29  C   UNL     1      34.659 -17.902 -25.220  0.00  0.00    -0.000 C 
ATOM     30  C   UNL     1      35.273 -16.227 -23.590  0.00  0.00    -0.000 C 
ATOM     31  C   UNL     1      35.065 -16.602 -24.917  0.00  0.00    +0.000 C 
ENDBRANCH  23  26
ENDBRANCH  19  20
ENDBRANCH   1  19
TORSDOF 4
ENDMDL
MODEL 6
REMARK VINA RESULT:     -12.5      2.667      4.695
REMARK  Name = 208951
REMARK  4 active torsions:
REMARK  status: ('A' for Active; 'I' for Inactive)
REMARK    1  A    between atoms: N_1  and  C_19
REMARK    2  A    between atoms: N_2  and  C_11
REMARK    3  A    between atoms: C_19  and  C_20
REMARK    4  A    between atoms: C_23  and  C_26
REMARK                            x       y       z     vdW  Elec       q    Type
REMARK                         _______ _______ _______ _____ _____    ______ ____
ROOT
ATOM      1  N   UNL     1      33.957 -14.919 -23.491  0.00  0.00    +0.392 N 
ATOM      2  N   UNL     1      35.273 -17.109 -22.213  0.00  0.00    -0.309 N 
ATOM      3  C   UNL     1      34.677 -14.719 -22.228  0.00  0.00    -0.055 C 
ATOM      4  C   UNL     1      34.630 -15.950 -24.291  0.00  0.00    -0.055 C 
ATOM      5  C   UNL     1      34.724 -16.011 -21.410  0.00  0.00    +0.068 C 
ATOM      6  C   UNL     1      34.674 -17.285 -23.542  0.00  0.00    +0.068 C 
ATOM      7  H   UNL     1      33.008 -15.231 -23.283  0.00  0.00    -0.079 HD
ENDROOT
BRANCH   2  11
ATOM      8  O   UNL     1      33.626 -19.325 -21.188  0.00  0.00    -0.406 OA
ATOM      9  O   UNL     1      32.183 -20.973 -20.446  0.00  0.00    -0.223 OA
ATOM     10  N   UNL     1      34.485 -21.184 -20.144  0.00  0.00    -0.287 N 
ATOM     11  C   UNL     1      35.804 -18.237 -21.577  0.00  0.00    +0.084 C 
ATOM     12  C   UNL     1      35.008 -19.272 -21.101  0.00  0.00    +0.179 A 
ATOM     13  C   UNL     1      37.192 -18.391 -21.383  0.00  0.00    +0.018 C 
ATOM     14  C   UNL     1      35.543 -20.379 -20.478  0.00  0.00    +0.098 A 
ATOM     15  C   UNL     1      37.727 -19.528 -20.743  0.00  0.00    +0.003 C 
ATOM     16  C   UNL     1      36.894 -20.547 -20.279  0.00  0.00    +0.020 C 
ATOM     17  C   UNL     1      33.328 -20.553 -20.570  0.00  0.00    +0.419 A 
ATOM     18  H   UNL     1      34.539 -22.052 -19.686  0.00  0.00    +0.172 HD
ENDBRANCH   2  11
BRANCH   1  19
ATOM     19  C   UNL     1      33.872 -13.665 -24.238  0.00  0.00    -0.050 C 
BRANCH  19  20
ATOM     20  C   UNL     1      33.167 -12.604 -23.437  0.00  0.00    -0.043 C 
ATOM     21  C   UNL     1      33.340 -11.267 -23.770  0.00  0.00    -0.006 C 
ATOM     22  C   UNL     1      32.352 -12.976 -22.376  0.00  0.00    -0.006 C 
ATOM     23  C   UNL     1      32.685 -10.284 -23.028  0.00  0.00    -0.000 C 
ATOM     24  C   UNL     1      31.698 -11.993 -21.634  0.00  0.00    -0.000 C 
ATOM     25  C   UNL     1      31.865 -10.647 -21.959  0.00  0.00    -0.000 C 
BRANCH  23  26
ATOM     26  C   UNL     1      32.857  -8.888 -23.366  0.00  0.00    -0.000 C 
ATOM     27  C   UNL     1      34.124  -8.307 -23.314  0.00  0.00    -0.000 C 
ATOM     28  C   UNL     1      31.753  -8.121 -23.745  0.00  0.00    -0.000 C 
ATOM     29  C   UNL     1      34.289  -6.961 -23.641  0.00  0.00    -0.000 C 
ATOM     30  C   UNL     1      31.919  -6.775 -24.071  0.00  0.00    -0.000 C 
ATOM     31  C   UNL     1      33.187  -6.196 -24.019  0.00  0.00    +0.000 C 
ENDBRANCH  23  26
ENDBRANCH  19  20
ENDBRANCH   1  19
TORSDOF 4
ENDMDL
MODEL 7
REMARK VINA RESULT:     -12.4      7.089     13.631
REMARK  Name = 208951
REMARK  4 active torsions:
REMARK  status: ('A' for Active; 'I' for Inactive)
REMARK    1  A    between atoms: N_1  and  C_19
REMARK    2  A    between atoms: N_2  and  C_11
REMARK    3  A    between atoms: C_19  and  C_20
REMARK    4  A    between atoms: C_23  and  C_26
REMARK                            x       y       z     vdW  Elec       q    Type
REMARK                         _______ _______ _______ _____ _____    ______ ____
ROOT
ATOM      1  N   UNL     1      34.911 -21.691 -19.467  0.00  0.00    +0.392 N 
ATOM      2  N   UNL     1      34.844 -19.835 -21.637  0.00  0.00    -0.309 N 
ATOM      3  C   UNL     1      33.732 -21.607 -20.338  0.00  0.00    -0.055 C 
ATOM      4  C   UNL     1      36.125 -21.412 -20.243  0.00  0.00    -0.055 C 
ATOM      5  C   UNL     1      33.602 -20.213 -20.956  0.00  0.00    +0.068 C 
ATOM      6  C   UNL     1      36.076 -20.011 -20.857  0.00  0.00    +0.068 C 
ATOM      7  H   UNL     1      34.825 -20.993 -18.728  0.00  0.00    -0.079 HD
ENDROOT
BRANCH   2  11
ATOM      8  O   UNL     1      34.745 -16.958 -21.015  0.00  0.00    -0.406 OA
ATOM      9  O   UNL     1      34.668 -14.744 -20.346  0.00  0.00    -0.223 OA
ATOM     10  N   UNL     1      34.712 -15.302 -22.609  0.00  0.00    -0.287 N 
ATOM     11  C   UNL     1      34.823 -18.832 -22.614  0.00  0.00    +0.084 C 
ATOM     12  C   UNL     1      34.776 -17.480 -22.298  0.00  0.00    +0.179 A 
ATOM     13  C   UNL     1      34.850 -19.140 -23.989  0.00  0.00    +0.018 C 
ATOM     14  C   UNL     1      34.758 -16.502 -23.269  0.00  0.00    +0.098 A 
ATOM     15  C   UNL     1      34.829 -18.131 -24.974  0.00  0.00    +0.003 C 
ATOM     16  C   UNL     1      34.783 -16.783 -24.615  0.00  0.00    +0.020 C 
ATOM     17  C   UNL     1      34.704 -15.571 -21.250  0.00  0.00    +0.419 A 
ATOM     18  H   UNL     1      34.689 -14.411 -23.025  0.00  0.00    +0.172 HD
ENDBRANCH   2  11
BRANCH   1  19
ATOM     19  C   UNL     1      34.993 -23.009 -18.841  0.00  0.00    -0.050 C 
BRANCH  19  20
ATOM     20  C   UNL     1      34.305 -23.018 -17.503  0.00  0.00    -0.043 C 
ATOM     21  C   UNL     1      32.931 -23.210 -17.441  0.00  0.00    -0.006 C 
ATOM     22  C   UNL     1      35.053 -22.836 -16.347  0.00  0.00    -0.006 C 
ATOM     23  C   UNL     1      32.294 -23.220 -16.200  0.00  0.00    -0.000 C 
ATOM     24  C   UNL     1      34.416 -22.845 -15.107  0.00  0.00    -0.000 C 
ATOM     25  C   UNL     1      33.037 -23.036 -15.033  0.00  0.00    -0.000 C 
BRANCH  23  26
ATOM     26  C   UNL     1      30.863 -23.420 -16.123  0.00  0.00    -0.000 C 
ATOM     27  C   UNL     1      29.996 -22.484 -16.686  0.00  0.00    -0.000 C 
ATOM     28  C   UNL     1      30.351 -24.551 -15.485  0.00  0.00    -0.000 C 
ATOM     29  C   UNL     1      28.616 -22.678 -16.611  0.00  0.00    -0.000 C 
ATOM     30  C   UNL     1      28.972 -24.744 -15.411  0.00  0.00    -0.000 C 
ATOM     31  C   UNL     1      28.104 -23.808 -15.975  0.00  0.00    +0.000 C 
ENDBRANCH  23  26
ENDBRANCH  19  20
ENDBRANCH   1  19
TORSDOF 4
ENDMDL
MODEL 8
REMARK VINA RESULT:     -12.4      1.131      1.683
REMARK  Name = 208951
REMARK  4 active torsions:
REMARK  status: ('A' for Active; 'I' for Inactive)
REMARK    1  A    between atoms: N_1  and  C_19
REMARK    2  A    between atoms: N_2  and  C_11
REMARK    3  A    between atoms: C_19  and  C_20
REMARK    4  A    between atoms: C_23  and  C_26
REMARK                            x       y       z     vdW  Elec       q    Type
REMARK                         _______ _______ _______ _____ _____    ______ ____
ROOT
ATOM      1  N   UNL     1      32.663 -12.186 -21.713  0.00  0.00    +0.392 N 
ATOM      2  N   UNL     1      33.898 -14.755 -21.896  0.00  0.00    -0.309 N 
ATOM      3  C   UNL     1      33.249 -12.641 -22.979  0.00  0.00    -0.055 C 
ATOM      4  C   UNL     1      32.107 -13.331 -20.981  0.00  0.00    -0.055 C 
ATOM      5  C   UNL     1      34.373 -13.650 -22.735  0.00  0.00    +0.068 C 
ATOM      6  C   UNL     1      33.193 -14.364 -20.669  0.00  0.00    +0.068 C 
ATOM      7  H   UNL     1      33.395 -11.758 -21.146  0.00  0.00    -0.079 HD
ENDROOT
BRANCH   2  11
ATOM      8  O   UNL     1      34.454 -16.307 -24.336  0.00  0.00    -0.406 OA
ATOM      9  O   UNL     1      34.804 -17.392 -26.349  0.00  0.00    -0.223 OA
ATOM     10  N   UNL     1      35.584 -18.309 -24.353  0.00  0.00    -0.287 N 
ATOM     11  C   UNL     1      34.586 -15.974 -21.897  0.00  0.00    +0.084 C 
ATOM     12  C   UNL     1      34.838 -16.690 -23.061  0.00  0.00    +0.179 A 
ATOM     13  C   UNL     1      35.070 -16.552 -20.705  0.00  0.00    +0.018 C 
ATOM     14  C   UNL     1      35.517 -17.889 -23.050  0.00  0.00    +0.098 A 
ATOM     15  C   UNL     1      35.763 -17.779 -20.706  0.00  0.00    +0.003 C 
ATOM     16  C   UNL     1      35.997 -18.468 -21.898  0.00  0.00    +0.020 C 
ATOM     17  C   UNL     1      34.944 -17.359 -25.133  0.00  0.00    +0.419 A 
ATOM     18  H   UNL     1      36.009 -19.135 -24.676  0.00  0.00    +0.172 HD
ENDBRANCH   2  11
BRANCH   1  19
ATOM     19  C   UNL     1      31.628 -11.183 -21.958  0.00  0.00    -0.050 C 
BRANCH  19  20
ATOM     20  C   UNL     1      32.159  -9.792 -21.737  0.00  0.00    -0.043 C 
ATOM     21  C   UNL     1      32.548  -9.027 -22.830  0.00  0.00    -0.006 C 
ATOM     22  C   UNL     1      32.253  -9.292 -20.446  0.00  0.00    -0.006 C 
ATOM     23  C   UNL     1      33.039  -7.737 -22.625  0.00  0.00    -0.000 C 
ATOM     24  C   UNL     1      32.744  -8.003 -20.242  0.00  0.00    -0.000 C 
ATOM     25  C   UNL     1      33.138  -7.226 -21.330  0.00  0.00    -0.000 C 
BRANCH  23  26
ATOM     26  C   UNL     1      33.445  -6.930 -23.754  0.00  0.00    -0.000 C 
ATOM     27  C   UNL     1      34.791  -6.861 -24.115  0.00  0.00    -0.000 C 
ATOM     28  C   UNL     1      32.490  -6.221 -24.485  0.00  0.00    -0.000 C 
ATOM     29  C   UNL     1      35.182  -6.083 -25.204  0.00  0.00    -0.000 C 
ATOM     30  C   UNL     1      32.882  -5.442 -25.573  0.00  0.00    -0.000 C 
ATOM     31  C   UNL     1      34.228  -5.374 -25.933  0.00  0.00    +0.000 C 
ENDBRANCH  23  26
ENDBRANCH  19  20
ENDBRANCH   1  19
TORSDOF 4
ENDMDL
MODEL 9
REMARK VINA RESULT:     -12.3      5.159     12.795
REMARK  Name = 208951
REMARK  4 active torsions:
REMARK  status: ('A' for Active; 'I' for Inactive)
REMARK    1  A    between atoms: N_1  and  C_19
REMARK    2  A    between atoms: N_2  and  C_11
REMARK    3  A    between atoms: C_19  and  C_20
REMARK    4  A    between atoms: C_23  and  C_26
REMARK                            x       y       z     vdW  Elec       q    Type
REMARK                         _______ _______ _______ _____ _____    ______ ____
ROOT
ATOM      1  N   UNL     1      35.291 -19.266 -21.512  0.00  0.00    +0.392 N 
ATOM      2  N   UNL     1      34.666 -17.068 -23.227  0.00  0.00    -0.309 N 
ATOM      3  C   UNL     1      35.338 -19.424 -22.971  0.00  0.00    -0.055 C 
ATOM      4  C   UNL     1      35.690 -17.902 -21.145  0.00  0.00    -0.055 C 
ATOM      5  C   UNL     1      34.390 -18.441 -23.662  0.00  0.00    +0.068 C 
ATOM      6  C   UNL     1      34.753 -16.867 -21.774  0.00  0.00    +0.068 C 
ATOM      7  H   UNL     1      34.335 -19.426 -21.194  0.00  0.00    -0.079 HD
ENDROOT
BRANCH   2  11
ATOM      8  O   UNL     1      33.349 -14.671 -22.134  0.00  0.00    -0.406 OA
ATOM      9  O   UNL     1      32.331 -12.865 -21.108  0.00  0.00    -0.223 OA
ATOM     10  N   UNL     1      32.652 -12.895 -23.416  0.00  0.00    -0.287 N 
ATOM     11  C   UNL     1      34.243 -15.991 -24.015  0.00  0.00    +0.084 C 
ATOM     12  C   UNL     1      33.624 -14.869 -23.478  0.00  0.00    +0.179 A 
ATOM     13  C   UNL     1      34.426 -15.982 -25.412  0.00  0.00    +0.018 C 
ATOM     14  C   UNL     1      33.214 -13.814 -24.264  0.00  0.00    +0.098 A 
ATOM     15  C   UNL     1      34.001 -14.897 -26.206  0.00  0.00    +0.003 C 
ATOM     16  C   UNL     1      33.382 -13.787 -25.629  0.00  0.00    +0.020 C 
ATOM     17  C   UNL     1      32.731 -13.407 -22.131  0.00  0.00    +0.419 A 
ATOM     18  H   UNL     1      32.264 -12.029 -23.674  0.00  0.00    +0.172 HD
ENDBRANCH   2  11
BRANCH   1  19
ATOM     19  C   UNL     1      36.159 -20.246 -20.862  0.00  0.00    -0.050 C 
BRANCH  19  20
ATOM     20  C   UNL     1      35.390 -21.081 -19.875  0.00  0.00    -0.043 C 
ATOM     21  C   UNL     1      36.046 -21.618 -18.775  0.00  0.00    -0.006 C 
ATOM     22  C   UNL     1      34.034 -21.303 -20.076  0.00  0.00    -0.006 C 
ATOM     23  C   UNL     1      35.332 -22.392 -17.860  0.00  0.00    -0.000 C 
ATOM     24  C   UNL     1      33.321 -22.076 -19.161  0.00  0.00    -0.000 C 
ATOM     25  C   UNL     1      33.969 -22.621 -18.053  0.00  0.00    -0.000 C 
BRANCH  23  26
ATOM     26  C   UNL     1      36.003 -22.956 -16.709  0.00  0.00    -0.000 C 
ATOM     27  C   UNL     1      37.353 -22.683 -16.485  0.00  0.00    -0.000 C 
ATOM     28  C   UNL     1      35.301 -23.773 -15.822  0.00  0.00    -0.000 C 
ATOM     29  C   UNL     1      38.000 -23.226 -15.376  0.00  0.00    -0.000 C 
ATOM     30  C   UNL     1      35.949 -24.316 -14.713  0.00  0.00    -0.000 C 
ATOM     31  C   UNL     1      37.298 -24.042 -14.489  0.00  0.00    +0.000 C 
ENDBRANCH  23  26
ENDBRANCH  19  20
ENDBRANCH   1  19
TORSDOF 4
ENDMDL
