MODEL 1
REMARK VINA RESULT:     -14.1      0.000      0.000
REMARK  Name = 119057475
REMARK  5 active torsions:
REMARK  status: ('A' for Active; 'I' for Inactive)
REMARK    1  A    between atoms: N_1  and  C_22
REMARK    2  A    between atoms: C_2  and  N_8
REMARK    3  A    between atoms: N_8  and  C_11
REMARK    4  A    between atoms: C_11  and  C_16
REMARK    5  A    between atoms: C_22  and  C_26
REMARK                            x       y       z     vdW  Elec       q    Type
REMARK                         _______ _______ _______ _____ _____    ______ ____
ROOT
ATOM      1  N   UNL     1      36.155 -19.227 -22.455  0.00  0.00    +0.387 N 
ATOM      2  C   UNL     1      35.741 -20.501 -19.853  0.00  0.00    -0.066 C 
ATOM      3  C   UNL     1      34.798 -19.551 -21.992  0.00  0.00    -0.079 C 
ATOM      4  C   UNL     1      37.042 -18.918 -21.325  0.00  0.00    -0.079 C 
ATOM      5  C   UNL     1      34.811 -20.752 -21.042  0.00  0.00    -0.044 C 
ATOM      6  C   UNL     1      37.131 -20.097 -20.353  0.00  0.00    -0.044 C 
ATOM      7  H   UNL     1      36.527 -20.048 -22.932  0.00  0.00    -0.080 HD
ENDROOT
BRANCH   2   8
ATOM      8  N   UNL     1      35.814 -21.691 -19.008  0.00  0.00    +0.389 N 
ATOM      9  H   UNL     1      36.047 -22.498 -19.587  0.00  0.00    -0.084 HD
ATOM     10  H   UNL     1      34.910 -21.827 -18.556  0.00  0.00    -0.084 HD
BRANCH   8  11
ATOM     11  C   UNL     1      36.831 -21.533 -17.979  0.00  0.00    -0.032 C 
BRANCH  11  16
ATOM     12  O   UNL     1      38.712 -24.116 -14.322  0.00  0.00    -0.467 OA
ATOM     13  O   UNL     1      36.210 -25.528 -14.166  0.00  0.00    -0.453 OA
ATOM     14  N   UNL     1      35.545 -23.241 -16.812  0.00  0.00    -0.151 NA
ATOM     15  N   UNL     1      35.402 -24.215 -15.872  0.00  0.00    -0.107 NA
ATOM     16  C   UNL     1      36.725 -22.595 -16.918  0.00  0.00    +0.062 C 
ATOM     17  C   UNL     1      37.805 -22.868 -16.103  0.00  0.00    +0.056 C 
ATOM     18  C   UNL     1      37.651 -23.851 -15.140  0.00  0.00    +0.194 C 
ATOM     19  C   UNL     1      36.441 -24.517 -15.065  0.00  0.00    +0.278 C 
ATOM     20  C   UNL     1      38.331 -24.907 -13.191  0.00  0.00    +0.253 C 
ATOM     21  C   UNL     1      37.429 -26.046 -13.626  0.00  0.00    +0.254 C 
ENDBRANCH  11  16
ENDBRANCH   8  11
ENDBRANCH   2   8
BRANCH   1  22
ATOM     22  C   UNL     1      36.121 -18.111 -23.400  0.00  0.00    -0.071 C 
BRANCH  22  26
ATOM     23  F   UNL     1      35.145 -16.770 -20.566  0.00  0.00    -0.204 F 
ATOM     24  O   UNL     1      33.524 -15.311 -27.194  0.00  0.00    -0.270 OA
ATOM     25  N   UNL     1      34.050 -15.716 -24.977  0.00  0.00    -0.255 N 
ATOM     26  C   UNL     1      34.720 -17.523 -23.502  0.00  0.00    +0.025 C 
ATOM     27  C   UNL     1      34.348 -17.154 -24.969  0.00  0.00    +0.101 C 
ATOM     28  C   UNL     1      34.590 -16.201 -22.798  0.00  0.00    +0.018 C 
ATOM     29  C   UNL     1      34.202 -15.218 -23.691  0.00  0.00    +0.052 C 
ATOM     30  C   UNL     1      33.992 -13.894 -23.362  0.00  0.00    +0.014 C 
ATOM     31  C   UNL     1      34.779 -15.857 -21.473  0.00  0.00    +0.137 C 
ATOM     32  C   UNL     1      33.673 -14.923 -26.038  0.00  0.00    +0.253 C 
ATOM     33  C   UNL     1      34.184 -13.540 -22.030  0.00  0.00    +0.004 C 
ATOM     34  C   UNL     1      34.575 -14.519 -21.093  0.00  0.00    +0.029 C 
ATOM     35  C   UNL     1      33.589 -13.002 -24.445  0.00  0.00    +0.006 C 
ATOM     36  C   UNL     1      33.440 -13.477 -25.694  0.00  0.00    +0.058 C 
ENDBRANCH  22  26
ENDBRANCH   1  22
TORSDOF 5
ENDMDL
MODEL 2
REMARK VINA RESULT:     -14.0      2.297      2.698
REMARK  Name = 119057475
REMARK  5 active torsions:
REMARK  status: ('A' for Active; 'I' for Inactive)
REMARK    1  A    between atoms: N_1  and  C_22
REMARK    2  A    between atoms: C_2  and  N_8
REMARK    3  A    between atoms: N_8  and  C_11
REMARK    4  A    between atoms: C_11  and  C_16
REMARK    5  A    between atoms: C_22  and  C_26
REMARK                            x       y       z     vdW  Elec       q    Type
REMARK                         _______ _______ _______ _____ _____    ______ ____
ROOT
ATOM      1  N   UNL     1      36.017 -19.235 -22.442  0.00  0.00    +0.387 N 
ATOM      2  C   UNL     1      35.528 -20.579 -19.889  0.00  0.00    -0.066 C 
ATOM      3  C   UNL     1      34.643 -19.504 -21.994  0.00  0.00    -0.079 C 
ATOM      4  C   UNL     1      36.915 -19.013 -21.300  0.00  0.00    -0.079 C 
ATOM      5  C   UNL     1      34.591 -20.738 -21.088  0.00  0.00    -0.044 C 
ATOM      6  C   UNL     1      36.939 -20.230 -20.371  0.00  0.00    -0.044 C 
ATOM      7  H   UNL     1      36.348 -20.056 -22.948  0.00  0.00    -0.080 HD
ENDROOT
BRANCH   2   8
ATOM      8  N   UNL     1      35.537 -21.800 -19.087  0.00  0.00    +0.389 N 
ATOM      9  H   UNL     1      35.521 -21.550 -18.098  0.00  0.00    -0.084 HD
ATOM     10  H   UNL     1      36.380 -22.330 -19.306  0.00  0.00    -0.084 HD
BRANCH   8  11
ATOM     11  C   UNL     1      34.377 -22.625 -19.389  0.00  0.00    -0.032 C 
BRANCH  11  16
ATOM     12  O   UNL     1      33.769 -24.139 -14.814  0.00  0.00    -0.467 OA
ATOM     13  O   UNL     1      30.998 -23.402 -15.045  0.00  0.00    -0.453 OA
ATOM     14  N   UNL     1      32.225 -22.479 -18.257  0.00  0.00    -0.151 NA
ATOM     15  N   UNL     1      31.406 -22.669 -17.186  0.00  0.00    -0.107 NA
ATOM     16  C   UNL     1      33.518 -22.852 -18.173  0.00  0.00    +0.062 C 
ATOM     17  C   UNL     1      34.064 -23.415 -17.037  0.00  0.00    +0.056 C 
ATOM     18  C   UNL     1      33.232 -23.595 -15.946  0.00  0.00    +0.194 C 
ATOM     19  C   UNL     1      31.903 -23.227 -16.062  0.00  0.00    +0.278 C 
ATOM     20  C   UNL     1      32.906 -23.982 -13.683  0.00  0.00    +0.253 C 
ATOM     21  C   UNL     1      31.478 -24.321 -14.061  0.00  0.00    +0.254 C 
ENDBRANCH  11  16
ENDBRANCH   8  11
ENDBRANCH   2   8
BRANCH   1  22
ATOM     22  C   UNL     1      36.044 -18.085 -23.346  0.00  0.00    -0.071 C 
BRANCH  22  26
ATOM     23  F   UNL     1      35.042 -16.703 -20.541  0.00  0.00    -0.204 F 
ATOM     24  O   UNL     1      33.602 -15.244 -27.211  0.00  0.00    -0.270 OA
ATOM     25  N   UNL     1      34.069 -15.649 -24.982  0.00  0.00    -0.255 N 
ATOM     26  C   UNL     1      34.662 -17.463 -23.482  0.00  0.00    +0.025 C 
ATOM     27  C   UNL     1      34.331 -17.094 -24.959  0.00  0.00    +0.101 C 
ATOM     28  C   UNL     1      34.550 -16.134 -22.788  0.00  0.00    +0.018 C 
ATOM     29  C   UNL     1      34.206 -15.147 -23.695  0.00  0.00    +0.052 C 
ATOM     30  C   UNL     1      34.022 -13.816 -23.379  0.00  0.00    +0.014 C 
ATOM     31  C   UNL     1      34.719 -15.787 -21.462  0.00  0.00    +0.137 C 
ATOM     32  C   UNL     1      33.736 -14.853 -26.055  0.00  0.00    +0.253 C 
ATOM     33  C   UNL     1      34.195 -13.458 -22.045  0.00  0.00    +0.004 C 
ATOM     34  C   UNL     1      34.541 -14.442 -21.094  0.00  0.00    +0.029 C 
ATOM     35  C   UNL     1      33.665 -12.921 -24.475  0.00  0.00    +0.006 C 
ATOM     36  C   UNL     1      33.531 -13.399 -25.724  0.00  0.00    +0.058 C 
ENDBRANCH  22  26
ENDBRANCH   1  22
TORSDOF 5
ENDMDL
MODEL 3
REMARK VINA RESULT:     -13.7      2.179     11.736
REMARK  Name = 119057475
REMARK  5 active torsions:
REMARK  status: ('A' for Active; 'I' for Inactive)
REMARK    1  A    between atoms: N_1  and  C_22
REMARK    2  A    between atoms: C_2  and  N_8
REMARK    3  A    between atoms: N_8  and  C_11
REMARK    4  A    between atoms: C_11  and  C_16
REMARK    5  A    between atoms: C_22  and  C_26
REMARK                            x       y       z     vdW  Elec       q    Type
REMARK                         _______ _______ _______ _____ _____    ______ ____
ROOT
ATOM      1  N   UNL     1      35.135 -21.895 -18.456  0.00  0.00    +0.387 N 
ATOM      2  C   UNL     1      34.654 -20.534 -21.001  0.00  0.00    -0.066 C 
ATOM      3  C   UNL     1      33.869 -22.090 -19.177  0.00  0.00    -0.079 C 
ATOM      4  C   UNL     1      36.244 -21.645 -19.387  0.00  0.00    -0.079 C 
ATOM      5  C   UNL     1      33.523 -20.864 -20.025  0.00  0.00    -0.044 C 
ATOM      6  C   UNL     1      35.978 -20.403 -20.242  0.00  0.00    -0.044 C 
ATOM      7  H   UNL     1      35.033 -21.074 -17.860  0.00  0.00    -0.080 HD
ENDROOT
BRANCH   2   8
ATOM      8  N   UNL     1      34.349 -19.308 -21.736  0.00  0.00    +0.389 N 
ATOM      9  H   UNL     1      34.180 -18.554 -21.069  0.00  0.00    -0.084 HD
ATOM     10  H   UNL     1      33.520 -19.468 -22.308  0.00  0.00    -0.084 HD
BRANCH   8  11
ATOM     11  C   UNL     1      35.453 -18.938 -22.607  0.00  0.00    -0.032 C 
BRANCH  11  16
ATOM     12  O   UNL     1      33.967 -14.455 -23.741  0.00  0.00    -0.467 OA
ATOM     13  O   UNL     1      33.960 -15.265 -26.502  0.00  0.00    -0.453 OA
ATOM     14  N   UNL     1      35.074 -18.250 -24.913  0.00  0.00    -0.151 NA
ATOM     15  N   UNL     1      34.711 -17.342 -25.860  0.00  0.00    -0.107 NA
ATOM     16  C   UNL     1      35.049 -17.893 -23.612  0.00  0.00    +0.062 C 
ATOM     17  C   UNL     1      34.679 -16.633 -23.187  0.00  0.00    +0.056 C 
ATOM     18  C   UNL     1      34.322 -15.708 -24.154  0.00  0.00    +0.194 C 
ATOM     19  C   UNL     1      34.332 -16.103 -25.480  0.00  0.00    +0.278 C 
ATOM     20  C   UNL     1      33.930 -13.525 -24.828  0.00  0.00    +0.253 C 
ATOM     21  C   UNL     1      33.224 -14.138 -26.021  0.00  0.00    +0.254 C 
ENDBRANCH  11  16
ENDBRANCH   8  11
ENDBRANCH   2   8
BRANCH   1  22
ATOM     22  C   UNL     1      35.427 -23.053 -17.611  0.00  0.00    -0.071 C 
BRANCH  22  26
ATOM     23  F   UNL     1      33.215 -22.689 -15.212  0.00  0.00    -0.204 F 
ATOM     24  O   UNL     1      39.969 -24.438 -15.074  0.00  0.00    -0.270 OA
ATOM     25  N   UNL     1      37.718 -23.904 -15.053  0.00  0.00    -0.255 N 
ATOM     26  C   UNL     1      36.075 -22.626 -16.302  0.00  0.00    +0.025 C 
ATOM     27  C   UNL     1      37.575 -23.038 -16.231  0.00  0.00    +0.101 C 
ATOM     28  C   UNL     1      35.494 -23.330 -15.106  0.00  0.00    +0.018 C 
ATOM     29  C   UNL     1      36.481 -24.033 -14.438  0.00  0.00    +0.052 C 
ATOM     30  C   UNL     1      36.276 -24.785 -13.299  0.00  0.00    +0.014 C 
ATOM     31  C   UNL     1      34.205 -23.360 -14.611  0.00  0.00    +0.137 C 
ATOM     32  C   UNL     1      38.851 -24.520 -14.571  0.00  0.00    +0.253 C 
ATOM     33  C   UNL     1      34.979 -24.823 -12.796  0.00  0.00    +0.004 C 
ATOM     34  C   UNL     1      33.951 -24.113 -13.451  0.00  0.00    +0.029 C 
ATOM     35  C   UNL     1      37.442 -25.462 -12.739  0.00  0.00    +0.006 C 
ATOM     36  C   UNL     1      38.644 -25.341 -13.328  0.00  0.00    +0.058 C 
ENDBRANCH  22  26
ENDBRANCH   1  22
TORSDOF 5
ENDMDL
MODEL 4
REMARK VINA RESULT:     -13.5      1.885      2.700
REMARK  Name = 119057475
REMARK  5 active torsions:
REMARK  status: ('A' for Active; 'I' for Inactive)
REMARK    1  A    between atoms: N_1  and  C_22
REMARK    2  A    between atoms: C_2  and  N_8
REMARK    3  A    between atoms: N_8  and  C_11
REMARK    4  A    between atoms: C_11  and  C_16
REMARK    5  A    between atoms: C_22  and  C_26
REMARK                            x       y       z     vdW  Elec       q    Type
REMARK                         _______ _______ _______ _____ _____    ______ ____
ROOT
ATOM      1  N   UNL     1      35.238 -18.899 -21.546  0.00  0.00    +0.387 N 
ATOM      2  C   UNL     1      36.379 -21.088 -19.975  0.00  0.00    -0.066 C 
ATOM      3  C   UNL     1      36.688 -19.142 -21.550  0.00  0.00    -0.079 C 
ATOM      4  C   UNL     1      34.490 -20.150 -21.359  0.00  0.00    -0.079 C 
ATOM      5  C   UNL     1      37.143 -19.790 -20.240  0.00  0.00    -0.044 C 
ATOM      6  C   UNL     1      34.871 -20.832 -20.042  0.00  0.00    -0.044 C 
ATOM      7  H   UNL     1      35.026 -18.286 -20.759  0.00  0.00    -0.080 HD
ENDROOT
BRANCH   2   8
ATOM      8  N   UNL     1      36.758 -21.643 -18.677  0.00  0.00    +0.389 N 
ATOM      9  H   UNL     1      37.286 -20.942 -18.156  0.00  0.00    -0.084 HD
ATOM     10  H   UNL     1      37.328 -22.475 -18.830  0.00  0.00    -0.084 HD
BRANCH   8  11
ATOM     11  C   UNL     1      35.580 -22.020 -17.911  0.00  0.00    -0.032 C 
BRANCH  11  16
ATOM     12  O   UNL     1      38.560 -23.796 -14.512  0.00  0.00    -0.467 OA
ATOM     13  O   UNL     1      36.582 -25.815 -13.977  0.00  0.00    -0.453 OA
ATOM     14  N   UNL     1      34.975 -23.942 -16.543  0.00  0.00    -0.151 NA
ATOM     15  N   UNL     1      35.228 -24.864 -15.574  0.00  0.00    -0.107 NA
ATOM     16  C   UNL     1      35.909 -23.011 -16.827  0.00  0.00    +0.062 C 
ATOM     17  C   UNL     1      37.120 -22.939 -16.169  0.00  0.00    +0.056 C 
ATOM     18  C   UNL     1      37.369 -23.871 -15.176  0.00  0.00    +0.194 C 
ATOM     19  C   UNL     1      36.407 -24.831 -14.917  0.00  0.00    +0.278 C 
ATOM     20  C   UNL     1      38.561 -24.595 -13.325  0.00  0.00    +0.253 C 
ATOM     21  C   UNL     1      37.955 -25.956 -13.606  0.00  0.00    +0.254 C 
ENDBRANCH  11  16
ENDBRANCH   8  11
ENDBRANCH   2   8
BRANCH   1  22
ATOM     22  C   UNL     1      34.826 -18.235 -22.782  0.00  0.00    -0.071 C 
BRANCH  22  26
ATOM     23  F   UNL     1      35.386 -17.071 -25.801  0.00  0.00    -0.204 F 
ATOM     24  O   UNL     1      33.061 -13.984 -19.991  0.00  0.00    -0.270 OA
ATOM     25  N   UNL     1      33.788 -14.954 -21.961  0.00  0.00    -0.255 N 
ATOM     26  C   UNL     1      35.200 -16.760 -22.761  0.00  0.00    +0.025 C 
ATOM     27  C   UNL     1      34.660 -16.039 -21.490  0.00  0.00    +0.101 C 
ATOM     28  C   UNL     1      34.552 -15.978 -23.871  0.00  0.00    +0.018 C 
ATOM     29  C   UNL     1      33.767 -14.965 -23.348  0.00  0.00    +0.052 C 
ATOM     30  C   UNL     1      33.040 -14.066 -24.101  0.00  0.00    +0.014 C 
ATOM     31  C   UNL     1      34.634 -16.114 -25.243  0.00  0.00    +0.137 C 
ATOM     32  C   UNL     1      33.078 -14.038 -21.218  0.00  0.00    +0.253 C 
ATOM     33  C   UNL     1      33.114 -14.199 -25.485  0.00  0.00    +0.004 C 
ATOM     34  C   UNL     1      33.909 -15.219 -26.049  0.00  0.00    +0.029 C 
ATOM     35  C   UNL     1      32.266 -13.067 -23.369  0.00  0.00    +0.006 C 
ATOM     36  C   UNL     1      32.281 -13.051 -22.025  0.00  0.00    +0.058 C 
ENDBRANCH  22  26
ENDBRANCH   1  22
TORSDOF 5
ENDMDL
MODEL 5
REMARK VINA RESULT:     -13.4      2.594     11.471
REMARK  Name = 119057475
REMARK  5 active torsions:
REMARK  status: ('A' for Active; 'I' for Inactive)
REMARK    1  A    between atoms: N_1  and  C_22
REMARK    2  A    between atoms: C_2  and  N_8
REMARK    3  A    between atoms: N_8  and  C_11
REMARK    4  A    between atoms: C_11  and  C_16
REMARK    5  A    between atoms: C_22  and  C_26
REMARK                            x       y       z     vdW  Elec       q    Type
REMARK                         _______ _______ _______ _____ _____    ______ ____
ROOT
ATOM      1  N   UNL     1      34.557 -22.310 -19.674  0.00  0.00    +0.387 N 
ATOM      2  C   UNL     1      35.278 -19.723 -20.836  0.00  0.00    -0.066 C 
ATOM      3  C   UNL     1      35.887 -21.733 -19.438  0.00  0.00    -0.079 C 
ATOM      4  C   UNL     1      33.543 -21.259 -19.838  0.00  0.00    -0.079 C 
ATOM      5  C   UNL     1      36.310 -20.827 -20.597  0.00  0.00    -0.044 C 
ATOM      6  C   UNL     1      33.886 -20.337 -21.011  0.00  0.00    -0.044 C 
ATOM      7  H   UNL     1      34.597 -22.845 -20.541  0.00  0.00    -0.080 HD
ENDROOT
BRANCH   2   8
ATOM      8  N   UNL     1      35.649 -18.926 -22.003  0.00  0.00    +0.389 N 
ATOM      9  H   UNL     1      35.157 -19.285 -22.822  0.00  0.00    -0.084 HD
ATOM     10  H   UNL     1      36.658 -18.993 -22.138  0.00  0.00    -0.084 HD
BRANCH   8  11
ATOM     11  C   UNL     1      35.296 -17.528 -21.809  0.00  0.00    -0.032 C 
BRANCH  11  16
ATOM     12  O   UNL     1      33.779 -13.668 -24.337  0.00  0.00    -0.467 OA
ATOM     13  O   UNL     1      33.830 -15.318 -26.693  0.00  0.00    -0.453 OA
ATOM     14  N   UNL     1      34.950 -17.620 -24.218  0.00  0.00    -0.151 NA
ATOM     15  N   UNL     1      34.594 -17.068 -25.411  0.00  0.00    -0.107 NA
ATOM     16  C   UNL     1      34.897 -16.866 -23.101  0.00  0.00    +0.062 C 
ATOM     17  C   UNL     1      34.505 -15.543 -23.107  0.00  0.00    +0.056 C 
ATOM     18  C   UNL     1      34.155 -14.981 -24.323  0.00  0.00    +0.194 C 
ATOM     19  C   UNL     1      34.193 -15.779 -25.453  0.00  0.00    +0.278 C 
ATOM     20  C   UNL     1      33.750 -13.135 -25.665  0.00  0.00    +0.253 C 
ATOM     21  C   UNL     1      33.072 -14.109 -26.609  0.00  0.00    +0.254 C 
ENDBRANCH  11  16
ENDBRANCH   8  11
ENDBRANCH   2   8
BRANCH   1  22
ATOM     22  C   UNL     1      34.188 -23.212 -18.583  0.00  0.00    -0.071 C 
BRANCH  22  26
ATOM     23  F   UNL     1      31.284 -22.927 -17.077  0.00  0.00    -0.204 F 
ATOM     24  O   UNL     1      37.777 -23.475 -14.580  0.00  0.00    -0.270 OA
ATOM     25  N   UNL     1      35.597 -23.331 -15.340  0.00  0.00    -0.255 N 
ATOM     26  C   UNL     1      34.314 -22.518 -17.234  0.00  0.00    +0.025 C 
ATOM     27  C   UNL     1      35.746 -22.658 -16.637  0.00  0.00    +0.101 C 
ATOM     28  C   UNL     1      33.462 -23.153 -16.170  0.00  0.00    +0.018 C 
ATOM     29  C   UNL     1      34.252 -23.589 -15.121  0.00  0.00    +0.052 C 
ATOM     30  C   UNL     1      33.777 -24.214 -13.985  0.00  0.00    +0.014 C 
ATOM     31  C   UNL     1      32.095 -23.339 -16.094  0.00  0.00    +0.137 C 
ATOM     32  C   UNL     1      36.575 -23.680 -14.436  0.00  0.00    +0.253 C 
ATOM     33  C   UNL     1      32.401 -24.408 -13.903  0.00  0.00    +0.004 C 
ATOM     34  C   UNL     1      31.567 -23.970 -14.955  0.00  0.00    +0.029 C 
ATOM     35  C   UNL     1      34.766 -24.607 -12.987  0.00  0.00    +0.006 C 
ATOM     36  C   UNL     1      36.071 -24.361 -13.192  0.00  0.00    +0.058 C 
ENDBRANCH  22  26
ENDBRANCH   1  22
TORSDOF 5
ENDMDL
MODEL 6
REMARK VINA RESULT:     -13.3      3.376     11.186
REMARK  Name = 119057475
REMARK  5 active torsions:
REMARK  status: ('A' for Active; 'I' for Inactive)
REMARK    1  A    between atoms: N_1  and  C_22
REMARK    2  A    between atoms: C_2  and  N_8
REMARK    3  A    between atoms: N_8  and  C_11
REMARK    4  A    between atoms: C_11  and  C_16
REMARK    5  A    between atoms: C_22  and  C_26
REMARK                            x       y       z     vdW  Elec       q    Type
REMARK                         _______ _______ _______ _____ _____    ______ ____
ROOT
ATOM      1  N   UNL     1      34.988 -21.756 -19.371  0.00  0.00    +0.387 N 
ATOM      2  C   UNL     1      34.743 -19.762 -21.499  0.00  0.00    -0.066 C 
ATOM      3  C   UNL     1      36.160 -20.980 -19.803  0.00  0.00    -0.079 C 
ATOM      4  C   UNL     1      33.750 -20.979 -19.524  0.00  0.00    -0.079 C 
ATOM      5  C   UNL     1      36.031 -20.556 -21.269  0.00  0.00    -0.044 C 
ATOM      6  C   UNL     1      33.540 -20.555 -20.980  0.00  0.00    -0.044 C 
ATOM      7  H   UNL     1      34.919 -22.579 -19.970  0.00  0.00    -0.080 HD
ENDROOT
BRANCH   2   8
ATOM      8  N   UNL     1      34.589 -19.447 -22.918  0.00  0.00    +0.389 N 
ATOM      9  H   UNL     1      33.684 -18.998 -23.064  0.00  0.00    -0.084 HD
ATOM     10  H   UNL     1      34.646 -20.313 -23.454  0.00  0.00    -0.084 HD
BRANCH   8  11
ATOM     11  C   UNL     1      35.644 -18.551 -23.366  0.00  0.00    -0.032 C 
BRANCH  11  16
ATOM     12  O   UNL     1      33.845 -15.411 -26.606  0.00  0.00    -0.467 OA
ATOM     13  O   UNL     1      33.734 -13.456 -24.497  0.00  0.00    -0.453 OA
ATOM     14  N   UNL     1      35.018 -16.279 -22.749  0.00  0.00    -0.151 NA
ATOM     15  N   UNL     1      34.544 -15.035 -23.036  0.00  0.00    -0.107 NA
ATOM     16  C   UNL     1      35.108 -17.194 -23.737  0.00  0.00    +0.062 C 
ATOM     17  C   UNL     1      34.728 -16.933 -25.038  0.00  0.00    +0.056 C 
ATOM     18  C   UNL     1      34.235 -15.671 -25.323  0.00  0.00    +0.194 C 
ATOM     19  C   UNL     1      34.174 -14.741 -24.300  0.00  0.00    +0.278 C 
ATOM     20  C   UNL     1      33.077 -14.207 -26.697  0.00  0.00    +0.253 C 
ATOM     21  C   UNL     1      33.727 -13.105 -25.883  0.00  0.00    +0.254 C 
ENDBRANCH  11  16
ENDBRANCH   8  11
ENDBRANCH   2   8
BRANCH   1  22
ATOM     22  C   UNL     1      35.148 -22.197 -17.986  0.00  0.00    -0.071 C 
BRANCH  22  26
ATOM     23  F   UNL     1      36.455 -24.292 -15.822  0.00  0.00    -0.204 F 
ATOM     24  O   UNL     1      29.839 -22.529 -17.164  0.00  0.00    -0.270 OA
ATOM     25  N   UNL     1      32.012 -23.127 -16.641  0.00  0.00    -0.255 N 
ATOM     26  C   UNL     1      34.202 -23.345 -17.664  0.00  0.00    +0.025 C 
ATOM     27  C   UNL     1      32.714 -22.963 -17.921  0.00  0.00    +0.101 C 
ATOM     28  C   UNL     1      34.193 -23.701 -16.203  0.00  0.00    +0.018 C 
ATOM     29  C   UNL     1      32.918 -23.561 -15.684  0.00  0.00    +0.052 C 
ATOM     30  C   UNL     1      32.571 -23.813 -14.372  0.00  0.00    +0.014 C 
ATOM     31  C   UNL     1      35.207 -24.131 -15.369  0.00  0.00    +0.137 C 
ATOM     32  C   UNL     1      30.682 -22.911 -16.356  0.00  0.00    +0.253 C 
ATOM     33  C   UNL     1      33.588 -24.242 -13.524  0.00  0.00    +0.004 C 
ATOM     34  C   UNL     1      34.898 -24.399 -14.024  0.00  0.00    +0.029 C 
ATOM     35  C   UNL     1      31.172 -23.603 -14.009  0.00  0.00    +0.006 C 
ATOM     36  C   UNL     1      30.289 -23.182 -14.930  0.00  0.00    +0.058 C 
ENDBRANCH  22  26
ENDBRANCH   1  22
TORSDOF 5
ENDMDL
MODEL 7
REMARK VINA RESULT:     -13.3      2.410      3.351
REMARK  Name = 119057475
REMARK  5 active torsions:
REMARK  status: ('A' for Active; 'I' for Inactive)
REMARK    1  A    between atoms: N_1  and  C_22
REMARK    2  A    between atoms: C_2  and  N_8
REMARK    3  A    between atoms: N_8  and  C_11
REMARK    4  A    between atoms: C_11  and  C_16
REMARK    5  A    between atoms: C_22  and  C_26
REMARK                            x       y       z     vdW  Elec       q    Type
REMARK                         _______ _______ _______ _____ _____    ______ ____
ROOT
ATOM      1  N   UNL     1      34.489 -20.110 -20.654  0.00  0.00    +0.387 N 
ATOM      2  C   UNL     1      35.119 -22.343 -18.871  0.00  0.00    -0.066 C 
ATOM      3  C   UNL     1      35.819 -20.736 -20.685  0.00  0.00    -0.079 C 
ATOM      4  C   UNL     1      33.452 -21.084 -20.286  0.00  0.00    -0.079 C 
ATOM      5  C   UNL     1      36.178 -21.337 -19.323  0.00  0.00    -0.044 C 
ATOM      6  C   UNL     1      33.731 -21.696 -18.910  0.00  0.00    -0.044 C 
ATOM      7  H   UNL     1      34.503 -19.381 -19.941  0.00  0.00    -0.080 HD
ENDROOT
BRANCH   2   8
ATOM      8  N   UNL     1      35.428 -22.835 -17.530  0.00  0.00    +0.389 N 
ATOM      9  H   UNL     1      35.892 -22.095 -17.002  0.00  0.00    -0.084 HD
ATOM     10  H   UNL     1      36.039 -23.648 -17.613  0.00  0.00    -0.084 HD
BRANCH   8  11
ATOM     11  C   UNL     1      34.215 -23.232 -16.832  0.00  0.00    -0.032 C 
BRANCH  11  16
ATOM     12  O   UNL     1      37.084 -23.173 -12.913  0.00  0.00    -0.467 OA
ATOM     13  O   UNL     1      34.947 -24.430 -11.454  0.00  0.00    -0.453 OA
ATOM     14  N   UNL     1      33.468 -24.079 -14.673  0.00  0.00    -0.151 NA
ATOM     15  N   UNL     1      33.655 -24.364 -13.355  0.00  0.00    -0.107 NA
ATOM     16  C   UNL     1      34.474 -23.520 -15.377  0.00  0.00    +0.062 C 
ATOM     17  C   UNL     1      35.698 -23.210 -14.818  0.00  0.00    +0.056 C 
ATOM     18  C   UNL     1      35.881 -23.490 -13.475  0.00  0.00    +0.194 C 
ATOM     19  C   UNL     1      34.843 -24.084 -12.778  0.00  0.00    +0.278 C 
ATOM     20  C   UNL     1      37.035 -23.217 -11.483  0.00  0.00    +0.253 C 
ATOM     21  C   UNL     1      36.309 -24.465 -11.021  0.00  0.00    +0.254 C 
ENDBRANCH  11  16
ENDBRANCH   8  11
ENDBRANCH   2   8
BRANCH   1  22
ATOM     22  C   UNL     1      34.181 -19.497 -21.946  0.00  0.00    -0.071 C 
BRANCH  22  26
ATOM     23  F   UNL     1      34.912 -19.429 -25.146  0.00  0.00    -0.204 F 
ATOM     24  O   UNL     1      34.773 -14.404 -20.306  0.00  0.00    -0.270 OA
ATOM     25  N   UNL     1      34.799 -16.014 -21.968  0.00  0.00    -0.255 N 
ATOM     26  C   UNL     1      35.174 -18.393 -22.278  0.00  0.00    +0.025 C 
ATOM     27  C   UNL     1      35.136 -17.240 -21.231  0.00  0.00    +0.101 C 
ATOM     28  C   UNL     1      34.841 -17.673 -23.556  0.00  0.00    +0.018 C 
ATOM     29  C   UNL     1      34.645 -16.326 -23.311  0.00  0.00    +0.052 C 
ATOM     30  C   UNL     1      34.327 -15.389 -24.273  0.00  0.00    +0.014 C 
ATOM     31  C   UNL     1      34.723 -18.137 -24.852  0.00  0.00    +0.137 C 
ATOM     32  C   UNL     1      34.647 -14.734 -21.483  0.00  0.00    +0.253 C 
ATOM     33  C   UNL     1      34.202 -15.849 -25.581  0.00  0.00    +0.004 C 
ATOM     34  C   UNL     1      34.401 -17.217 -25.865  0.00  0.00    +0.029 C 
ATOM     35  C   UNL     1      34.154 -14.012 -23.821  0.00  0.00    +0.006 C 
ATOM     36  C   UNL     1      34.302 -13.702 -22.521  0.00  0.00    +0.058 C 
ENDBRANCH  22  26
ENDBRANCH   1  22
TORSDOF 5
ENDMDL
MODEL 8
REMARK VINA RESULT:     -13.1      2.541     11.297
REMARK  Name = 119057475
REMARK  5 active torsions:
REMARK  status: ('A' for Active; 'I' for Inactive)
REMARK    1  A    between atoms: N_1  and  C_22
REMARK    2  A    between atoms: C_2  and  N_8
REMARK    3  A    between atoms: N_8  and  C_11
REMARK    4  A    between atoms: C_11  and  C_16
REMARK    5  A    between atoms: C_22  and  C_26
REMARK                            x       y       z     vdW  Elec       q    Type
REMARK                         _______ _______ _______ _____ _____    ______ ____
ROOT
ATOM      1  N   UNL     1      35.142 -21.480 -18.958  0.00  0.00    +0.387 N 
ATOM      2  C   UNL     1      35.039 -20.039 -21.503  0.00  0.00    -0.066 C 
ATOM      3  C   UNL     1      33.924 -21.508 -19.781  0.00  0.00    -0.079 C 
ATOM      4  C   UNL     1      36.345 -21.358 -19.794  0.00  0.00    -0.079 C 
ATOM      5  C   UNL     1      33.800 -20.238 -20.627  0.00  0.00    -0.044 C 
ATOM      6  C   UNL     1      36.303 -20.083 -20.640  0.00  0.00    -0.044 C 
ATOM      7  H   UNL     1      35.093 -20.660 -18.355  0.00  0.00    -0.080 HD
ENDROOT
BRANCH   2   8
ATOM      8  N   UNL     1      34.946 -18.776 -22.232  0.00  0.00    +0.389 N 
ATOM      9  H   UNL     1      33.964 -18.573 -22.424  0.00  0.00    -0.084 HD
ATOM     10  H   UNL     1      35.467 -18.863 -23.105  0.00  0.00    -0.084 HD
BRANCH   8  11
ATOM     11  C   UNL     1      35.515 -17.687 -21.454  0.00  0.00    -0.032 C 
BRANCH  11  16
ATOM     12  O   UNL     1      32.475 -13.988 -20.633  0.00  0.00    -0.467 OA
ATOM     13  O   UNL     1      33.430 -12.795 -23.071  0.00  0.00    -0.453 OA
ATOM     14  N   UNL     1      35.381 -15.771 -22.953  0.00  0.00    -0.151 NA
ATOM     15  N   UNL     1      34.867 -14.570 -23.338  0.00  0.00    -0.107 NA
ATOM     16  C   UNL     1      34.917 -16.357 -21.830  0.00  0.00    +0.062 C 
ATOM     17  C   UNL     1      33.942 -15.789 -21.035  0.00  0.00    +0.056 C 
ATOM     18  C   UNL     1      33.431 -14.562 -21.423  0.00  0.00    +0.194 C 
ATOM     19  C   UNL     1      33.904 -13.990 -22.591  0.00  0.00    +0.278 C 
ATOM     20  C   UNL     1      32.266 -12.612 -20.964  0.00  0.00    +0.253 C 
ATOM     21  C   UNL     1      32.184 -12.438 -22.468  0.00  0.00    +0.254 C 
ENDBRANCH  11  16
ENDBRANCH   8  11
ENDBRANCH   2   8
BRANCH   1  22
ATOM     22  C   UNL     1      35.221 -22.675 -18.119  0.00  0.00    -0.071 C 
BRANCH  22  26
ATOM     23  F   UNL     1      32.793 -22.554 -15.912  0.00  0.00    -0.204 F 
ATOM     24  O   UNL     1      39.560 -24.137 -15.289  0.00  0.00    -0.270 OA
ATOM     25  N   UNL     1      37.300 -23.663 -15.433  0.00  0.00    -0.255 N 
ATOM     26  C   UNL     1      35.735 -22.334 -16.728  0.00  0.00    +0.025 C 
ATOM     27  C   UNL     1      37.235 -22.712 -16.551  0.00  0.00    +0.101 C 
ATOM     28  C   UNL     1      35.073 -23.143 -15.646  0.00  0.00    +0.018 C 
ATOM     29  C   UNL     1      36.018 -23.871 -14.945  0.00  0.00    +0.052 C 
ATOM     30  C   UNL     1      35.737 -24.713 -13.889  0.00  0.00    +0.014 C 
ATOM     31  C   UNL     1      33.746 -23.244 -15.274  0.00  0.00    +0.137 C 
ATOM     32  C   UNL     1      38.405 -24.285 -14.897  0.00  0.00    +0.253 C 
ATOM     33  C   UNL     1      34.403 -24.823 -13.510  0.00  0.00    +0.004 C 
ATOM     34  C   UNL     1      33.415 -24.090 -14.201  0.00  0.00    +0.029 C 
ATOM     35  C   UNL     1      36.870 -25.401 -13.276  0.00  0.00    +0.006 C 
ATOM     36  C   UNL     1      38.115 -25.205 -13.743  0.00  0.00    +0.058 C 
ENDBRANCH  22  26
ENDBRANCH   1  22
TORSDOF 5
ENDMDL
MODEL 9
REMARK VINA RESULT:     -13.0      2.351     11.494
REMARK  Name = 119057475
REMARK  5 active torsions:
REMARK  status: ('A' for Active; 'I' for Inactive)
REMARK    1  A    between atoms: N_1  and  C_22
REMARK    2  A    between atoms: C_2  and  N_8
REMARK    3  A    between atoms: N_8  and  C_11
REMARK    4  A    between atoms: C_11  and  C_16
REMARK    5  A    between atoms: C_22  and  C_26
REMARK                            x       y       z     vdW  Elec       q    Type
REMARK                         _______ _______ _______ _____ _____    ______ ____
ROOT
ATOM      1  N   UNL     1      34.971 -21.574 -18.853  0.00  0.00    +0.387 N 
ATOM      2  C   UNL     1      34.958 -20.221 -21.448  0.00  0.00    -0.066 C 
ATOM      3  C   UNL     1      33.760 -21.572 -19.685  0.00  0.00    -0.079 C 
ATOM      4  C   UNL     1      36.185 -21.540 -19.681  0.00  0.00    -0.079 C 
ATOM      5  C   UNL     1      33.705 -20.328 -20.577  0.00  0.00    -0.044 C 
ATOM      6  C   UNL     1      36.212 -20.296 -20.572  0.00  0.00    -0.044 C 
ATOM      7  H   UNL     1      34.959 -20.731 -18.279  0.00  0.00    -0.080 HD
ENDROOT
BRANCH   2   8
ATOM      8  N   UNL     1      34.932 -18.982 -22.222  0.00  0.00    +0.389 N 
ATOM      9  H   UNL     1      33.978 -18.807 -22.539  0.00  0.00    -0.084 HD
ATOM     10  H   UNL     1      35.559 -19.082 -23.020  0.00  0.00    -0.084 HD
BRANCH   8  11
ATOM     11  C   UNL     1      35.381 -17.858 -21.414  0.00  0.00    -0.032 C 
BRANCH  11  16
ATOM     12  O   UNL     1      34.056 -15.081 -25.173  0.00  0.00    -0.467 OA
ATOM     13  O   UNL     1      33.827 -12.880 -23.334  0.00  0.00    -0.453 OA
ATOM     14  N   UNL     1      34.802 -15.508 -21.140  0.00  0.00    -0.151 NA
ATOM     15  N   UNL     1      34.416 -14.294 -21.620  0.00  0.00    -0.107 NA
ATOM     16  C   UNL     1      34.946 -16.540 -21.997  0.00  0.00    +0.062 C 
ATOM     17  C   UNL     1      34.709 -16.428 -23.352  0.00  0.00    +0.056 C 
ATOM     18  C   UNL     1      34.305 -15.195 -23.835  0.00  0.00    +0.194 C 
ATOM     19  C   UNL     1      34.186 -14.144 -22.941  0.00  0.00    +0.278 C 
ATOM     20  C   UNL     1      33.356 -13.872 -25.485  0.00  0.00    +0.253 C 
ATOM     21  C   UNL     1      33.973 -12.702 -24.745  0.00  0.00    +0.254 C 
ENDBRANCH  11  16
ENDBRANCH   8  11
ENDBRANCH   2   8
BRANCH   1  22
ATOM     22  C   UNL     1      34.985 -22.741 -17.972  0.00  0.00    -0.071 C 
BRANCH  22  26
ATOM     23  F   UNL     1      32.650 -22.580 -15.669  0.00  0.00    -0.204 F 
ATOM     24  O   UNL     1      39.427 -24.201 -15.304  0.00  0.00    -0.270 OA
ATOM     25  N   UNL     1      37.166 -23.713 -15.362  0.00  0.00    -0.255 N 
ATOM     26  C   UNL     1      35.557 -22.388 -16.606  0.00  0.00    +0.025 C 
ATOM     27  C   UNL     1      37.062 -22.774 -16.486  0.00  0.00    +0.101 C 
ATOM     28  C   UNL     1      34.935 -23.181 -15.490  0.00  0.00    +0.018 C 
ATOM     29  C   UNL     1      35.904 -23.908 -14.820  0.00  0.00    +0.052 C 
ATOM     30  C   UNL     1      35.661 -24.737 -13.744  0.00  0.00    +0.014 C 
ATOM     31  C   UNL     1      33.624 -23.270 -15.063  0.00  0.00    +0.137 C 
ATOM     32  C   UNL     1      38.289 -24.337 -14.864  0.00  0.00    +0.253 C 
ATOM     33  C   UNL     1      34.342 -24.834 -13.310  0.00  0.00    +0.004 C 
ATOM     34  C   UNL     1      33.332 -24.102 -13.969  0.00  0.00    +0.029 C 
ATOM     35  C   UNL     1      36.813 -25.426 -13.170  0.00  0.00    +0.006 C 
ATOM     36  C   UNL     1      38.039 -25.243 -13.689  0.00  0.00    +0.058 C 
ENDBRANCH  22  26
ENDBRANCH   1  22
TORSDOF 5
ENDMDL
