MODEL 1
REMARK VINA RESULT:     -13.8      0.000      0.000
REMARK  Name = 204109
REMARK  5 active torsions:
REMARK  status: ('A' for Active; 'I' for Inactive)
REMARK    1  A    between atoms: C_1  and  C_20
REMARK    2  A    between atoms: C_9  and  O_11
REMARK    3  A    between atoms: O_11  and  C_12
REMARK    4  A    between atoms: C_12  and  C_14
REMARK    5  A    between atoms: C_20  and  C_25
REMARK                            x       y       z     vdW  Elec       q    Type
REMARK                         _______ _______ _______ _____ _____    ______ ____
ROOT
ATOM      1  C   UNL     1      35.932 -18.826 -21.794  0.00  0.00    -0.021 C 
ATOM      2  C   UNL     1      34.512 -20.370 -20.559  0.00  0.00    -0.000 C 
ATOM      3  C   UNL     1      34.665 -19.318 -21.477  0.00  0.00    -0.004 C 
ATOM      4  C   UNL     1      35.662 -20.931 -19.954  0.00  0.00    +0.003 C 
ATOM      5  C   UNL     1      37.061 -19.378 -21.198  0.00  0.00    -0.004 C 
ATOM      6  C   UNL     1      36.929 -20.425 -20.284  0.00  0.00    -0.000 C 
ATOM      7  C   UNL     1      35.510 -21.983 -19.036  0.00  0.00    +0.037 C 
ATOM      8  C   UNL     1      33.245 -20.876 -20.229  0.00  0.00    +0.003 C 
ATOM      9  C   UNL     1      34.242 -22.474 -18.719  0.00  0.00    +0.139 C 
ATOM     10  C   UNL     1      33.112 -21.922 -19.315  0.00  0.00    +0.037 C 
ENDROOT
BRANCH   9  11
ATOM     11  O   UNL     1      34.110 -23.495 -17.828  0.00  0.00    -0.471 OA
BRANCH  11  12
ATOM     12  C   UNL     1      34.199 -23.164 -16.443  0.00  0.00    +0.234 C 
BRANCH  12  14
ATOM     13  F   UNL     1      34.296 -24.742 -14.101  0.00  0.00    -0.204 F 
ATOM     14  C   UNL     1      32.978 -23.575 -15.694  0.00  0.00    +0.049 C 
ATOM     15  C   UNL     1      33.092 -24.355 -14.543  0.00  0.00    +0.140 C 
ATOM     16  C   UNL     1      31.719 -23.179 -16.146  0.00  0.00    +0.002 C 
ATOM     17  C   UNL     1      31.947 -24.738 -13.844  0.00  0.00    +0.029 C 
ATOM     18  C   UNL     1      30.574 -23.563 -15.447  0.00  0.00    -0.000 C 
ATOM     19  C   UNL     1      30.688 -24.341 -14.296  0.00  0.00    +0.002 C 
ENDBRANCH  12  14
ENDBRANCH  11  12
ENDBRANCH   9  11
BRANCH   1  20
ATOM     20  C   UNL     1      36.075 -17.709 -22.771  0.00  0.00    +0.047 C 
BRANCH  20  25
ATOM     21  S   UNL     1      34.507 -17.517 -25.035  0.00  0.00    -0.048 S 
ATOM     22  O   UNL     1      34.767 -15.104 -22.033  0.00  0.00    -0.274 OA
ATOM     23  O   UNL     1      34.003 -15.446 -26.575  0.00  0.00    -0.263 OA
ATOM     24  N   UNL     1      34.347 -15.074 -24.307  0.00  0.00    -0.246 N 
ATOM     25  C   UNL     1      34.725 -17.187 -23.259  0.00  0.00    +0.137 C 
ATOM     26  C   UNL     1      34.624 -15.687 -23.102  0.00  0.00    +0.239 C 
ATOM     27  C   UNL     1      34.240 -15.835 -25.441  0.00  0.00    +0.279 C 
ATOM     28  H   UNL     1      34.228 -14.097 -24.351  0.00  0.00    +0.158 HD
ENDBRANCH  20  25
ENDBRANCH   1  20
TORSDOF 5
ENDMDL
MODEL 2
REMARK VINA RESULT:     -13.5      1.934      2.770
REMARK  Name = 204109
REMARK  5 active torsions:
REMARK  status: ('A' for Active; 'I' for Inactive)
REMARK    1  A    between atoms: C_1  and  C_20
REMARK    2  A    between atoms: C_9  and  O_11
REMARK    3  A    between atoms: O_11  and  C_12
REMARK    4  A    between atoms: C_12  and  C_14
REMARK    5  A    between atoms: C_20  and  C_25
REMARK                            x       y       z     vdW  Elec       q    Type
REMARK                         _______ _______ _______ _____ _____    ______ ____
ROOT
ATOM      1  C   UNL     1      36.022 -18.892 -21.840  0.00  0.00    -0.021 C 
ATOM      2  C   UNL     1      34.683 -20.439 -20.522  0.00  0.00    -0.000 C 
ATOM      3  C   UNL     1      34.786 -19.453 -21.517  0.00  0.00    -0.004 C 
ATOM      4  C   UNL     1      35.852 -20.860 -19.844  0.00  0.00    +0.003 C 
ATOM      5  C   UNL     1      37.170 -19.307 -21.173  0.00  0.00    -0.004 C 
ATOM      6  C   UNL     1      37.088 -20.286 -20.182  0.00  0.00    -0.000 C 
ATOM      7  C   UNL     1      35.750 -21.846 -18.849  0.00  0.00    +0.037 C 
ATOM      8  C   UNL     1      33.448 -21.014 -20.184  0.00  0.00    +0.003 C 
ATOM      9  C   UNL     1      34.514 -22.407 -18.526  0.00  0.00    +0.139 C 
ATOM     10  C   UNL     1      33.365 -21.992 -19.193  0.00  0.00    +0.037 C 
ENDROOT
BRANCH   9  11
ATOM     11  O   UNL     1      34.431 -23.362 -17.559  0.00  0.00    -0.471 OA
BRANCH  11  12
ATOM     12  C   UNL     1      34.822 -22.987 -16.240  0.00  0.00    +0.234 C 
BRANCH  12  14
ATOM     13  F   UNL     1      37.483 -22.099 -15.892  0.00  0.00    -0.204 F 
ATOM     14  C   UNL     1      35.905 -23.865 -15.711  0.00  0.00    +0.049 C 
ATOM     15  C   UNL     1      37.199 -23.367 -15.562  0.00  0.00    +0.140 C 
ATOM     16  C   UNL     1      35.622 -25.185 -15.365  0.00  0.00    +0.002 C 
ATOM     17  C   UNL     1      38.211 -24.190 -15.066  0.00  0.00    +0.029 C 
ATOM     18  C   UNL     1      36.634 -26.009 -14.870  0.00  0.00    -0.000 C 
ATOM     19  C   UNL     1      37.928 -25.512 -14.720  0.00  0.00    +0.002 C 
ENDBRANCH  12  14
ENDBRANCH  11  12
ENDBRANCH   9  11
BRANCH   1  20
ATOM     20  C   UNL     1      36.111 -17.847 -22.900  0.00  0.00    +0.047 C 
BRANCH  20  25
ATOM     21  S   UNL     1      34.462 -17.618 -25.102  0.00  0.00    -0.048 S 
ATOM     22  O   UNL     1      34.795 -15.282 -22.048  0.00  0.00    -0.274 OA
ATOM     23  O   UNL     1      33.876 -15.515 -26.567  0.00  0.00    -0.263 OA
ATOM     24  N   UNL     1      34.295 -15.197 -24.303  0.00  0.00    -0.246 N 
ATOM     25  C   UNL     1      34.738 -17.332 -23.327  0.00  0.00    +0.137 C 
ATOM     26  C   UNL     1      34.622 -15.838 -23.126  0.00  0.00    +0.239 C 
ATOM     27  C   UNL     1      34.158 -15.930 -25.453  0.00  0.00    +0.279 C 
ATOM     28  H   UNL     1      34.161 -14.222 -24.317  0.00  0.00    +0.158 HD
ENDBRANCH  20  25
ENDBRANCH   1  20
TORSDOF 5
ENDMDL
MODEL 3
REMARK VINA RESULT:     -13.3      1.169      2.052
REMARK  Name = 204109
REMARK  5 active torsions:
REMARK  status: ('A' for Active; 'I' for Inactive)
REMARK    1  A    between atoms: C_1  and  C_20
REMARK    2  A    between atoms: C_9  and  O_11
REMARK    3  A    between atoms: O_11  and  C_12
REMARK    4  A    between atoms: C_12  and  C_14
REMARK    5  A    between atoms: C_20  and  C_25
REMARK                            x       y       z     vdW  Elec       q    Type
REMARK                         _______ _______ _______ _____ _____    ______ ____
ROOT
ATOM      1  C   UNL     1      35.167 -19.946 -21.200  0.00  0.00    -0.021 C 
ATOM      2  C   UNL     1      35.450 -21.377 -19.252  0.00  0.00    -0.000 C 
ATOM      3  C   UNL     1      35.987 -20.522 -20.229  0.00  0.00    -0.004 C 
ATOM      4  C   UNL     1      34.062 -21.651 -19.262  0.00  0.00    +0.003 C 
ATOM      5  C   UNL     1      33.802 -20.217 -21.209  0.00  0.00    -0.004 C 
ATOM      6  C   UNL     1      33.251 -21.063 -20.246  0.00  0.00    -0.000 C 
ATOM      7  C   UNL     1      33.525 -22.506 -18.285  0.00  0.00    +0.037 C 
ATOM      8  C   UNL     1      36.260 -21.965 -18.268  0.00  0.00    +0.003 C 
ATOM      9  C   UNL     1      34.345 -23.082 -17.314  0.00  0.00    +0.139 C 
ATOM     10  C   UNL     1      35.710 -22.812 -17.305  0.00  0.00    +0.037 C 
ENDROOT
BRANCH   9  11
ATOM     11  O   UNL     1      33.810 -23.908 -16.373  0.00  0.00    -0.471 OA
BRANCH  11  12
ATOM     12  C   UNL     1      33.014 -23.304 -15.356  0.00  0.00    +0.234 C 
BRANCH  12  14
ATOM     13  F   UNL     1      32.059 -25.473 -13.816  0.00  0.00    -0.204 F 
ATOM     14  C   UNL     1      31.599 -23.771 -15.406  0.00  0.00    +0.049 C 
ATOM     15  C   UNL     1      31.189 -24.848 -14.621  0.00  0.00    +0.140 C 
ATOM     16  C   UNL     1      30.685 -23.128 -16.240  0.00  0.00    +0.002 C 
ATOM     17  C   UNL     1      29.863 -25.283 -14.670  0.00  0.00    +0.029 C 
ATOM     18  C   UNL     1      29.360 -23.563 -16.290  0.00  0.00    -0.000 C 
ATOM     19  C   UNL     1      28.949 -24.640 -15.504  0.00  0.00    +0.002 C 
ENDBRANCH  12  14
ENDBRANCH  11  12
ENDBRANCH   9  11
BRANCH   1  20
ATOM     20  C   UNL     1      35.755 -19.041 -22.230  0.00  0.00    +0.047 C 
BRANCH  20  25
ATOM     21  S   UNL     1      34.629 -18.341 -24.651  0.00  0.00    -0.048 S 
ATOM     22  O   UNL     1      35.255 -16.160 -21.529  0.00  0.00    -0.274 OA
ATOM     23  O   UNL     1      35.005 -16.207 -26.140  0.00  0.00    -0.263 OA
ATOM     24  N   UNL     1      35.159 -15.981 -23.832  0.00  0.00    -0.246 N 
ATOM     25  C   UNL     1      34.712 -18.112 -22.848  0.00  0.00    +0.137 C 
ATOM     26  C   UNL     1      35.072 -16.659 -22.634  0.00  0.00    +0.239 C 
ATOM     27  C   UNL     1      34.961 -16.660 -25.006  0.00  0.00    +0.279 C 
ATOM     28  H   UNL     1      35.361 -15.017 -23.844  0.00  0.00    +0.158 HD
ENDBRANCH  20  25
ENDBRANCH   1  20
TORSDOF 5
ENDMDL
MODEL 4
REMARK VINA RESULT:     -13.3      5.206      7.982
REMARK  Name = 204109
REMARK  5 active torsions:
REMARK  status: ('A' for Active; 'I' for Inactive)
REMARK    1  A    between atoms: C_1  and  C_20
REMARK    2  A    between atoms: C_9  and  O_11
REMARK    3  A    between atoms: O_11  and  C_12
REMARK    4  A    between atoms: C_12  and  C_14
REMARK    5  A    between atoms: C_20  and  C_25
REMARK                            x       y       z     vdW  Elec       q    Type
REMARK                         _______ _______ _______ _____ _____    ______ ____
ROOT
ATOM      1  C   UNL     1      32.120 -12.018 -21.887  0.00  0.00    -0.021 C 
ATOM      2  C   UNL     1      33.595 -13.806 -22.627  0.00  0.00    -0.000 C 
ATOM      3  C   UNL     1      32.910 -12.606 -22.876  0.00  0.00    -0.004 C 
ATOM      4  C   UNL     1      33.477 -14.419 -21.356  0.00  0.00    +0.003 C 
ATOM      5  C   UNL     1      32.004 -12.621 -20.638  0.00  0.00    -0.004 C 
ATOM      6  C   UNL     1      32.679 -13.813 -20.372  0.00  0.00    -0.000 C 
ATOM      7  C   UNL     1      34.162 -15.619 -21.107  0.00  0.00    +0.037 C 
ATOM      8  C   UNL     1      34.394 -14.412 -23.610  0.00  0.00    +0.003 C 
ATOM      9  C   UNL     1      34.952 -16.207 -22.096  0.00  0.00    +0.139 C 
ATOM     10  C   UNL     1      35.068 -15.604 -23.345  0.00  0.00    +0.037 C 
ENDROOT
BRANCH   9  11
ATOM     11  O   UNL     1      35.611 -17.371 -21.839  0.00  0.00    -0.471 OA
BRANCH  11  12
ATOM     12  C   UNL     1      35.042 -18.569 -22.362  0.00  0.00    +0.234 C 
BRANCH  12  14
ATOM     13  F   UNL     1      37.349 -19.635 -21.125  0.00  0.00    -0.204 F 
ATOM     14  C   UNL     1      34.984 -19.650 -21.336  0.00  0.00    +0.049 C 
ATOM     15  C   UNL     1      36.159 -20.134 -20.763  0.00  0.00    +0.140 C 
ATOM     16  C   UNL     1      33.751 -20.178 -20.952  0.00  0.00    +0.002 C 
ATOM     17  C   UNL     1      36.102 -21.146 -19.803  0.00  0.00    +0.029 C 
ATOM     18  C   UNL     1      33.693 -21.190 -19.994  0.00  0.00    -0.000 C 
ATOM     19  C   UNL     1      34.868 -21.673 -19.419  0.00  0.00    +0.002 C 
ENDBRANCH  12  14
ENDBRANCH  11  12
ENDBRANCH   9  11
BRANCH   1  20
ATOM     20  C   UNL     1      31.399 -10.743 -22.169  0.00  0.00    +0.047 C 
BRANCH  20  25
ATOM     21  S   UNL     1      32.393  -8.925 -20.345  0.00  0.00    -0.048 S 
ATOM     22  O   UNL     1      31.562  -8.429 -24.081  0.00  0.00    -0.274 OA
ATOM     23  O   UNL     1      31.738  -6.413 -19.930  0.00  0.00    -0.263 OA
ATOM     24  N   UNL     1      31.597  -7.244 -22.096  0.00  0.00    -0.246 N 
ATOM     25  C   UNL     1      32.312  -9.524 -22.061  0.00  0.00    +0.137 C 
ATOM     26  C   UNL     1      31.785  -8.365 -22.877  0.00  0.00    +0.239 C 
ATOM     27  C   UNL     1      31.855  -7.310 -20.752  0.00  0.00    +0.279 C 
ATOM     28  H   UNL     1      31.280  -6.404 -22.500  0.00  0.00    +0.158 HD
ENDBRANCH  20  25
ENDBRANCH   1  20
TORSDOF 5
ENDMDL
MODEL 5
REMARK VINA RESULT:     -13.2      4.746     10.011
REMARK  Name = 204109
REMARK  5 active torsions:
REMARK  status: ('A' for Active; 'I' for Inactive)
REMARK    1  A    between atoms: C_1  and  C_20
REMARK    2  A    between atoms: C_9  and  O_11
REMARK    3  A    between atoms: O_11  and  C_12
REMARK    4  A    between atoms: C_12  and  C_14
REMARK    5  A    between atoms: C_20  and  C_25
REMARK                            x       y       z     vdW  Elec       q    Type
REMARK                         _______ _______ _______ _____ _____    ______ ____
ROOT
ATOM      1  C   UNL     1      35.197 -19.168 -22.105  0.00  0.00    -0.021 C 
ATOM      2  C   UNL     1      34.868 -16.774 -21.815  0.00  0.00    -0.000 C 
ATOM      3  C   UNL     1      35.022 -18.061 -21.274  0.00  0.00    -0.004 C 
ATOM      4  C   UNL     1      34.893 -16.608 -23.221  0.00  0.00    +0.003 C 
ATOM      5  C   UNL     1      35.221 -19.004 -23.487  0.00  0.00    -0.004 C 
ATOM      6  C   UNL     1      35.071 -17.732 -24.043  0.00  0.00    -0.000 C 
ATOM      7  C   UNL     1      34.739 -15.322 -23.763  0.00  0.00    +0.037 C 
ATOM      8  C   UNL     1      34.691 -15.649 -20.994  0.00  0.00    +0.003 C 
ATOM      9  C   UNL     1      34.564 -14.215 -22.931  0.00  0.00    +0.139 C 
ATOM     10  C   UNL     1      34.540 -14.379 -21.549  0.00  0.00    +0.037 C 
ENDROOT
BRANCH   9  11
ATOM     11  O   UNL     1      34.417 -12.974 -23.471  0.00  0.00    -0.471 OA
BRANCH  11  12
ATOM     12  C   UNL     1      33.091 -12.555 -23.788  0.00  0.00    +0.234 C 
BRANCH  12  14
ATOM     13  F   UNL     1      31.724 -13.085 -21.371  0.00  0.00    -0.204 F 
ATOM     14  C   UNL     1      32.615 -11.477 -22.874  0.00  0.00    +0.049 C 
ATOM     15  C   UNL     1      31.946 -11.804 -21.695  0.00  0.00    +0.140 C 
ATOM     16  C   UNL     1      32.839 -10.140 -23.202  0.00  0.00    +0.002 C 
ATOM     17  C   UNL     1      31.501 -10.793 -20.842  0.00  0.00    +0.029 C 
ATOM     18  C   UNL     1      32.394  -9.129 -22.350  0.00  0.00    -0.000 C 
ATOM     19  C   UNL     1      31.726  -9.455 -21.170  0.00  0.00    +0.002 C 
ENDBRANCH  12  14
ENDBRANCH  11  12
ENDBRANCH   9  11
BRANCH   1  20
ATOM     20  C   UNL     1      35.359 -20.527 -21.513  0.00  0.00    +0.047 C 
BRANCH  20  25
ATOM     21  S   UNL     1      35.556 -21.918 -19.136  0.00  0.00    -0.048 S 
ATOM     22  O   UNL     1      32.430 -20.432 -20.843  0.00  0.00    -0.274 OA
ATOM     23  O   UNL     1      34.039 -23.831 -18.163  0.00  0.00    -0.263 OA
ATOM     24  N   UNL     1      33.041 -22.198 -19.482  0.00  0.00    -0.246 N 
ATOM     25  C   UNL     1      34.729 -20.634 -20.126  0.00  0.00    +0.137 C 
ATOM     26  C   UNL     1      33.278 -21.050 -20.209  0.00  0.00    +0.239 C 
ATOM     27  C   UNL     1      34.083 -22.815 -18.840  0.00  0.00    +0.279 C 
ATOM     28  H   UNL     1      32.132 -22.572 -19.426  0.00  0.00    +0.158 HD
ENDBRANCH  20  25
ENDBRANCH   1  20
TORSDOF 5
ENDMDL
MODEL 6
REMARK VINA RESULT:     -13.2      4.629      9.911
REMARK  Name = 204109
REMARK  5 active torsions:
REMARK  status: ('A' for Active; 'I' for Inactive)
REMARK    1  A    between atoms: C_1  and  C_20
REMARK    2  A    between atoms: C_9  and  O_11
REMARK    3  A    between atoms: O_11  and  C_12
REMARK    4  A    between atoms: C_12  and  C_14
REMARK    5  A    between atoms: C_20  and  C_25
REMARK                            x       y       z     vdW  Elec       q    Type
REMARK                         _______ _______ _______ _____ _____    ______ ____
ROOT
ATOM      1  C   UNL     1      33.816 -22.335 -18.838  0.00  0.00    -0.021 C 
ATOM      2  C   UNL     1      35.428 -20.910 -19.973  0.00  0.00    -0.000 C 
ATOM      3  C   UNL     1      35.136 -21.957 -19.084  0.00  0.00    -0.004 C 
ATOM      4  C   UNL     1      34.366 -20.236 -20.621  0.00  0.00    +0.003 C 
ATOM      5  C   UNL     1      32.771 -21.672 -19.475  0.00  0.00    -0.004 C 
ATOM      6  C   UNL     1      33.043 -20.629 -20.362  0.00  0.00    -0.000 C 
ATOM      7  C   UNL     1      34.658 -19.189 -21.510  0.00  0.00    +0.037 C 
ATOM      8  C   UNL     1      36.751 -20.516 -20.232  0.00  0.00    +0.003 C 
ATOM      9  C   UNL     1      35.979 -18.811 -21.756  0.00  0.00    +0.139 C 
ATOM     10  C   UNL     1      37.023 -19.474 -21.118  0.00  0.00    +0.037 C 
ENDROOT
BRANCH   9  11
ATOM     11  O   UNL     1      36.246 -17.794 -22.621  0.00  0.00    -0.471 OA
BRANCH  11  12
ATOM     12  C   UNL     1      35.346 -17.616 -23.712  0.00  0.00    +0.234 C 
BRANCH  12  14
ATOM     13  F   UNL     1      33.863 -16.614 -25.900  0.00  0.00    -0.204 F 
ATOM     14  C   UNL     1      34.760 -16.245 -23.732  0.00  0.00    +0.049 C 
ATOM     15  C   UNL     1      34.038 -15.809 -24.843  0.00  0.00    +0.140 C 
ATOM     16  C   UNL     1      34.936 -15.399 -22.638  0.00  0.00    +0.002 C 
ATOM     17  C   UNL     1      33.490 -14.525 -24.858  0.00  0.00    +0.029 C 
ATOM     18  C   UNL     1      34.389 -14.115 -22.654  0.00  0.00    -0.000 C 
ATOM     19  C   UNL     1      33.666 -13.679 -23.763  0.00  0.00    +0.002 C 
ENDBRANCH  12  14
ENDBRANCH  11  12
ENDBRANCH   9  11
BRANCH   1  20
ATOM     20  C   UNL     1      33.524 -23.450 -17.891  0.00  0.00    +0.047 C 
BRANCH  20  25
ATOM     21  S   UNL     1      33.893 -23.831 -15.181  0.00  0.00    -0.048 S 
ATOM     22  O   UNL     1      30.703 -22.788 -17.088  0.00  0.00    -0.274 OA
ATOM     23  O   UNL     1      32.367 -25.046 -13.419  0.00  0.00    -0.263 OA
ATOM     24  N   UNL     1      31.342 -23.949 -15.193  0.00  0.00    -0.246 N 
ATOM     25  C   UNL     1      33.050 -22.946 -16.529  0.00  0.00    +0.137 C 
ATOM     26  C   UNL     1      31.573 -23.202 -16.330  0.00  0.00    +0.239 C 
ATOM     27  C   UNL     1      32.404 -24.380 -14.443  0.00  0.00    +0.279 C 
ATOM     28  H   UNL     1      30.421 -24.171 -14.924  0.00  0.00    +0.158 HD
ENDBRANCH  20  25
ENDBRANCH   1  20
TORSDOF 5
ENDMDL
MODEL 7
REMARK VINA RESULT:     -13.0      5.159     10.263
REMARK  Name = 204109
REMARK  5 active torsions:
REMARK  status: ('A' for Active; 'I' for Inactive)
REMARK    1  A    between atoms: C_1  and  C_20
REMARK    2  A    between atoms: C_9  and  O_11
REMARK    3  A    between atoms: O_11  and  C_12
REMARK    4  A    between atoms: C_12  and  C_14
REMARK    5  A    between atoms: C_20  and  C_25
REMARK                            x       y       z     vdW  Elec       q    Type
REMARK                         _______ _______ _______ _____ _____    ______ ____
ROOT
ATOM      1  C   UNL     1      36.114 -22.802 -16.936  0.00  0.00    -0.021 C 
ATOM      2  C   UNL     1      36.218 -21.418 -18.934  0.00  0.00    -0.000 C 
ATOM      3  C   UNL     1      36.841 -22.006 -17.822  0.00  0.00    -0.004 C 
ATOM      4  C   UNL     1      34.837 -21.641 -19.151  0.00  0.00    +0.003 C 
ATOM      5  C   UNL     1      34.757 -23.021 -17.150  0.00  0.00    -0.004 C 
ATOM      6  C   UNL     1      34.120 -22.446 -18.251  0.00  0.00    -0.000 C 
ATOM      7  C   UNL     1      34.213 -21.054 -20.264  0.00  0.00    +0.037 C 
ATOM      8  C   UNL     1      36.933 -20.614 -19.836  0.00  0.00    +0.003 C 
ATOM      9  C   UNL     1      34.940 -20.257 -21.150  0.00  0.00    +0.139 C 
ATOM     10  C   UNL     1      36.298 -20.038 -20.936  0.00  0.00    +0.037 C 
ENDROOT
BRANCH   9  11
ATOM     11  O   UNL     1      34.322 -19.695 -22.225  0.00  0.00    -0.471 OA
BRANCH  11  12
ATOM     12  C   UNL     1      35.151 -19.294 -23.314  0.00  0.00    +0.234 C 
BRANCH  12  14
ATOM     13  F   UNL     1      35.509 -16.997 -21.707  0.00  0.00    -0.204 F 
ATOM     14  C   UNL     1      34.823 -17.918 -23.785  0.00  0.00    +0.049 C 
ATOM     15  C   UNL     1      35.022 -16.824 -22.944  0.00  0.00    +0.140 C 
ATOM     16  C   UNL     1      34.315 -17.726 -25.070  0.00  0.00    +0.002 C 
ATOM     17  C   UNL     1      34.715 -15.537 -23.387  0.00  0.00    +0.029 C 
ATOM     18  C   UNL     1      34.007 -16.439 -25.514  0.00  0.00    -0.000 C 
ATOM     19  C   UNL     1      34.208 -15.345 -24.673  0.00  0.00    +0.002 C 
ENDBRANCH  12  14
ENDBRANCH  11  12
ENDBRANCH   9  11
BRANCH   1  20
ATOM     20  C   UNL     1      36.792 -23.418 -15.759  0.00  0.00    +0.047 C 
BRANCH  20  25
ATOM     21  S   UNL     1      35.988 -23.743 -13.138  0.00  0.00    -0.048 S 
ATOM     22  O   UNL     1      36.163 -26.350 -15.979  0.00  0.00    -0.274 OA
ATOM     23  O   UNL     1      36.528 -25.664 -11.427  0.00  0.00    -0.263 OA
ATOM     24  N   UNL     1      36.371 -26.209 -13.680  0.00  0.00    -0.246 N 
ATOM     25  C   UNL     1      35.829 -24.220 -14.887  0.00  0.00    +0.137 C 
ATOM     26  C   UNL     1      36.136 -25.699 -14.940  0.00  0.00    +0.239 C 
ATOM     27  C   UNL     1      36.341 -25.370 -12.598  0.00  0.00    +0.279 C 
ATOM     28  H   UNL     1      36.559 -27.168 -13.560  0.00  0.00    +0.158 HD
ENDBRANCH  20  25
ENDBRANCH   1  20
TORSDOF 5
ENDMDL
MODEL 8
REMARK VINA RESULT:     -13.0      5.350      8.103
REMARK  Name = 204109
REMARK  5 active torsions:
REMARK  status: ('A' for Active; 'I' for Inactive)
REMARK    1  A    between atoms: C_1  and  C_20
REMARK    2  A    between atoms: C_9  and  O_11
REMARK    3  A    between atoms: O_11  and  C_12
REMARK    4  A    between atoms: C_12  and  C_14
REMARK    5  A    between atoms: C_20  and  C_25
REMARK                            x       y       z     vdW  Elec       q    Type
REMARK                         _______ _______ _______ _____ _____    ______ ____
ROOT
ATOM      1  C   UNL     1      32.356 -11.703 -22.445  0.00  0.00    -0.021 C 
ATOM      2  C   UNL     1      33.100 -13.828 -21.522  0.00  0.00    -0.000 C 
ATOM      3  C   UNL     1      32.290 -12.683 -21.454  0.00  0.00    -0.004 C 
ATOM      4  C   UNL     1      33.990 -13.982 -22.612  0.00  0.00    +0.003 C 
ATOM      5  C   UNL     1      33.232 -11.854 -23.516  0.00  0.00    -0.004 C 
ATOM      6  C   UNL     1      34.043 -12.987 -23.601  0.00  0.00    -0.000 C 
ATOM      7  C   UNL     1      34.799 -15.127 -22.681  0.00  0.00    +0.037 C 
ATOM      8  C   UNL     1      33.046 -14.824 -20.533  0.00  0.00    +0.003 C 
ATOM      9  C   UNL     1      34.733 -16.107 -21.689  0.00  0.00    +0.139 C 
ATOM     10  C   UNL     1      33.857 -15.955 -20.618  0.00  0.00    +0.037 C 
ENDROOT
BRANCH   9  11
ATOM     11  O   UNL     1      35.523 -17.212 -21.769  0.00  0.00    -0.471 OA
BRANCH  11  12
ATOM     12  C   UNL     1      34.928 -18.400 -22.287  0.00  0.00    +0.234 C 
BRANCH  12  14
ATOM     13  F   UNL     1      37.373 -19.409 -21.290  0.00  0.00    -0.204 F 
ATOM     14  C   UNL     1      35.001 -19.528 -21.315  0.00  0.00    +0.049 C 
ATOM     15  C   UNL     1      36.240 -19.981 -20.860  0.00  0.00    +0.140 C 
ATOM     16  C   UNL     1      33.829 -20.132 -20.862  0.00  0.00    +0.002 C 
ATOM     17  C   UNL     1      36.305 -21.037 -19.950  0.00  0.00    +0.029 C 
ATOM     18  C   UNL     1      33.894 -21.188 -19.953  0.00  0.00    -0.000 C 
ATOM     19  C   UNL     1      35.131 -21.640 -19.496  0.00  0.00    +0.002 C 
ENDBRANCH  12  14
ENDBRANCH  11  12
ENDBRANCH   9  11
BRANCH   1  20
ATOM     20  C   UNL     1      31.489 -10.493 -22.356  0.00  0.00    +0.047 C 
BRANCH  20  25
ATOM     21  S   UNL     1      32.515  -8.715 -20.509  0.00  0.00    -0.048 S 
ATOM     22  O   UNL     1      31.244  -8.051 -24.093  0.00  0.00    -0.274 OA
ATOM     23  O   UNL     1      31.696  -6.308 -19.841  0.00  0.00    -0.263 OA
ATOM     24  N   UNL     1      31.393  -7.003 -22.038  0.00  0.00    -0.246 N 
ATOM     25  C   UNL     1      32.300  -9.203 -22.249  0.00  0.00    +0.137 C 
ATOM     26  C   UNL     1      31.590  -8.048 -22.917  0.00  0.00    +0.239 C 
ATOM     27  C   UNL     1      31.799  -7.134 -20.736  0.00  0.00    +0.279 C 
ATOM     28  H   UNL     1      30.963  -6.172 -22.342  0.00  0.00    +0.158 HD
ENDBRANCH  20  25
ENDBRANCH   1  20
TORSDOF 5
ENDMDL
MODEL 9
REMARK VINA RESULT:     -12.9      4.675      9.781
REMARK  Name = 204109
REMARK  5 active torsions:
REMARK  status: ('A' for Active; 'I' for Inactive)
REMARK    1  A    between atoms: C_1  and  C_20
REMARK    2  A    between atoms: C_9  and  O_11
REMARK    3  A    between atoms: O_11  and  C_12
REMARK    4  A    between atoms: C_12  and  C_14
REMARK    5  A    between atoms: C_20  and  C_25
REMARK                            x       y       z     vdW  Elec       q    Type
REMARK                         _______ _______ _______ _____ _____    ______ ____
ROOT
ATOM      1  C   UNL     1      33.972 -22.900 -17.838  0.00  0.00    -0.021 C 
ATOM      2  C   UNL     1      33.975 -21.339 -19.704  0.00  0.00    -0.000 C 
ATOM      3  C   UNL     1      33.288 -22.196 -18.829  0.00  0.00    -0.004 C 
ATOM      4  C   UNL     1      35.377 -21.196 -19.572  0.00  0.00    +0.003 C 
ATOM      5  C   UNL     1      35.350 -22.759 -17.708  0.00  0.00    -0.004 C 
ATOM      6  C   UNL     1      36.050 -21.912 -18.569  0.00  0.00    -0.000 C 
ATOM      7  C   UNL     1      36.065 -20.339 -20.447  0.00  0.00    +0.037 C 
ATOM      8  C   UNL     1      33.303 -20.622 -20.707  0.00  0.00    +0.003 C 
ATOM      9  C   UNL     1      35.381 -19.635 -21.438  0.00  0.00    +0.139 C 
ATOM     10  C   UNL     1      34.002 -19.776 -21.568  0.00  0.00    +0.037 C 
ENDROOT
BRANCH   9  11
ATOM     11  O   UNL     1      36.061 -18.807 -22.279  0.00  0.00    -0.471 OA
BRANCH  11  12
ATOM     12  C   UNL     1      35.835 -17.406 -22.135  0.00  0.00    +0.234 C 
BRANCH  12  14
ATOM     13  F   UNL     1      34.950 -14.724 -22.237  0.00  0.00    -0.204 F 
ATOM     14  C   UNL     1      35.127 -16.833 -23.315  0.00  0.00    +0.049 C 
ATOM     15  C   UNL     1      34.715 -15.501 -23.304  0.00  0.00    +0.140 C 
ATOM     16  C   UNL     1      34.877 -17.632 -24.430  0.00  0.00    +0.002 C 
ATOM     17  C   UNL     1      34.052 -14.966 -24.410  0.00  0.00    +0.029 C 
ATOM     18  C   UNL     1      34.213 -17.098 -25.536  0.00  0.00    -0.000 C 
ATOM     19  C   UNL     1      33.802 -15.765 -25.526  0.00  0.00    +0.002 C 
ENDBRANCH  12  14
ENDBRANCH  11  12
ENDBRANCH   9  11
BRANCH   1  20
ATOM     20  C   UNL     1      33.226 -23.805 -16.917  0.00  0.00    +0.047 C 
BRANCH  20  25
ATOM     21  S   UNL     1      32.831 -23.772 -14.185  0.00  0.00    -0.048 S 
ATOM     22  O   UNL     1      30.416 -22.739 -17.013  0.00  0.00    -0.274 OA
ATOM     23  O   UNL     1      30.748 -24.521 -12.766  0.00  0.00    -0.263 OA
ATOM     24  N   UNL     1      30.377 -23.632 -14.881  0.00  0.00    -0.246 N 
ATOM     25  C   UNL     1      32.495 -23.040 -15.816  0.00  0.00    +0.137 C 
ATOM     26  C   UNL     1      30.995 -23.109 -15.998  0.00  0.00    +0.239 C 
ATOM     27  C   UNL     1      31.140 -24.039 -13.818  0.00  0.00    +0.279 C 
ATOM     28  H   UNL     1      29.397 -23.713 -14.848  0.00  0.00    +0.158 HD
ENDBRANCH  20  25
ENDBRANCH   1  20
TORSDOF 5
ENDMDL
