MODEL 1
REMARK VINA RESULT:     -12.7      0.000      0.000
REMARK  Name = 16363
REMARK  6 active torsions:
REMARK  status: ('A' for Active; 'I' for Inactive)
REMARK    1  A    between atoms: N_1  and  C_19
REMARK    2  A    between atoms: C_2  and  N_9
REMARK    3  A    between atoms: C_19  and  C_20
REMARK    4  A    between atoms: C_20  and  C_21
REMARK    5  A    between atoms: C_21  and  C_23
REMARK    6  A    between atoms: C_23  and  C_25
REMARK                            x       y       z     vdW  Elec       q    Type
REMARK                         _______ _______ _______ _____ _____    ______ ____
ROOT
ATOM      1  N   UNL     1      35.030 -15.787 -23.523  0.00  0.00    +0.387 N 
ATOM      2  C   UNL     1      34.823 -18.220 -21.911  0.00  0.00    +0.086 C 
ATOM      3  C   UNL     1      35.307 -18.239 -23.361  0.00  0.00    -0.000 C 
ATOM      4  C   UNL     1      35.079 -16.848 -21.289  0.00  0.00    -0.000 C 
ATOM      5  C   UNL     1      34.718 -17.075 -24.159  0.00  0.00    -0.075 C 
ATOM      6  C   UNL     1      34.498 -15.728 -22.154  0.00  0.00    -0.075 C 
ATOM      7  H   UNL     1      36.044 -15.699 -23.470  0.00  0.00    -0.080 HD
ENDROOT
BRANCH   2   9
ATOM      8  O   UNL     1      37.753 -18.689 -21.368  0.00  0.00    -0.247 OA
ATOM      9  N   UNL     1      35.456 -19.260 -21.139  0.00  0.00    -0.282 N 
ATOM     10  N   UNL     1      37.010 -20.556 -20.120  0.00  0.00    -0.305 N 
ATOM     11  C   UNL     1      34.788 -20.292 -20.467  0.00  0.00    +0.079 A 
ATOM     12  C   UNL     1      36.856 -19.400 -20.938  0.00  0.00    +0.328 A 
ATOM     13  C   UNL     1      35.750 -21.084 -19.843  0.00  0.00    +0.076 A 
ATOM     14  C   UNL     1      33.443 -20.578 -20.366  0.00  0.00    +0.019 C 
ATOM     15  C   UNL     1      35.421 -22.192 -19.093  0.00  0.00    +0.019 C 
ATOM     16  C   UNL     1      33.083 -21.698 -19.609  0.00  0.00    +0.002 C 
ATOM     17  C   UNL     1      34.062 -22.497 -18.980  0.00  0.00    +0.002 C 
ATOM     18  H   UNL     1      37.868 -20.921 -19.802  0.00  0.00    +0.170 HD
ENDBRANCH   2   9
BRANCH   1  19
ATOM     19  C   UNL     1      34.504 -14.681 -24.324  0.00  0.00    -0.077 C 
BRANCH  19  20
ATOM     20  C   UNL     1      34.275 -13.452 -23.442  0.00  0.00    -0.015 C 
BRANCH  20  21
ATOM     21  C   UNL     1      32.799 -13.048 -23.380  0.00  0.00    +0.067 C 
BRANCH  21  23
ATOM     22  O   UNL     1      32.028 -13.738 -21.200  0.00  0.00    -0.291 OA
ATOM     23  C   UNL     1      32.295 -12.812 -21.964  0.00  0.00    +0.173 C 
BRANCH  23  25
ATOM     24  F   UNL     1      31.715  -7.557 -20.172  0.00  0.00    -0.204 F 
ATOM     25  C   UNL     1      32.141 -11.409 -21.485  0.00  0.00    +0.035 C 
ATOM     26  C   UNL     1      32.217 -10.386 -22.403  0.00  0.00    +0.005 C 
ATOM     27  C   UNL     1      31.927 -11.188 -20.143  0.00  0.00    +0.005 C 
ATOM     28  C   UNL     1      32.072  -9.073 -21.956  0.00  0.00    +0.030 C 
ATOM     29  C   UNL     1      31.783  -9.875 -19.696  0.00  0.00    +0.030 C 
ATOM     30  C   UNL     1      31.855  -8.818 -20.601  0.00  0.00    +0.140 C 
ENDBRANCH  23  25
ENDBRANCH  21  23
ENDBRANCH  20  21
ENDBRANCH  19  20
ENDBRANCH   1  19
TORSDOF 6
ENDMDL
MODEL 2
REMARK VINA RESULT:     -12.6      3.324      5.396
REMARK  Name = 16363
REMARK  6 active torsions:
REMARK  status: ('A' for Active; 'I' for Inactive)
REMARK    1  A    between atoms: N_1  and  C_19
REMARK    2  A    between atoms: C_2  and  N_9
REMARK    3  A    between atoms: C_19  and  C_20
REMARK    4  A    between atoms: C_20  and  C_21
REMARK    5  A    between atoms: C_21  and  C_23
REMARK    6  A    between atoms: C_23  and  C_25
REMARK                            x       y       z     vdW  Elec       q    Type
REMARK                         _______ _______ _______ _____ _____    ______ ____
ROOT
ATOM      1  N   UNL     1      31.723 -12.270 -22.004  0.00  0.00    +0.387 N 
ATOM      2  C   UNL     1      33.798 -14.184 -22.771  0.00  0.00    +0.086 C 
ATOM      3  C   UNL     1      32.784 -14.478 -21.666  0.00  0.00    -0.000 C 
ATOM      4  C   UNL     1      33.225 -13.164 -23.754  0.00  0.00    -0.000 C 
ATOM      5  C   UNL     1      32.291 -13.188 -21.007  0.00  0.00    -0.075 C 
ATOM      6  C   UNL     1      32.716 -11.917 -23.029  0.00  0.00    -0.075 C 
ATOM      7  H   UNL     1      30.950 -12.746 -22.467  0.00  0.00    -0.080 HD
ENDROOT
BRANCH   2   9
ATOM      8  O   UNL     1      33.545 -14.901 -25.690  0.00  0.00    -0.247 OA
ATOM      9  N   UNL     1      34.187 -15.392 -23.454  0.00  0.00    -0.282 N 
ATOM     10  N   UNL     1      34.547 -16.949 -25.062  0.00  0.00    -0.305 N 
ATOM     11  C   UNL     1      34.784 -16.509 -22.853  0.00  0.00    +0.079 A 
ATOM     12  C   UNL     1      34.027 -15.641 -24.844  0.00  0.00    +0.328 A 
ATOM     13  C   UNL     1      35.002 -17.461 -23.847  0.00  0.00    +0.076 A 
ATOM     14  C   UNL     1      35.138 -16.742 -21.541  0.00  0.00    +0.019 C 
ATOM     15  C   UNL     1      35.579 -18.684 -23.585  0.00  0.00    +0.019 C 
ATOM     16  C   UNL     1      35.726 -17.977 -21.249  0.00  0.00    +0.002 C 
ATOM     17  C   UNL     1      35.944 -18.937 -22.260  0.00  0.00    +0.002 C 
ATOM     18  H   UNL     1      34.581 -17.415 -25.929  0.00  0.00    +0.170 HD
ENDBRANCH   2   9
BRANCH   1  19
ATOM     19  C   UNL     1      31.210 -11.064 -21.354  0.00  0.00    -0.077 C 
BRANCH  19  20
ATOM     20  C   UNL     1      31.733  -9.815 -22.067  0.00  0.00    -0.015 C 
BRANCH  20  21
ATOM     21  C   UNL     1      32.404  -8.834 -21.102  0.00  0.00    +0.067 C 
BRANCH  21  23
ATOM     22  O   UNL     1      31.668  -6.537 -21.011  0.00  0.00    -0.291 OA
ATOM     23  C   UNL     1      32.351  -7.389 -21.576  0.00  0.00    +0.173 C 
BRANCH  23  25
ATOM     24  F   UNL     1      35.429  -5.905 -25.992  0.00  0.00    -0.204 F 
ATOM     25  C   UNL     1      33.173  -6.993 -22.755  0.00  0.00    +0.035 C 
ATOM     26  C   UNL     1      32.625  -6.138 -23.685  0.00  0.00    +0.005 C 
ATOM     27  C   UNL     1      34.449  -7.497 -22.871  0.00  0.00    +0.005 C 
ATOM     28  C   UNL     1      33.394  -5.767 -24.788  0.00  0.00    +0.030 C 
ATOM     29  C   UNL     1      35.217  -7.126 -23.974  0.00  0.00    +0.030 C 
ATOM     30  C   UNL     1      34.691  -6.262 -24.932  0.00  0.00    +0.140 C 
ENDBRANCH  23  25
ENDBRANCH  21  23
ENDBRANCH  20  21
ENDBRANCH  19  20
ENDBRANCH   1  19
TORSDOF 6
ENDMDL
MODEL 3
REMARK VINA RESULT:     -12.4      3.476      9.251
REMARK  Name = 16363
REMARK  6 active torsions:
REMARK  status: ('A' for Active; 'I' for Inactive)
REMARK    1  A    between atoms: N_1  and  C_19
REMARK    2  A    between atoms: C_2  and  N_9
REMARK    3  A    between atoms: C_19  and  C_20
REMARK    4  A    between atoms: C_20  and  C_21
REMARK    5  A    between atoms: C_21  and  C_23
REMARK    6  A    between atoms: C_23  and  C_25
REMARK                            x       y       z     vdW  Elec       q    Type
REMARK                         _______ _______ _______ _____ _____    ______ ____
ROOT
ATOM      1  N   UNL     1      34.275 -16.164 -24.472  0.00  0.00    +0.387 N 
ATOM      2  C   UNL     1      33.655 -13.501 -23.431  0.00  0.00    +0.086 C 
ATOM      3  C   UNL     1      32.724 -14.240 -24.392  0.00  0.00    -0.000 C 
ATOM      4  C   UNL     1      34.514 -14.501 -22.657  0.00  0.00    -0.000 C 
ATOM      5  C   UNL     1      33.500 -15.213 -25.281  0.00  0.00    -0.075 C 
ATOM      6  C   UNL     1      35.232 -15.466 -23.602  0.00  0.00    -0.075 C 
ATOM      7  H   UNL     1      33.624 -16.675 -23.877  0.00  0.00    -0.080 HD
ENDROOT
BRANCH   2   9
ATOM      8  O   UNL     1      32.149 -14.238 -20.924  0.00  0.00    -0.247 OA
ATOM      9  N   UNL     1      32.910 -12.658 -22.530  0.00  0.00    -0.282 N 
ATOM     10  N   UNL     1      31.642 -11.932 -20.798  0.00  0.00    -0.305 N 
ATOM     11  C   UNL     1      32.743 -11.273 -22.664  0.00  0.00    +0.079 A 
ATOM     12  C   UNL     1      32.228 -13.100 -21.364  0.00  0.00    +0.328 A 
ATOM     13  C   UNL     1      31.963 -10.834 -21.596  0.00  0.00    +0.076 A 
ATOM     14  C   UNL     1      33.211 -10.400 -23.623  0.00  0.00    +0.019 C 
ATOM     15  C   UNL     1      31.613  -9.512 -21.432  0.00  0.00    +0.019 C 
ATOM     16  C   UNL     1      32.869  -9.051 -23.478  0.00  0.00    +0.002 C 
ATOM     17  C   UNL     1      32.078  -8.612 -22.395  0.00  0.00    +0.002 C 
ATOM     18  H   UNL     1      31.099 -11.904 -19.977  0.00  0.00    +0.170 HD
ENDBRANCH   2   9
BRANCH   1  19
ATOM     19  C   UNL     1      34.971 -17.120 -25.334  0.00  0.00    -0.077 C 
BRANCH  19  20
ATOM     20  C   UNL     1      34.918 -18.520 -24.721  0.00  0.00    -0.015 C 
BRANCH  20  21
ATOM     21  C   UNL     1      34.448 -18.500 -23.264  0.00  0.00    +0.067 C 
BRANCH  21  23
ATOM     22  O   UNL     1      36.664 -18.546 -22.307  0.00  0.00    -0.291 OA
ATOM     23  C   UNL     1      35.510 -18.970 -22.280  0.00  0.00    +0.173 C 
BRANCH  23  25
ATOM     24  F   UNL     1      34.073 -22.693 -18.375  0.00  0.00    -0.204 F 
ATOM     25  C   UNL     1      35.127 -19.964 -21.237  0.00  0.00    +0.035 C 
ATOM     26  C   UNL     1      33.791 -20.145 -20.957  0.00  0.00    +0.005 C 
ATOM     27  C   UNL     1      36.122 -20.664 -20.593  0.00  0.00    +0.005 C 
ATOM     28  C   UNL     1      33.431 -21.075 -19.982  0.00  0.00    +0.030 C 
ATOM     29  C   UNL     1      35.763 -21.594 -19.618  0.00  0.00    +0.030 C 
ATOM     30  C   UNL     1      34.418 -21.800 -19.312  0.00  0.00    +0.140 C 
ENDBRANCH  23  25
ENDBRANCH  21  23
ENDBRANCH  20  21
ENDBRANCH  19  20
ENDBRANCH   1  19
TORSDOF 6
ENDMDL
MODEL 4
REMARK VINA RESULT:     -12.3      4.256      9.569
REMARK  Name = 16363
REMARK  6 active torsions:
REMARK  status: ('A' for Active; 'I' for Inactive)
REMARK    1  A    between atoms: N_1  and  C_19
REMARK    2  A    between atoms: C_2  and  N_9
REMARK    3  A    between atoms: C_19  and  C_20
REMARK    4  A    between atoms: C_20  and  C_21
REMARK    5  A    between atoms: C_21  and  C_23
REMARK    6  A    between atoms: C_23  and  C_25
REMARK                            x       y       z     vdW  Elec       q    Type
REMARK                         _______ _______ _______ _____ _____    ______ ____
ROOT
ATOM      1  N   UNL     1      36.009 -19.695 -20.608  0.00  0.00    +0.387 N 
ATOM      2  C   UNL     1      35.379 -18.086 -22.969  0.00  0.00    +0.086 C 
ATOM      3  C   UNL     1      34.328 -18.938 -22.256  0.00  0.00    -0.000 C 
ATOM      4  C   UNL     1      36.497 -17.708 -21.998  0.00  0.00    -0.000 C 
ATOM      5  C   UNL     1      34.969 -20.134 -21.549  0.00  0.00    -0.075 C 
ATOM      6  C   UNL     1      37.067 -18.943 -21.297  0.00  0.00    -0.075 C 
ATOM      7  H   UNL     1      35.576 -19.074 -19.926  0.00  0.00    -0.080 HD
ENDROOT
BRANCH   2   9
ATOM      8  O   UNL     1      34.981 -17.381 -25.874  0.00  0.00    -0.247 OA
ATOM      9  N   UNL     1      34.785 -16.910 -23.552  0.00  0.00    -0.282 N 
ATOM     10  N   UNL     1      34.008 -15.392 -25.044  0.00  0.00    -0.305 N 
ATOM     11  C   UNL     1      34.259 -15.826 -22.836  0.00  0.00    +0.079 A 
ATOM     12  C   UNL     1      34.640 -16.664 -24.944  0.00  0.00    +0.328 A 
ATOM     13  C   UNL     1      33.783 -14.898 -23.760  0.00  0.00    +0.076 A 
ATOM     14  C   UNL     1      34.170 -15.603 -21.478  0.00  0.00    +0.019 C 
ATOM     15  C   UNL     1      33.199 -13.709 -23.379  0.00  0.00    +0.019 C 
ATOM     16  C   UNL     1      33.580 -14.403 -21.066  0.00  0.00    +0.002 C 
ATOM     17  C   UNL     1      33.101 -13.467 -22.006  0.00  0.00    +0.002 C 
ATOM     18  H   UNL     1      33.768 -14.936 -25.884  0.00  0.00    +0.170 HD
ENDBRANCH   2   9
BRANCH   1  19
ATOM     19  C   UNL     1      36.577 -20.844 -19.902  0.00  0.00    -0.077 C 
BRANCH  19  20
ATOM     20  C   UNL     1      35.588 -22.011 -19.910  0.00  0.00    -0.015 C 
BRANCH  20  21
ATOM     21  C   UNL     1      35.102 -22.372 -18.504  0.00  0.00    +0.067 C 
BRANCH  21  23
ATOM     22  O   UNL     1      32.859 -22.440 -19.392  0.00  0.00    -0.291 OA
ATOM     23  C   UNL     1      33.598 -22.586 -18.420  0.00  0.00    +0.173 C 
BRANCH  23  25
ATOM     24  F   UNL     1      31.390 -24.163 -13.540  0.00  0.00    -0.204 F 
ATOM     25  C   UNL     1      33.008 -23.008 -17.118  0.00  0.00    +0.035 C 
ATOM     26  C   UNL     1      33.853 -23.428 -16.115  0.00  0.00    +0.005 C 
ATOM     27  C   UNL     1      31.641 -22.960 -16.964  0.00  0.00    +0.005 C 
ATOM     28  C   UNL     1      33.303 -23.822 -14.896  0.00  0.00    +0.030 C 
ATOM     29  C   UNL     1      31.090 -23.354 -15.745  0.00  0.00    +0.030 C 
ATOM     30  C   UNL     1      31.919 -23.785 -14.711  0.00  0.00    +0.140 C 
ENDBRANCH  23  25
ENDBRANCH  21  23
ENDBRANCH  20  21
ENDBRANCH  19  20
ENDBRANCH   1  19
TORSDOF 6
ENDMDL
MODEL 5
REMARK VINA RESULT:     -12.3      3.624      9.152
REMARK  Name = 16363
REMARK  6 active torsions:
REMARK  status: ('A' for Active; 'I' for Inactive)
REMARK    1  A    between atoms: N_1  and  C_19
REMARK    2  A    between atoms: C_2  and  N_9
REMARK    3  A    between atoms: C_19  and  C_20
REMARK    4  A    between atoms: C_20  and  C_21
REMARK    5  A    between atoms: C_21  and  C_23
REMARK    6  A    between atoms: C_23  and  C_25
REMARK                            x       y       z     vdW  Elec       q    Type
REMARK                         _______ _______ _______ _____ _____    ______ ____
ROOT
ATOM      1  N   UNL     1      34.748 -16.433 -24.841  0.00  0.00    +0.387 N 
ATOM      2  C   UNL     1      33.426 -14.093 -23.686  0.00  0.00    +0.086 C 
ATOM      3  C   UNL     1      34.767 -14.612 -23.169  0.00  0.00    -0.000 C 
ATOM      4  C   UNL     1      33.229 -14.505 -25.145  0.00  0.00    -0.000 C 
ATOM      5  C   UNL     1      34.916 -16.114 -23.417  0.00  0.00    -0.075 C 
ATOM      6  C   UNL     1      33.428 -16.010 -25.330  0.00  0.00    -0.075 C 
ATOM      7  H   UNL     1      35.456 -15.919 -25.365  0.00  0.00    -0.080 HD
ENDROOT
BRANCH   2   9
ATOM      8  O   UNL     1      34.680 -11.910 -25.346  0.00  0.00    -0.247 OA
ATOM      9  N   UNL     1      33.330 -12.663 -23.539  0.00  0.00    -0.282 N 
ATOM     10  N   UNL     1      33.588 -10.433 -23.857  0.00  0.00    -0.305 N 
ATOM     11  C   UNL     1      32.599 -11.995 -22.548  0.00  0.00    +0.079 A 
ATOM     12  C   UNL     1      33.962 -11.704 -24.378  0.00  0.00    +0.328 A 
ATOM     13  C   UNL     1      32.762 -10.626 -22.749  0.00  0.00    +0.076 A 
ATOM     14  C   UNL     1      31.827 -12.485 -21.516  0.00  0.00    +0.019 C 
ATOM     15  C   UNL     1      32.168  -9.684 -21.938  0.00  0.00    +0.019 C 
ATOM     16  C   UNL     1      31.213 -11.548 -20.678  0.00  0.00    +0.002 C 
ATOM     17  C   UNL     1      31.382 -10.163 -20.887  0.00  0.00    +0.002 C 
ATOM     18  H   UNL     1      33.865  -9.561 -24.220  0.00  0.00    +0.170 HD
ENDBRANCH   2   9
BRANCH   1  19
ATOM     19  C   UNL     1      34.943 -17.865 -25.071  0.00  0.00    -0.077 C 
BRANCH  19  20
ATOM     20  C   UNL     1      34.485 -18.663 -23.849  0.00  0.00    -0.015 C 
BRANCH  20  21
ATOM     21  C   UNL     1      35.641 -19.407 -23.173  0.00  0.00    +0.067 C 
BRANCH  21  23
ATOM     22  O   UNL     1      36.248 -18.251 -21.143  0.00  0.00    -0.291 OA
ATOM     23  C   UNL     1      35.685 -19.212 -21.665  0.00  0.00    +0.173 C 
BRANCH  23  25
ATOM     24  F   UNL     1      33.140 -22.963 -18.405  0.00  0.00    -0.204 F 
ATOM     25  C   UNL     1      35.005 -20.214 -20.795  0.00  0.00    +0.035 C 
ATOM     26  C   UNL     1      35.778 -21.121 -20.105  0.00  0.00    +0.005 C 
ATOM     27  C   UNL     1      33.631 -20.195 -20.714  0.00  0.00    +0.005 C 
ATOM     28  C   UNL     1      35.142 -22.058 -19.290  0.00  0.00    +0.030 C 
ATOM     29  C   UNL     1      32.996 -21.132 -19.899  0.00  0.00    +0.030 C 
ATOM     30  C   UNL     1      33.750 -22.063 -19.188  0.00  0.00    +0.140 C 
ENDBRANCH  23  25
ENDBRANCH  21  23
ENDBRANCH  20  21
ENDBRANCH  19  20
ENDBRANCH   1  19
TORSDOF 6
ENDMDL
MODEL 6
REMARK VINA RESULT:     -12.2      3.702      5.955
REMARK  Name = 16363
REMARK  6 active torsions:
REMARK  status: ('A' for Active; 'I' for Inactive)
REMARK    1  A    between atoms: N_1  and  C_19
REMARK    2  A    between atoms: C_2  and  N_9
REMARK    3  A    between atoms: C_19  and  C_20
REMARK    4  A    between atoms: C_20  and  C_21
REMARK    5  A    between atoms: C_21  and  C_23
REMARK    6  A    between atoms: C_23  and  C_25
REMARK                            x       y       z     vdW  Elec       q    Type
REMARK                         _______ _______ _______ _____ _____    ______ ____
ROOT
ATOM      1  N   UNL     1      32.972 -11.570 -22.543  0.00  0.00    +0.387 N 
ATOM      2  C   UNL     1      33.252 -14.072 -24.034  0.00  0.00    +0.086 C 
ATOM      3  C   UNL     1      34.169 -12.872 -24.272  0.00  0.00    -0.000 C 
ATOM      4  C   UNL     1      32.681 -14.025 -22.617  0.00  0.00    -0.000 C 
ATOM      5  C   UNL     1      33.465 -11.558 -23.927  0.00  0.00    -0.075 C 
ATOM      6  C   UNL     1      32.026 -12.674 -22.325  0.00  0.00    -0.075 C 
ATOM      7  H   UNL     1      33.771 -11.714 -21.925  0.00  0.00    -0.080 HD
ENDROOT
BRANCH   2   9
ATOM      8  O   UNL     1      33.791 -15.506 -26.631  0.00  0.00    -0.247 OA
ATOM      9  N   UNL     1      33.948 -15.312 -24.267  0.00  0.00    -0.282 N 
ATOM     10  N   UNL     1      34.881 -17.112 -25.279  0.00  0.00    -0.305 N 
ATOM     11  C   UNL     1      34.529 -16.115 -23.277  0.00  0.00    +0.079 A 
ATOM     12  C   UNL     1      34.154 -15.915 -25.537  0.00  0.00    +0.328 A 
ATOM     13  C   UNL     1      35.101 -17.219 -23.906  0.00  0.00    +0.076 A 
ATOM     14  C   UNL     1      34.592 -15.953 -21.909  0.00  0.00    +0.019 C 
ATOM     15  C   UNL     1      35.758 -18.209 -23.209  0.00  0.00    +0.019 C 
ATOM     16  C   UNL     1      35.254 -16.945 -21.178  0.00  0.00    +0.002 C 
ATOM     17  C   UNL     1      35.830 -18.061 -21.821  0.00  0.00    +0.002 C 
ATOM     18  H   UNL     1      35.180 -17.758 -25.959  0.00  0.00    +0.170 HD
ENDBRANCH   2   9
BRANCH   1  19
ATOM     19  C   UNL     1      32.348 -10.289 -22.211  0.00  0.00    -0.077 C 
BRANCH  19  20
ATOM     20  C   UNL     1      32.423  -9.339 -23.408  0.00  0.00    -0.015 C 
BRANCH  20  21
ATOM     21  C   UNL     1      31.695  -8.017 -23.147  0.00  0.00    +0.067 C 
BRANCH  21  23
ATOM     22  O   UNL     1      32.867  -6.345 -21.860  0.00  0.00    -0.291 OA
ATOM     23  C   UNL     1      32.635  -6.835 -22.964  0.00  0.00    +0.173 C 
BRANCH  23  25
ATOM     24  F   UNL     1      35.167  -4.710 -27.464  0.00  0.00    -0.204 F 
ATOM     25  C   UNL     1      33.311  -6.267 -24.165  0.00  0.00    +0.035 C 
ATOM     26  C   UNL     1      34.634  -6.577 -24.387  0.00  0.00    +0.005 C 
ATOM     27  C   UNL     1      32.587  -5.454 -25.009  0.00  0.00    +0.005 C 
ATOM     28  C   UNL     1      35.267  -6.046 -25.511  0.00  0.00    +0.030 C 
ATOM     29  C   UNL     1      33.220  -4.924 -26.133  0.00  0.00    +0.030 C 
ATOM     30  C   UNL     1      34.559  -5.219 -26.384  0.00  0.00    +0.140 C 
ENDBRANCH  23  25
ENDBRANCH  21  23
ENDBRANCH  20  21
ENDBRANCH  19  20
ENDBRANCH   1  19
TORSDOF 6
ENDMDL
MODEL 7
REMARK VINA RESULT:     -12.2      5.080      8.524
REMARK  Name = 16363
REMARK  6 active torsions:
REMARK  status: ('A' for Active; 'I' for Inactive)
REMARK    1  A    between atoms: N_1  and  C_19
REMARK    2  A    between atoms: C_2  and  N_9
REMARK    3  A    between atoms: C_19  and  C_20
REMARK    4  A    between atoms: C_20  and  C_21
REMARK    5  A    between atoms: C_21  and  C_23
REMARK    6  A    between atoms: C_23  and  C_25
REMARK                            x       y       z     vdW  Elec       q    Type
REMARK                         _______ _______ _______ _____ _____    ______ ____
ROOT
ATOM      1  N   UNL     1      34.524 -22.793 -18.265  0.00  0.00    +0.387 N 
ATOM      2  C   UNL     1      35.092 -23.140 -15.416  0.00  0.00    +0.086 C 
ATOM      3  C   UNL     1      33.950 -23.877 -16.118  0.00  0.00    -0.000 C 
ATOM      4  C   UNL     1      36.177 -22.769 -16.426  0.00  0.00    -0.000 C 
ATOM      5  C   UNL     1      33.436 -23.086 -17.322  0.00  0.00    -0.075 C 
ATOM      6  C   UNL     1      35.591 -22.015 -17.621  0.00  0.00    -0.075 C 
ATOM      7  H   UNL     1      34.923 -23.680 -18.571  0.00  0.00    -0.080 HD
ENDROOT
BRANCH   2   9
ATOM      8  O   UNL     1      33.786 -24.058 -12.857  0.00  0.00    -0.247 OA
ATOM      9  N   UNL     1      35.638 -23.931 -14.343  0.00  0.00    -0.282 N 
ATOM     10  N   UNL     1      35.869 -25.080 -12.402  0.00  0.00    -0.305 N 
ATOM     11  C   UNL     1      36.942 -24.443 -14.293  0.00  0.00    +0.079 A 
ATOM     12  C   UNL     1      34.940 -24.317 -13.166  0.00  0.00    +0.328 A 
ATOM     13  C   UNL     1      37.077 -25.147 -13.098  0.00  0.00    +0.076 A 
ATOM     14  C   UNL     1      37.984 -24.338 -15.189  0.00  0.00    +0.019 C 
ATOM     15  C   UNL     1      38.248 -25.778 -12.740  0.00  0.00    +0.019 C 
ATOM     16  C   UNL     1      39.184 -24.971 -14.849  0.00  0.00    +0.002 C 
ATOM     17  C   UNL     1      39.315 -25.682 -13.637  0.00  0.00    +0.002 C 
ATOM     18  H   UNL     1      35.689 -25.493 -11.527  0.00  0.00    +0.170 HD
ENDBRANCH   2   9
BRANCH   1  19
ATOM     19  C   UNL     1      34.008 -22.082 -19.435  0.00  0.00    -0.077 C 
BRANCH  19  20
ATOM     20  C   UNL     1      35.079 -21.146 -19.999  0.00  0.00    -0.015 C 
BRANCH  20  21
ATOM     21  C   UNL     1      34.490 -20.088 -20.937  0.00  0.00    +0.067 C 
BRANCH  21  23
ATOM     22  O   UNL     1      36.555 -18.849 -20.775  0.00  0.00    -0.291 OA
ATOM     23  C   UNL     1      35.504 -19.044 -21.383  0.00  0.00    +0.173 C 
BRANCH  23  25
ATOM     24  F   UNL     1      34.427 -16.067 -25.981  0.00  0.00    -0.204 F 
ATOM     25  C   UNL     1      35.217 -18.249 -22.610  0.00  0.00    +0.035 C 
ATOM     26  C   UNL     1      34.838 -18.915 -23.755  0.00  0.00    +0.005 C 
ATOM     27  C   UNL     1      35.342 -16.879 -22.555  0.00  0.00    +0.005 C 
ATOM     28  C   UNL     1      34.569 -18.171 -24.903  0.00  0.00    +0.030 C 
ATOM     29  C   UNL     1      35.072 -16.136 -23.704  0.00  0.00    +0.030 C 
ATOM     30  C   UNL     1      34.686 -16.781 -24.878  0.00  0.00    +0.140 C 
ENDBRANCH  23  25
ENDBRANCH  21  23
ENDBRANCH  20  21
ENDBRANCH  19  20
ENDBRANCH   1  19
TORSDOF 6
ENDMDL
MODEL 8
REMARK VINA RESULT:     -12.1      4.369      9.726
REMARK  Name = 16363
REMARK  6 active torsions:
REMARK  status: ('A' for Active; 'I' for Inactive)
REMARK    1  A    between atoms: N_1  and  C_19
REMARK    2  A    between atoms: C_2  and  N_9
REMARK    3  A    between atoms: C_19  and  C_20
REMARK    4  A    between atoms: C_20  and  C_21
REMARK    5  A    between atoms: C_21  and  C_23
REMARK    6  A    between atoms: C_23  and  C_25
REMARK                            x       y       z     vdW  Elec       q    Type
REMARK                         _______ _______ _______ _____ _____    ______ ____
ROOT
ATOM      1  N   UNL     1      36.237 -20.916 -20.306  0.00  0.00    +0.387 N 
ATOM      2  C   UNL     1      35.270 -18.553 -21.736  0.00  0.00    +0.086 C 
ATOM      3  C   UNL     1      36.752 -18.922 -21.675  0.00  0.00    -0.000 C 
ATOM      4  C   UNL     1      34.409 -19.802 -21.545  0.00  0.00    -0.000 C 
ATOM      5  C   UNL     1      37.077 -19.714 -20.408  0.00  0.00    -0.075 C 
ATOM      6  C   UNL     1      34.810 -20.566 -20.282  0.00  0.00    -0.075 C 
ATOM      7  H   UNL     1      36.406 -21.489 -21.132  0.00  0.00    -0.080 HD
ENDROOT
BRANCH   2   9
ATOM      8  O   UNL     1      34.981 -19.714 -24.504  0.00  0.00    -0.247 OA
ATOM      9  N   UNL     1      34.949 -17.893 -22.976  0.00  0.00    -0.282 N 
ATOM     10  N   UNL     1      34.507 -17.492 -25.162  0.00  0.00    -0.305 N 
ATOM     11  C   UNL     1      34.700 -16.522 -23.125  0.00  0.00    +0.079 A 
ATOM     12  C   UNL     1      34.833 -18.529 -24.242  0.00  0.00    +0.328 A 
ATOM     13  C   UNL     1      34.430 -16.283 -24.471  0.00  0.00    +0.076 A 
ATOM     14  C   UNL     1      34.694 -15.503 -22.197  0.00  0.00    +0.019 C 
ATOM     15  C   UNL     1      34.142 -15.026 -24.955  0.00  0.00    +0.019 C 
ATOM     16  C   UNL     1      34.404 -14.216 -22.663  0.00  0.00    +0.002 C 
ATOM     17  C   UNL     1      34.131 -13.981 -24.028  0.00  0.00    +0.002 C 
ATOM     18  H   UNL     1      34.359 -17.610 -26.129  0.00  0.00    +0.170 HD
ENDBRANCH   2   9
BRANCH   1  19
ATOM     19  C   UNL     1      36.594 -21.690 -19.117  0.00  0.00    -0.077 C 
BRANCH  19  20
ATOM     20  C   UNL     1      35.331 -22.198 -18.419  0.00  0.00    -0.015 C 
BRANCH  20  21
ATOM     21  C   UNL     1      35.547 -22.426 -16.920  0.00  0.00    +0.067 C 
BRANCH  21  23
ATOM     22  O   UNL     1      35.219 -24.703 -16.192  0.00  0.00    -0.291 OA
ATOM     23  C   UNL     1      34.735 -23.586 -16.362  0.00  0.00    +0.173 C 
BRANCH  23  25
ATOM     24  F   UNL     1      29.401 -22.695 -14.974  0.00  0.00    -0.204 F 
ATOM     25  C   UNL     1      33.311 -23.349 -15.992  0.00  0.00    +0.035 C 
ATOM     26  C   UNL     1      32.977 -23.288 -14.657  0.00  0.00    +0.005 C 
ATOM     27  C   UNL     1      32.383 -23.198 -16.997  0.00  0.00    +0.005 C 
ATOM     28  C   UNL     1      31.645 -23.066 -14.310  0.00  0.00    +0.030 C 
ATOM     29  C   UNL     1      31.050 -22.975 -16.650  0.00  0.00    +0.030 C 
ATOM     30  C   UNL     1      30.681 -22.909 -15.307  0.00  0.00    +0.140 C 
ENDBRANCH  23  25
ENDBRANCH  21  23
ENDBRANCH  20  21
ENDBRANCH  19  20
ENDBRANCH   1  19
TORSDOF 6
ENDMDL
MODEL 9
REMARK VINA RESULT:     -12.1      4.115      6.661
REMARK  Name = 16363
REMARK  6 active torsions:
REMARK  status: ('A' for Active; 'I' for Inactive)
REMARK    1  A    between atoms: N_1  and  C_19
REMARK    2  A    between atoms: C_2  and  N_9
REMARK    3  A    between atoms: C_19  and  C_20
REMARK    4  A    between atoms: C_20  and  C_21
REMARK    5  A    between atoms: C_21  and  C_23
REMARK    6  A    between atoms: C_23  and  C_25
REMARK                            x       y       z     vdW  Elec       q    Type
REMARK                         _______ _______ _______ _____ _____    ______ ____
ROOT
ATOM      1  N   UNL     1      32.410 -10.780 -22.973  0.00  0.00    +0.387 N 
ATOM      2  C   UNL     1      33.687 -13.351 -23.540  0.00  0.00    +0.086 C 
ATOM      3  C   UNL     1      32.318 -13.249 -22.867  0.00  0.00    -0.000 C 
ATOM      4  C   UNL     1      33.954 -12.103 -24.382  0.00  0.00    -0.000 C 
ATOM      5  C   UNL     1      32.173 -11.935 -22.097  0.00  0.00    -0.075 C 
ATOM      6  C   UNL     1      33.755 -10.826 -23.563  0.00  0.00    -0.075 C 
ATOM      7  H   UNL     1      31.732 -10.818 -23.735  0.00  0.00    -0.080 HD
ENDROOT
BRANCH   2   9
ATOM      8  O   UNL     1      32.671 -13.865 -26.332  0.00  0.00    -0.247 OA
ATOM      9  N   UNL     1      33.784 -14.543 -24.343  0.00  0.00    -0.282 N 
ATOM     10  N   UNL     1      33.597 -16.023 -26.049  0.00  0.00    -0.305 N 
ATOM     11  C   UNL     1      34.401 -15.739 -23.951  0.00  0.00    +0.079 A 
ATOM     12  C   UNL     1      33.270 -14.693 -25.660  0.00  0.00    +0.328 A 
ATOM     13  C   UNL     1      34.282 -16.643 -25.004  0.00  0.00    +0.076 A 
ATOM     14  C   UNL     1      35.037 -16.080 -22.777  0.00  0.00    +0.019 C 
ATOM     15  C   UNL     1      34.788 -17.923 -24.940  0.00  0.00    +0.019 C 
ATOM     16  C   UNL     1      35.560 -17.374 -22.686  0.00  0.00    +0.002 C 
ATOM     17  C   UNL     1      35.436 -18.286 -23.756  0.00  0.00    +0.002 C 
ATOM     18  H   UNL     1      33.377 -16.436 -26.915  0.00  0.00    +0.170 HD
ENDBRANCH   2   9
BRANCH   1  19
ATOM     19  C   UNL     1      32.218  -9.531 -22.236  0.00  0.00    -0.077 C 
BRANCH  19  20
ATOM     20  C   UNL     1      31.627  -8.460 -23.155  0.00  0.00    -0.015 C 
BRANCH  20  21
ATOM     21  C   UNL     1      31.522  -7.096 -22.467  0.00  0.00    +0.067 C 
BRANCH  21  23
ATOM     22  O   UNL     1      30.733  -5.050 -23.474  0.00  0.00    -0.291 OA
ATOM     23  C   UNL     1      31.598  -5.923 -23.434  0.00  0.00    +0.173 C 
BRANCH  23  25
ATOM     24  F   UNL     1      35.996  -5.557 -26.853  0.00  0.00    -0.204 F 
ATOM     25  C   UNL     1      32.772  -5.825 -24.347  0.00  0.00    +0.035 C 
ATOM     26  C   UNL     1      33.934  -6.478 -24.001  0.00  0.00    +0.005 C 
ATOM     27  C   UNL     1      32.651  -5.085 -25.502  0.00  0.00    +0.005 C 
ATOM     28  C   UNL     1      35.032  -6.387 -24.854  0.00  0.00    +0.030 C 
ATOM     29  C   UNL     1      33.750  -4.994 -26.355  0.00  0.00    +0.030 C 
ATOM     30  C   UNL     1      34.941  -5.645 -26.033  0.00  0.00    +0.140 C 
ENDBRANCH  23  25
ENDBRANCH  21  23
ENDBRANCH  20  21
ENDBRANCH  19  20
ENDBRANCH   1  19
TORSDOF 6
ENDMDL
