MODEL 1
REMARK VINA RESULT:     -12.3      0.000      0.000
REMARK  Name = 46937030
REMARK  7 active torsions:
REMARK  status: ('A' for Active; 'I' for Inactive)
REMARK    1  A    between atoms: C_3  and  C_10
REMARK    2  A    between atoms: C_7  and  C_25
REMARK    3  A    between atoms: N_9  and  C_12
REMARK    4  A    between atoms: C_12  and  C_13
REMARK    5  A    between atoms: C_18  and  C_21
REMARK    6  A    between atoms: C_25  and  N_26
REMARK    7  A    between atoms: N_26  and  C_29
REMARK                            x       y       z     vdW  Elec       q    Type
REMARK                         _______ _______ _______ _____ _____    ______ ____
ROOT
ATOM      1  O   UNL     1      35.501 -25.405 -11.968  0.00  0.00    -0.277 OA
ATOM      2  N   UNL     1      36.231 -24.231 -13.819  0.00  0.00    -0.275 N 
ATOM      3  C   UNL     1      36.108 -23.188 -14.836  0.00  0.00    +0.152 C 
ATOM      4  C   UNL     1      37.547 -22.873 -15.234  0.00  0.00    +0.031 C 
ATOM      5  C   UNL     1      37.587 -24.762 -13.774  0.00  0.00    +0.094 C 
ATOM      6  C   UNL     1      38.276 -24.194 -15.004  0.00  0.00    +0.024 C 
ATOM      7  C   UNL     1      35.281 -24.611 -12.884  0.00  0.00    +0.204 C 
ENDROOT
BRANCH   3  10
ATOM      8  O   UNL     1      35.177 -24.969 -16.124  0.00  0.00    -0.273 OA
ATOM      9  N   UNL     1      34.916 -22.780 -16.871  0.00  0.00    -0.299 N 
ATOM     10  C   UNL     1      35.351 -23.760 -15.996  0.00  0.00    +0.241 C 
ATOM     11  H   UNL     1      35.116 -21.840 -16.660  0.00  0.00    +0.150 HD
BRANCH   9  12
ATOM     12  C   UNL     1      34.181 -23.070 -18.082  0.00  0.00    +0.116 C 
BRANCH  12  13
ATOM     13  C   UNL     1      34.374 -22.007 -19.124  0.00  0.00    -0.003 C 
ATOM     14  C   UNL     1      35.660 -21.664 -19.540  0.00  0.00    -0.003 C 
ATOM     15  C   UNL     1      33.267 -21.362 -19.676  0.00  0.00    -0.003 C 
ATOM     16  C   UNL     1      35.840 -20.676 -20.508  0.00  0.00    +0.002 C 
ATOM     17  C   UNL     1      33.447 -20.374 -20.644  0.00  0.00    +0.002 C 
ATOM     18  C   UNL     1      34.733 -20.031 -21.061  0.00  0.00    +0.031 C 
BRANCH  18  21
ATOM     19  N   UNL     1      35.183 -17.680 -21.718  0.00  0.00    -0.343 N 
ATOM     20  N   UNL     1      34.836 -19.313 -23.352  0.00  0.00    -0.285 NA
ATOM     21  C   UNL     1      34.920 -19.002 -22.071  0.00  0.00    +0.117 C 
ATOM     22  H   UNL     1      35.307 -16.999 -22.419  0.00  0.00    +0.144 HD
ATOM     23  H   UNL     1      35.246 -17.426 -20.769  0.00  0.00    +0.144 HD
ATOM     24  H   UNL     1      34.962 -18.618 -24.037  0.00  0.00    +0.188 HD
ENDBRANCH  18  21
ENDBRANCH  12  13
ENDBRANCH   9  12
ENDBRANCH   3  10
BRANCH   7  25
ATOM     25  C   UNL     1      33.915 -23.990 -13.037  0.00  0.00    +0.006 C 
BRANCH  25  26
ATOM     26  N   UNL     1      33.106 -24.924 -13.802  0.00  0.00    +0.391 N 
ATOM     27  H   UNL     1      33.368 -24.867 -14.787  0.00  0.00    -0.084 HD
ATOM     28  H   UNL     1      33.270 -25.867 -13.449  0.00  0.00    -0.084 HD
BRANCH  26  29
ATOM     29  C   UNL     1      31.682 -24.608 -13.662  0.00  0.00    -0.061 C 
ATOM     30  C   UNL     1      31.444 -23.107 -13.873  0.00  0.00    -0.021 C 
ATOM     31  C   UNL     1      30.870 -25.568 -14.545  0.00  0.00    -0.021 C 
ATOM     32  C   UNL     1      29.383 -25.231 -14.664  0.00  0.00    -0.002 C 
ATOM     33  C   UNL     1      31.785 -22.521 -15.244  0.00  0.00    -0.002 C 
ATOM     34  C   UNL     1      28.984 -24.578 -15.990  0.00  0.00    -0.000 C 
ATOM     35  C   UNL     1      30.995 -23.034 -16.448  0.00  0.00    -0.000 C 
ATOM     36  C   UNL     1      29.485 -23.152 -16.234  0.00  0.00    -0.000 C 
ENDBRANCH  26  29
ENDBRANCH  25  26
ENDBRANCH   7  25
TORSDOF 7
ENDMDL
MODEL 2
REMARK VINA RESULT:     -11.5      7.685     12.530
REMARK  Name = 46937030
REMARK  7 active torsions:
REMARK  status: ('A' for Active; 'I' for Inactive)
REMARK    1  A    between atoms: C_3  and  C_10
REMARK    2  A    between atoms: C_7  and  C_25
REMARK    3  A    between atoms: N_9  and  C_12
REMARK    4  A    between atoms: C_12  and  C_13
REMARK    5  A    between atoms: C_18  and  C_21
REMARK    6  A    between atoms: C_25  and  N_26
REMARK    7  A    between atoms: N_26  and  C_29
REMARK                            x       y       z     vdW  Elec       q    Type
REMARK                         _______ _______ _______ _____ _____    ______ ____
ROOT
ATOM      1  O   UNL     1      34.607 -17.230 -25.411  0.00  0.00    -0.277 OA
ATOM      2  N   UNL     1      34.065 -15.001 -25.136  0.00  0.00    -0.275 N 
ATOM      3  C   UNL     1      34.187 -13.697 -24.485  0.00  0.00    +0.152 C 
ATOM      4  C   UNL     1      33.784 -12.695 -25.562  0.00  0.00    +0.031 C 
ATOM      5  C   UNL     1      33.361 -14.888 -26.407  0.00  0.00    +0.094 C 
ATOM      6  C   UNL     1      32.795 -13.477 -26.423  0.00  0.00    +0.024 C 
ATOM      7  C   UNL     1      34.642 -16.197 -24.739  0.00  0.00    +0.204 C 
ENDROOT
BRANCH   3  10
ATOM      8  O   UNL     1      32.857 -14.683 -22.765  0.00  0.00    -0.273 OA
ATOM      9  N   UNL     1      32.806 -12.373 -23.047  0.00  0.00    -0.299 N 
ATOM     10  C   UNL     1      33.223 -13.660 -23.338  0.00  0.00    +0.241 C 
ATOM     11  H   UNL     1      33.172 -11.629 -23.578  0.00  0.00    +0.150 HD
BRANCH   9  12
ATOM     12  C   UNL     1      31.859 -12.066 -21.999  0.00  0.00    +0.116 C 
BRANCH  12  13
ATOM     13  C   UNL     1      31.949 -10.632 -21.562  0.00  0.00    -0.003 C 
ATOM     14  C   UNL     1      32.113  -9.624 -22.513  0.00  0.00    -0.003 C 
ATOM     15  C   UNL     1      31.869 -10.309 -20.208  0.00  0.00    -0.003 C 
ATOM     16  C   UNL     1      32.197  -8.292 -22.108  0.00  0.00    +0.002 C 
ATOM     17  C   UNL     1      31.953  -8.976 -19.803  0.00  0.00    +0.002 C 
ATOM     18  C   UNL     1      32.116  -7.968 -20.753  0.00  0.00    +0.031 C 
BRANCH  18  21
ATOM     19  N   UNL     1      31.717  -5.546 -21.131  0.00  0.00    -0.343 N 
ATOM     20  N   UNL     1      32.755  -6.277 -19.169  0.00  0.00    -0.285 NA
ATOM     21  C   UNL     1      32.203  -6.579 -20.331  0.00  0.00    +0.117 C 
ATOM     22  H   UNL     1      31.786  -4.613 -20.825  0.00  0.00    +0.144 HD
ATOM     23  H   UNL     1      31.305  -5.750 -22.001  0.00  0.00    +0.144 HD
ATOM     24  H   UNL     1      32.815  -5.337 -18.882  0.00  0.00    +0.188 HD
ENDBRANCH  18  21
ENDBRANCH  12  13
ENDBRANCH   9  12
ENDBRANCH   3  10
BRANCH   7  25
ATOM     25  C   UNL     1      35.343 -16.184 -23.404  0.00  0.00    +0.006 C 
BRANCH  25  26
ATOM     26  N   UNL     1      36.024 -17.461 -23.270  0.00  0.00    +0.391 N 
ATOM     27  H   UNL     1      35.451 -18.193 -23.691  0.00  0.00    -0.084 HD
ATOM     28  H   UNL     1      36.926 -17.405 -23.742  0.00  0.00    -0.084 HD
BRANCH  26  29
ATOM     29  C   UNL     1      36.248 -17.779 -21.856  0.00  0.00    -0.061 C 
ATOM     30  C   UNL     1      34.909 -17.947 -21.126  0.00  0.00    -0.021 C 
ATOM     31  C   UNL     1      37.239 -18.950 -21.762  0.00  0.00    -0.021 C 
ATOM     32  C   UNL     1      37.417 -19.531 -20.358  0.00  0.00    -0.002 C 
ATOM     33  C   UNL     1      33.990 -19.080 -21.583  0.00  0.00    -0.002 C 
ATOM     34  C   UNL     1      36.697 -20.862 -20.126  0.00  0.00    -0.000 C 
ATOM     35  C   UNL     1      34.500 -20.511 -21.424  0.00  0.00    -0.000 C 
ATOM     36  C   UNL     1      35.167 -20.820 -20.083  0.00  0.00    -0.000 C 
ENDBRANCH  26  29
ENDBRANCH  25  26
ENDBRANCH   7  25
TORSDOF 7
ENDMDL
MODEL 3
REMARK VINA RESULT:     -10.9      5.916     10.223
REMARK  Name = 46937030
REMARK  7 active torsions:
REMARK  status: ('A' for Active; 'I' for Inactive)
REMARK    1  A    between atoms: C_3  and  C_10
REMARK    2  A    between atoms: C_7  and  C_25
REMARK    3  A    between atoms: N_9  and  C_12
REMARK    4  A    between atoms: C_12  and  C_13
REMARK    5  A    between atoms: C_18  and  C_21
REMARK    6  A    between atoms: C_25  and  N_26
REMARK    7  A    between atoms: N_26  and  C_29
REMARK                            x       y       z     vdW  Elec       q    Type
REMARK                         _______ _______ _______ _____ _____    ______ ____
ROOT
ATOM      1  O   UNL     1      35.181 -19.792 -23.797  0.00  0.00    -0.277 OA
ATOM      2  N   UNL     1      34.985 -17.492 -23.896  0.00  0.00    -0.275 N 
ATOM      3  C   UNL     1      35.376 -16.131 -23.533  0.00  0.00    +0.152 C 
ATOM      4  C   UNL     1      34.947 -15.281 -24.725  0.00  0.00    +0.031 C 
ATOM      5  C   UNL     1      34.115 -17.493 -25.064  0.00  0.00    +0.094 C 
ATOM      6  C   UNL     1      33.743 -16.035 -25.283  0.00  0.00    +0.024 C 
ATOM      7  C   UNL     1      35.455 -18.676 -23.350  0.00  0.00    +0.204 C 
ENDROOT
BRANCH   3  10
ATOM      8  O   UNL     1      34.845 -16.251 -21.209  0.00  0.00    -0.273 OA
ATOM      9  N   UNL     1      33.643 -14.792 -22.567  0.00  0.00    -0.299 N 
ATOM     10  C   UNL     1      34.614 -15.743 -22.303  0.00  0.00    +0.241 C 
ATOM     11  H   UNL     1      33.553 -14.457 -23.489  0.00  0.00    +0.150 HD
BRANCH   9  12
ATOM     12  C   UNL     1      32.755 -14.265 -21.555  0.00  0.00    +0.116 C 
BRANCH  12  13
ATOM     13  C   UNL     1      32.473 -12.804 -21.760  0.00  0.00    -0.003 C 
ATOM     14  C   UNL     1      32.871 -12.178 -22.941  0.00  0.00    -0.003 C 
ATOM     15  C   UNL     1      31.815 -12.075 -20.771  0.00  0.00    -0.003 C 
ATOM     16  C   UNL     1      32.610 -10.821 -23.133  0.00  0.00    +0.002 C 
ATOM     17  C   UNL     1      31.553 -10.718 -20.962  0.00  0.00    +0.002 C 
ATOM     18  C   UNL     1      31.950 -10.091 -22.143  0.00  0.00    +0.031 C 
BRANCH  18  21
ATOM     19  N   UNL     1      31.813  -7.759 -21.303  0.00  0.00    -0.343 N 
ATOM     20  N   UNL     1      31.286  -8.242 -23.527  0.00  0.00    -0.285 NA
ATOM     21  C   UNL     1      31.676  -8.677 -22.342  0.00  0.00    +0.117 C 
ATOM     22  H   UNL     1      31.622  -6.806 -21.461  0.00  0.00    +0.144 HD
ATOM     23  H   UNL     1      32.100  -8.063 -20.412  0.00  0.00    +0.144 HD
ATOM     24  H   UNL     1      31.099  -7.285 -23.664  0.00  0.00    +0.188 HD
ENDBRANCH  18  21
ENDBRANCH  12  13
ENDBRANCH   9  12
ENDBRANCH   3  10
BRANCH   7  25
ATOM     25  C   UNL     1      36.348 -18.541 -22.143  0.00  0.00    +0.006 C 
BRANCH  25  26
ATOM     26  N   UNL     1      35.538 -18.853 -20.977  0.00  0.00    +0.391 N 
ATOM     27  H   UNL     1      36.121 -18.808 -20.141  0.00  0.00    -0.084 HD
ATOM     28  H   UNL     1      34.778 -18.176 -20.914  0.00  0.00    -0.084 HD
BRANCH  26  29
ATOM     29  C   UNL     1      34.965 -20.198 -21.092  0.00  0.00    -0.061 C 
ATOM     30  C   UNL     1      36.043 -21.262 -20.846  0.00  0.00    -0.021 C 
ATOM     31  C   UNL     1      33.702 -20.276 -20.220  0.00  0.00    -0.021 C 
ATOM     32  C   UNL     1      33.107 -21.678 -20.075  0.00  0.00    -0.002 C 
ATOM     33  C   UNL     1      36.703 -21.295 -19.467  0.00  0.00    -0.002 C 
ATOM     34  C   UNL     1      33.392 -22.352 -18.730  0.00  0.00    -0.000 C 
ATOM     35  C   UNL     1      35.814 -21.610 -18.265  0.00  0.00    -0.000 C 
ATOM     36  C   UNL     1      34.839 -22.772 -18.463  0.00  0.00    -0.000 C 
ENDBRANCH  26  29
ENDBRANCH  25  26
ENDBRANCH   7  25
TORSDOF 7
ENDMDL
MODEL 4
REMARK VINA RESULT:     -10.6      1.465      2.137
REMARK  Name = 46937030
REMARK  7 active torsions:
REMARK  status: ('A' for Active; 'I' for Inactive)
REMARK    1  A    between atoms: C_3  and  C_10
REMARK    2  A    between atoms: C_7  and  C_25
REMARK    3  A    between atoms: N_9  and  C_12
REMARK    4  A    between atoms: C_12  and  C_13
REMARK    5  A    between atoms: C_18  and  C_21
REMARK    6  A    between atoms: C_25  and  N_26
REMARK    7  A    between atoms: N_26  and  C_29
REMARK                            x       y       z     vdW  Elec       q    Type
REMARK                         _______ _______ _______ _____ _____    ______ ____
ROOT
ATOM      1  O   UNL     1      36.113 -25.766 -14.396  0.00  0.00    -0.277 OA
ATOM      2  N   UNL     1      36.375 -23.780 -15.546  0.00  0.00    -0.275 N 
ATOM      3  C   UNL     1      35.897 -22.504 -16.076  0.00  0.00    +0.152 C 
ATOM      4  C   UNL     1      37.147 -21.634 -16.163  0.00  0.00    +0.031 C 
ATOM      5  C   UNL     1      37.831 -23.844 -15.571  0.00  0.00    +0.094 C 
ATOM      6  C   UNL     1      38.267 -22.645 -16.398  0.00  0.00    +0.024 C 
ATOM      7  C   UNL     1      35.624 -24.776 -14.943  0.00  0.00    +0.204 C 
ENDROOT
BRANCH   3  10
ATOM      8  O   UNL     1      34.413 -23.551 -17.625  0.00  0.00    -0.273 OA
ATOM      9  N   UNL     1      35.969 -22.013 -18.418  0.00  0.00    -0.299 N 
ATOM     10  C   UNL     1      35.329 -22.755 -17.440  0.00  0.00    +0.241 C 
ATOM     11  H   UNL     1      36.694 -21.403 -18.145  0.00  0.00    +0.150 HD
BRANCH   9  12
ATOM     12  C   UNL     1      35.627 -22.088 -19.820  0.00  0.00    +0.116 C 
BRANCH  12  13
ATOM     13  C   UNL     1      35.553 -20.729 -20.454  0.00  0.00    -0.003 C 
ATOM     14  C   UNL     1      34.319 -20.207 -20.843  0.00  0.00    -0.003 C 
ATOM     15  C   UNL     1      36.718 -19.988 -20.655  0.00  0.00    -0.003 C 
ATOM     16  C   UNL     1      34.250 -18.945 -21.432  0.00  0.00    +0.002 C 
ATOM     17  C   UNL     1      36.649 -18.726 -21.244  0.00  0.00    +0.002 C 
ATOM     18  C   UNL     1      35.415 -18.204 -21.632  0.00  0.00    +0.031 C 
BRANCH  18  21
ATOM     19  N   UNL     1      35.756 -16.677 -23.561  0.00  0.00    -0.343 N 
ATOM     20  N   UNL     1      34.884 -15.861 -21.552  0.00  0.00    -0.285 NA
ATOM     21  C   UNL     1      35.344 -16.888 -22.246  0.00  0.00    +0.117 C 
ATOM     22  H   UNL     1      35.698 -15.777 -23.956  0.00  0.00    +0.144 HD
ATOM     23  H   UNL     1      36.104 -17.428 -24.093  0.00  0.00    +0.144 HD
ATOM     24  H   UNL     1      34.836 -14.969 -21.965  0.00  0.00    +0.188 HD
ENDBRANCH  18  21
ENDBRANCH  12  13
ENDBRANCH   9  12
ENDBRANCH   3  10
BRANCH   7  25
ATOM     25  C   UNL     1      34.128 -24.592 -14.981  0.00  0.00    +0.006 C 
BRANCH  25  26
ATOM     26  N   UNL     1      33.803 -23.546 -14.026  0.00  0.00    +0.391 N 
ATOM     27  H   UNL     1      34.382 -23.661 -13.193  0.00  0.00    -0.084 HD
ATOM     28  H   UNL     1      33.982 -22.639 -14.457  0.00  0.00    -0.084 HD
BRANCH  26  29
ATOM     29  C   UNL     1      32.389 -23.618 -13.643  0.00  0.00    -0.061 C 
ATOM     30  C   UNL     1      31.576 -22.560 -14.401  0.00  0.00    -0.021 C 
ATOM     31  C   UNL     1      31.915 -25.074 -13.765  0.00  0.00    -0.021 C 
ATOM     32  C   UNL     1      30.408 -25.277 -13.596  0.00  0.00    -0.002 C 
ATOM     33  C   UNL     1      31.517 -22.670 -15.925  0.00  0.00    -0.002 C 
ATOM     34  C   UNL     1      29.650 -25.515 -14.904  0.00  0.00    -0.000 C 
ATOM     35  C   UNL     1      30.857 -23.913 -16.519  0.00  0.00    -0.000 C 
ATOM     36  C   UNL     1      29.539 -24.328 -15.864  0.00  0.00    -0.000 C 
ENDBRANCH  26  29
ENDBRANCH  25  26
ENDBRANCH   7  25
TORSDOF 7
ENDMDL
MODEL 5
REMARK VINA RESULT:     -10.5      2.158      5.316
REMARK  Name = 46937030
REMARK  7 active torsions:
REMARK  status: ('A' for Active; 'I' for Inactive)
REMARK    1  A    between atoms: C_3  and  C_10
REMARK    2  A    between atoms: C_7  and  C_25
REMARK    3  A    between atoms: N_9  and  C_12
REMARK    4  A    between atoms: C_12  and  C_13
REMARK    5  A    between atoms: C_18  and  C_21
REMARK    6  A    between atoms: C_25  and  N_26
REMARK    7  A    between atoms: N_26  and  C_29
REMARK                            x       y       z     vdW  Elec       q    Type
REMARK                         _______ _______ _______ _____ _____    ______ ____
ROOT
ATOM      1  O   UNL     1      33.008 -23.653 -13.953  0.00  0.00    -0.277 OA
ATOM      2  N   UNL     1      33.485 -23.336 -16.191  0.00  0.00    -0.275 N 
ATOM      3  C   UNL     1      34.294 -23.525 -17.393  0.00  0.00    +0.152 C 
ATOM      4  C   UNL     1      33.307 -23.371 -18.546  0.00  0.00    +0.031 C 
ATOM      5  C   UNL     1      32.168 -22.809 -16.524  0.00  0.00    +0.094 C 
ATOM      6  C   UNL     1      32.258 -22.412 -17.988  0.00  0.00    +0.024 C 
ATOM      7  C   UNL     1      33.797 -23.723 -14.897  0.00  0.00    +0.204 C 
ENDROOT
BRANCH   3  10
ATOM      8  O   UNL     1      35.712 -21.875 -16.411  0.00  0.00    -0.273 OA
ATOM      9  N   UNL     1      35.747 -22.162 -18.721  0.00  0.00    -0.299 N 
ATOM     10  C   UNL     1      35.327 -22.440 -17.431  0.00  0.00    +0.241 C 
ATOM     11  H   UNL     1      35.364 -22.685 -19.462  0.00  0.00    +0.150 HD
BRANCH   9  12
ATOM     12  C   UNL     1      36.721 -21.140 -19.033  0.00  0.00    +0.116 C 
BRANCH  12  13
ATOM     13  C   UNL     1      36.315 -20.322 -20.225  0.00  0.00    -0.003 C 
ATOM     14  C   UNL     1      37.205 -19.397 -20.770  0.00  0.00    -0.003 C 
ATOM     15  C   UNL     1      35.048 -20.486 -20.785  0.00  0.00    -0.003 C 
ATOM     16  C   UNL     1      36.828 -18.636 -21.877  0.00  0.00    +0.002 C 
ATOM     17  C   UNL     1      34.672 -19.726 -21.892  0.00  0.00    +0.002 C 
ATOM     18  C   UNL     1      35.562 -18.801 -22.438  0.00  0.00    +0.031 C 
BRANCH  18  21
ATOM     19  N   UNL     1      35.668 -16.723 -23.794  0.00  0.00    -0.343 N 
ATOM     20  N   UNL     1      34.318 -18.505 -24.474  0.00  0.00    -0.285 NA
ATOM     21  C   UNL     1      35.169 -18.009 -23.593  0.00  0.00    +0.117 C 
ATOM     22  H   UNL     1      35.389 -16.205 -24.583  0.00  0.00    +0.144 HD
ATOM     23  H   UNL     1      36.301 -16.334 -23.148  0.00  0.00    +0.144 HD
ATOM     24  H   UNL     1      34.051 -17.970 -25.255  0.00  0.00    +0.188 HD
ENDBRANCH  18  21
ENDBRANCH  12  13
ENDBRANCH   9  12
ENDBRANCH   3  10
BRANCH   7  25
ATOM     25  C   UNL     1      35.192 -24.253 -14.682  0.00  0.00    +0.006 C 
BRANCH  25  26
ATOM     26  N   UNL     1      35.790 -23.458 -13.622  0.00  0.00    +0.391 N 
ATOM     27  H   UNL     1      35.320 -22.554 -13.575  0.00  0.00    -0.084 HD
ATOM     28  H   UNL     1      35.686 -23.956 -12.738  0.00  0.00    -0.084 HD
BRANCH  26  29
ATOM     29  C   UNL     1      37.218 -23.246 -13.880  0.00  0.00    -0.061 C 
ATOM     30  C   UNL     1      38.043 -23.581 -12.631  0.00  0.00    -0.021 C 
ATOM     31  C   UNL     1      37.601 -23.971 -15.179  0.00  0.00    -0.021 C 
ATOM     32  C   UNL     1      39.101 -24.013 -15.474  0.00  0.00    -0.002 C 
ATOM     33  C   UNL     1      38.005 -25.023 -12.124  0.00  0.00    -0.002 C 
ATOM     34  C   UNL     1      39.766 -25.363 -15.191  0.00  0.00    -0.000 C 
ATOM     35  C   UNL     1      38.557 -26.111 -13.044  0.00  0.00    -0.000 C 
ATOM     36  C   UNL     1      39.887 -25.777 -13.722  0.00  0.00    -0.000 C 
ENDBRANCH  26  29
ENDBRANCH  25  26
ENDBRANCH   7  25
TORSDOF 7
ENDMDL
MODEL 6
REMARK VINA RESULT:     -10.4     11.940     16.284
REMARK  Name = 46937030
REMARK  7 active torsions:
REMARK  status: ('A' for Active; 'I' for Inactive)
REMARK    1  A    between atoms: C_3  and  C_10
REMARK    2  A    between atoms: C_7  and  C_25
REMARK    3  A    between atoms: N_9  and  C_12
REMARK    4  A    between atoms: C_12  and  C_13
REMARK    5  A    between atoms: C_18  and  C_21
REMARK    6  A    between atoms: C_25  and  N_26
REMARK    7  A    between atoms: N_26  and  C_29
REMARK                            x       y       z     vdW  Elec       q    Type
REMARK                         _______ _______ _______ _____ _____    ______ ____
ROOT
ATOM      1  O   UNL     1      31.866 -10.218 -19.460  0.00  0.00    -0.277 OA
ATOM      2  N   UNL     1      31.791  -8.383 -20.861  0.00  0.00    -0.275 N 
ATOM      3  C   UNL     1      31.399  -7.692 -22.088  0.00  0.00    +0.152 C 
ATOM      4  C   UNL     1      31.346  -6.219 -21.696  0.00  0.00    +0.031 C 
ATOM      5  C   UNL     1      32.246  -7.437 -19.850  0.00  0.00    +0.094 C 
ATOM      6  C   UNL     1      32.383  -6.111 -20.580  0.00  0.00    +0.024 C 
ATOM      7  C   UNL     1      31.637  -9.729 -20.568  0.00  0.00    +0.204 C 
ENDROOT
BRANCH   3  10
ATOM      8  O   UNL     1      32.465  -8.923 -23.834  0.00  0.00    -0.273 OA
ATOM      9  N   UNL     1      33.422  -6.927 -23.115  0.00  0.00    -0.299 N 
ATOM     10  C   UNL     1      32.467  -7.929 -23.113  0.00  0.00    +0.241 C 
ATOM     11  H   UNL     1      33.315  -6.175 -22.488  0.00  0.00    +0.150 HD
BRANCH   9  12
ATOM     12  C   UNL     1      34.570  -6.929 -23.994  0.00  0.00    +0.116 C 
BRANCH  12  13
ATOM     13  C   UNL     1      34.395  -5.985 -25.149  0.00  0.00    -0.003 C 
ATOM     14  C   UNL     1      35.458  -5.747 -26.020  0.00  0.00    -0.003 C 
ATOM     15  C   UNL     1      33.172  -5.345 -25.348  0.00  0.00    -0.003 C 
ATOM     16  C   UNL     1      35.297  -4.869 -27.093  0.00  0.00    +0.002 C 
ATOM     17  C   UNL     1      33.011  -4.467 -26.421  0.00  0.00    +0.002 C 
ATOM     18  C   UNL     1      34.073  -4.230 -27.293  0.00  0.00    +0.031 C 
BRANCH  18  21
ATOM     19  N   UNL     1      34.890  -2.389 -28.744  0.00  0.00    -0.343 N 
ATOM     20  N   UNL     1      32.797  -3.352 -29.131  0.00  0.00    -0.285 NA
ATOM     21  C   UNL     1      33.905  -3.316 -28.411  0.00  0.00    +0.117 C 
ATOM     22  H   UNL     1      34.755  -1.779 -29.506  0.00  0.00    +0.144 HD
ATOM     23  H   UNL     1      35.721  -2.343 -28.219  0.00  0.00    +0.144 HD
ATOM     24  H   UNL     1      32.681  -2.734 -29.888  0.00  0.00    +0.188 HD
ENDBRANCH  18  21
ENDBRANCH  12  13
ENDBRANCH   9  12
ENDBRANCH   3  10
BRANCH   7  25
ATOM     25  C   UNL     1      31.159 -10.603 -21.699  0.00  0.00    +0.006 C 
BRANCH  25  26
ATOM     26  N   UNL     1      32.301 -11.386 -22.142  0.00  0.00    +0.391 N 
ATOM     27  H   UNL     1      32.501 -11.164 -23.118  0.00  0.00    -0.084 HD
ATOM     28  H   UNL     1      33.104 -11.158 -21.557  0.00  0.00    -0.084 HD
BRANCH  26  29
ATOM     29  C   UNL     1      32.020 -12.821 -22.023  0.00  0.00    -0.061 C 
ATOM     30  C   UNL     1      32.481 -13.563 -23.284  0.00  0.00    -0.021 C 
ATOM     31  C   UNL     1      32.574 -13.325 -20.681  0.00  0.00    -0.021 C 
ATOM     32  C   UNL     1      32.539 -14.844 -20.501  0.00  0.00    -0.002 C 
ATOM     33  C   UNL     1      33.974 -13.539 -23.614  0.00  0.00    -0.002 C 
ATOM     34  C   UNL     1      33.895 -15.534 -20.675  0.00  0.00    -0.000 C 
ATOM     35  C   UNL     1      34.928 -14.197 -22.618  0.00  0.00    -0.000 C 
ATOM     36  C   UNL     1      34.479 -15.560 -22.090  0.00  0.00    -0.000 C 
ENDBRANCH  26  29
ENDBRANCH  25  26
ENDBRANCH   7  25
TORSDOF 7
ENDMDL
MODEL 7
REMARK VINA RESULT:     -10.2      4.943     10.620
REMARK  Name = 46937030
REMARK  7 active torsions:
REMARK  status: ('A' for Active; 'I' for Inactive)
REMARK    1  A    between atoms: C_3  and  C_10
REMARK    2  A    between atoms: C_7  and  C_25
REMARK    3  A    between atoms: N_9  and  C_12
REMARK    4  A    between atoms: C_12  and  C_13
REMARK    5  A    between atoms: C_18  and  C_21
REMARK    6  A    between atoms: C_25  and  N_26
REMARK    7  A    between atoms: N_26  and  C_29
REMARK                            x       y       z     vdW  Elec       q    Type
REMARK                         _______ _______ _______ _____ _____    ______ ____
ROOT
ATOM      1  O   UNL     1      35.254 -15.303 -24.029  0.00  0.00    -0.277 OA
ATOM      2  N   UNL     1      34.967 -17.530 -23.484  0.00  0.00    -0.275 N 
ATOM      3  C   UNL     1      34.616 -18.616 -22.570  0.00  0.00    +0.152 C 
ATOM      4  C   UNL     1      34.161 -19.750 -23.484  0.00  0.00    +0.031 C 
ATOM      5  C   UNL     1      35.029 -18.003 -24.861  0.00  0.00    +0.094 C 
ATOM      6  C   UNL     1      34.962 -19.518 -24.763  0.00  0.00    +0.024 C 
ATOM      7  C   UNL     1      35.088 -16.182 -23.182  0.00  0.00    +0.204 C 
ENDROOT
BRANCH   3  10
ATOM      8  O   UNL     1      36.909 -18.390 -21.944  0.00  0.00    -0.273 OA
ATOM      9  N   UNL     1      35.651 -20.115 -21.017  0.00  0.00    -0.299 N 
ATOM     10  C   UNL     1      35.853 -19.004 -21.818  0.00  0.00    +0.241 C 
ATOM     11  H   UNL     1      34.755 -20.524 -20.998  0.00  0.00    +0.150 HD
BRANCH   9  12
ATOM     12  C   UNL     1      36.691 -20.706 -20.206  0.00  0.00    +0.116 C 
BRANCH  12  13
ATOM     13  C   UNL     1      36.129 -21.482 -19.049  0.00  0.00    -0.003 C 
ATOM     14  C   UNL     1      34.835 -21.997 -19.120  0.00  0.00    -0.003 C 
ATOM     15  C   UNL     1      36.901 -21.686 -17.905  0.00  0.00    -0.003 C 
ATOM     16  C   UNL     1      34.312 -22.718 -18.045  0.00  0.00    +0.002 C 
ATOM     17  C   UNL     1      36.378 -22.406 -16.831  0.00  0.00    +0.002 C 
ATOM     18  C   UNL     1      35.084 -22.923 -16.902  0.00  0.00    +0.031 C 
BRANCH  18  21
ATOM     19  N   UNL     1      33.563 -23.130 -14.950  0.00  0.00    -0.343 N 
ATOM     20  N   UNL     1      34.976 -24.897 -15.535  0.00  0.00    -0.285 NA
ATOM     21  C   UNL     1      34.540 -23.674 -15.782  0.00  0.00    +0.117 C 
ATOM     22  H   UNL     1      33.209 -23.658 -14.197  0.00  0.00    +0.144 HD
ATOM     23  H   UNL     1      33.227 -22.220 -15.115  0.00  0.00    +0.144 HD
ATOM     24  H   UNL     1      34.610 -25.407 -14.777  0.00  0.00    +0.188 HD
ENDBRANCH  18  21
ENDBRANCH  12  13
ENDBRANCH   9  12
ENDBRANCH   3  10
BRANCH   7  25
ATOM     25  C   UNL     1      35.005 -15.820 -21.721  0.00  0.00    +0.006 C 
BRANCH  25  26
ATOM     26  N   UNL     1      34.877 -14.374 -21.648  0.00  0.00    +0.391 N 
ATOM     27  H   UNL     1      34.789 -14.094 -20.670  0.00  0.00    -0.084 HD
ATOM     28  H   UNL     1      35.706 -13.949 -22.063  0.00  0.00    -0.084 HD
BRANCH  26  29
ATOM     29  C   UNL     1      33.693 -13.924 -22.387  0.00  0.00    -0.061 C 
ATOM     30  C   UNL     1      32.430 -14.103 -21.534  0.00  0.00    -0.021 C 
ATOM     31  C   UNL     1      33.960 -12.516 -22.942  0.00  0.00    -0.021 C 
ATOM     32  C   UNL     1      32.742 -11.829 -23.563  0.00  0.00    -0.002 C 
ATOM     33  C   UNL     1      32.336 -13.307 -20.231  0.00  0.00    -0.002 C 
ATOM     34  C   UNL     1      32.108 -10.747 -22.684  0.00  0.00    -0.000 C 
ATOM     35  C   UNL     1      32.309 -11.783 -20.335  0.00  0.00    -0.000 C 
ATOM     36  C   UNL     1      31.388 -11.220 -21.419  0.00  0.00    -0.000 C 
ENDBRANCH  26  29
ENDBRANCH  25  26
ENDBRANCH   7  25
TORSDOF 7
ENDMDL
MODEL 8
REMARK VINA RESULT:     -10.2     12.424     17.995
REMARK  Name = 46937030
REMARK  7 active torsions:
REMARK  status: ('A' for Active; 'I' for Inactive)
REMARK    1  A    between atoms: C_3  and  C_10
REMARK    2  A    between atoms: C_7  and  C_25
REMARK    3  A    between atoms: N_9  and  C_12
REMARK    4  A    between atoms: C_12  and  C_13
REMARK    5  A    between atoms: C_18  and  C_21
REMARK    6  A    between atoms: C_25  and  N_26
REMARK    7  A    between atoms: N_26  and  C_29
REMARK                            x       y       z     vdW  Elec       q    Type
REMARK                         _______ _______ _______ _____ _____    ______ ____
ROOT
ATOM      1  O   UNL     1      30.995  -4.407 -22.832  0.00  0.00    -0.277 OA
ATOM      2  N   UNL     1      31.851  -6.336 -21.892  0.00  0.00    -0.275 N 
ATOM      3  C   UNL     1      32.641  -7.565 -21.924  0.00  0.00    +0.152 C 
ATOM      4  C   UNL     1      33.048  -7.795 -20.472  0.00  0.00    +0.031 C 
ATOM      5  C   UNL     1      31.515  -5.965 -20.523  0.00  0.00    +0.094 C 
ATOM      6  C   UNL     1      31.904  -7.168 -19.679  0.00  0.00    +0.024 C 
ATOM      7  C   UNL     1      31.552  -5.499 -22.955  0.00  0.00    +0.204 C 
ENDROOT
BRANCH   3  10
ATOM      8  O   UNL     1      30.865  -8.478 -23.233  0.00  0.00    -0.273 OA
ATOM      9  N   UNL     1      32.050  -9.882 -21.804  0.00  0.00    -0.299 N 
ATOM     10  C   UNL     1      31.754  -8.672 -22.408  0.00  0.00    +0.241 C 
ATOM     11  H   UNL     1      32.790  -9.914 -21.154  0.00  0.00    +0.150 HD
BRANCH   9  12
ATOM     12  C   UNL     1      31.326 -11.102 -22.079  0.00  0.00    +0.116 C 
BRANCH  12  13
ATOM     13  C   UNL     1      32.240 -12.291 -22.164  0.00  0.00    -0.003 C 
ATOM     14  C   UNL     1      33.078 -12.447 -23.268  0.00  0.00    -0.003 C 
ATOM     15  C   UNL     1      32.250 -13.238 -21.140  0.00  0.00    -0.003 C 
ATOM     16  C   UNL     1      33.927 -13.551 -23.348  0.00  0.00    +0.002 C 
ATOM     17  C   UNL     1      33.099 -14.342 -21.220  0.00  0.00    +0.002 C 
ATOM     18  C   UNL     1      33.938 -14.498 -22.323  0.00  0.00    +0.031 C 
BRANCH  18  21
ATOM     19  N   UNL     1      34.871 -16.601 -21.389  0.00  0.00    -0.343 N 
ATOM     20  N   UNL     1      35.608 -15.803 -23.458  0.00  0.00    -0.285 NA
ATOM     21  C   UNL     1      34.824 -15.649 -22.405  0.00  0.00    +0.117 C 
ATOM     22  H   UNL     1      35.478 -17.373 -21.466  0.00  0.00    +0.144 HD
ATOM     23  H   UNL     1      34.297 -16.503 -20.595  0.00  0.00    +0.144 HD
ATOM     24  H   UNL     1      36.208 -16.581 -23.515  0.00  0.00    +0.188 HD
ENDBRANCH  18  21
ENDBRANCH  12  13
ENDBRANCH   9  12
ENDBRANCH   3  10
BRANCH   7  25
ATOM     25  C   UNL     1      31.952  -5.996 -24.322  0.00  0.00    +0.006 C 
BRANCH  25  26
ATOM     26  N   UNL     1      32.311  -4.828 -25.110  0.00  0.00    +0.391 N 
ATOM     27  H   UNL     1      31.461  -4.370 -25.439  0.00  0.00    -0.084 HD
ATOM     28  H   UNL     1      32.851  -4.190 -24.525  0.00  0.00    -0.084 HD
BRANCH  26  29
ATOM     29  C   UNL     1      33.127  -5.217 -26.265  0.00  0.00    -0.061 C 
ATOM     30  C   UNL     1      32.839  -4.295 -27.457  0.00  0.00    -0.021 C 
ATOM     31  C   UNL     1      34.592  -5.338 -25.820  0.00  0.00    -0.021 C 
ATOM     32  C   UNL     1      35.595  -5.537 -26.958  0.00  0.00    -0.002 C 
ATOM     33  C   UNL     1      33.167  -2.810 -27.299  0.00  0.00    -0.002 C 
ATOM     34  C   UNL     1      36.399  -4.286 -27.321  0.00  0.00    -0.000 C 
ATOM     35  C   UNL     1      34.631  -2.429 -27.082  0.00  0.00    -0.000 C 
ATOM     36  C   UNL     1      35.632  -3.144 -27.992  0.00  0.00    -0.000 C 
ENDBRANCH  26  29
ENDBRANCH  25  26
ENDBRANCH   7  25
TORSDOF 7
ENDMDL
MODEL 9
REMARK VINA RESULT:     -10.2      6.491     11.906
REMARK  Name = 46937030
REMARK  7 active torsions:
REMARK  status: ('A' for Active; 'I' for Inactive)
REMARK    1  A    between atoms: C_3  and  C_10
REMARK    2  A    between atoms: C_7  and  C_25
REMARK    3  A    between atoms: N_9  and  C_12
REMARK    4  A    between atoms: C_12  and  C_13
REMARK    5  A    between atoms: C_18  and  C_21
REMARK    6  A    between atoms: C_25  and  N_26
REMARK    7  A    between atoms: N_26  and  C_29
REMARK                            x       y       z     vdW  Elec       q    Type
REMARK                         _______ _______ _______ _____ _____    ______ ____
ROOT
ATOM      1  O   UNL     1      34.228 -12.931 -24.483  0.00  0.00    -0.277 OA
ATOM      2  N   UNL     1      34.241 -15.239 -24.375  0.00  0.00    -0.275 N 
ATOM      3  C   UNL     1      33.773 -16.525 -23.862  0.00  0.00    +0.152 C 
ATOM      4  C   UNL     1      34.052 -17.511 -24.992  0.00  0.00    +0.031 C 
ATOM      5  C   UNL     1      35.026 -15.414 -25.590  0.00  0.00    +0.094 C 
ATOM      6  C   UNL     1      35.269 -16.911 -25.693  0.00  0.00    +0.024 C 
ATOM      7  C   UNL     1      33.902 -13.976 -23.916  0.00  0.00    +0.204 C 
ENDROOT
BRANCH   3  10
ATOM      8  O   UNL     1      34.733 -16.069 -21.724  0.00  0.00    -0.273 OA
ATOM      9  N   UNL     1      35.142 -18.128 -22.729  0.00  0.00    -0.299 N 
ATOM     10  C   UNL     1      34.587 -16.863 -22.649  0.00  0.00    +0.241 C 
ATOM     11  H   UNL     1      34.952 -18.676 -23.525  0.00  0.00    +0.150 HD
BRANCH   9  12
ATOM     12  C   UNL     1      35.989 -18.687 -21.699  0.00  0.00    +0.116 C 
BRANCH  12  13
ATOM     13  C   UNL     1      35.287 -19.755 -20.911  0.00  0.00    -0.003 C 
ATOM     14  C   UNL     1      36.028 -20.674 -20.169  0.00  0.00    -0.003 C 
ATOM     15  C   UNL     1      33.894 -19.828 -20.923  0.00  0.00    -0.003 C 
ATOM     16  C   UNL     1      35.376 -21.667 -19.437  0.00  0.00    +0.002 C 
ATOM     17  C   UNL     1      33.242 -20.821 -20.191  0.00  0.00    +0.002 C 
ATOM     18  C   UNL     1      33.983 -21.740 -19.448  0.00  0.00    +0.031 C 
BRANCH  18  21
ATOM     19  N   UNL     1      32.148 -22.495 -17.955  0.00  0.00    -0.343 N 
ATOM     20  N   UNL     1      33.782 -24.005 -18.670  0.00  0.00    -0.285 NA
ATOM     21  C   UNL     1      33.303 -22.774 -18.684  0.00  0.00    +0.117 C 
ATOM     22  H   UNL     1      31.704 -23.211 -17.446  0.00  0.00    +0.144 HD
ATOM     23  H   UNL     1      31.777 -21.584 -17.950  0.00  0.00    +0.144 HD
ATOM     24  H   UNL     1      33.323 -24.706 -18.154  0.00  0.00    +0.188 HD
ENDBRANCH  18  21
ENDBRANCH  12  13
ENDBRANCH   9  12
ENDBRANCH   3  10
BRANCH   7  25
ATOM     25  C   UNL     1      33.087 -13.928 -22.649  0.00  0.00    +0.006 C 
BRANCH  25  26
ATOM     26  N   UNL     1      33.336 -12.635 -22.031  0.00  0.00    +0.391 N 
ATOM     27  H   UNL     1      33.420 -12.757 -21.021  0.00  0.00    -0.084 HD
ATOM     28  H   UNL     1      34.200 -12.250 -22.413  0.00  0.00    -0.084 HD
BRANCH  26  29
ATOM     29  C   UNL     1      32.237 -11.708 -22.315  0.00  0.00    -0.061 C 
ATOM     30  C   UNL     1      31.375 -11.500 -21.063  0.00  0.00    -0.021 C 
ATOM     31  C   UNL     1      32.811 -10.446 -22.977  0.00  0.00    -0.021 C 
ATOM     32  C   UNL     1      31.813  -9.298 -23.148  0.00  0.00    -0.002 C 
ATOM     33  C   UNL     1      32.041 -10.867 -19.841  0.00  0.00    -0.002 C 
ATOM     34  C   UNL     1      31.979  -8.159 -22.140  0.00  0.00    -0.000 C 
ATOM     35  C   UNL     1      32.561  -9.437 -19.981  0.00  0.00    -0.000 C 
ATOM     36  C   UNL     1      31.613  -8.465 -20.685  0.00  0.00    -0.000 C 
ENDBRANCH  26  29
ENDBRANCH  25  26
ENDBRANCH   7  25
TORSDOF 7
ENDMDL
