MODEL 1
REMARK VINA RESULT:     -13.6      0.000      0.000
REMARK  Name = 5288710
REMARK  3 active torsions:
REMARK  status: ('A' for Active; 'I' for Inactive)
REMARK    1  A    between atoms: C_6  and  N_18
REMARK    2  A    between atoms: C_9  and  C_15
REMARK    3  A    between atoms: N_18  and  C_29
REMARK                            x       y       z     vdW  Elec       q    Type
REMARK                         _______ _______ _______ _____ _____    ______ ____
ROOT
ATOM      1  O   UNL     1      35.259 -23.867 -16.404  0.00  0.00    -0.270 OA
ATOM      2  N   UNL     1      33.299 -24.124 -15.112  0.00  0.00    -0.280 N 
ATOM      3  C   UNL     1      31.753 -23.168 -16.521  0.00  0.00    +0.019 C 
ATOM      4  C   UNL     1      33.069 -23.110 -17.150  0.00  0.00    +0.069 C 
ATOM      5  C   UNL     1      31.950 -23.794 -15.287  0.00  0.00    +0.051 C 
ATOM      6  C   UNL     1      33.402 -22.601 -18.339  0.00  0.00    +0.066 C 
ATOM      7  C   UNL     1      34.063 -23.737 -16.216  0.00  0.00    +0.251 C 
ATOM      8  C   UNL     1      30.494 -22.753 -16.910  0.00  0.00    +0.005 C 
ATOM      9  C   UNL     1      29.431 -22.979 -16.030  0.00  0.00    +0.036 C 
ATOM     10  C   UNL     1      30.915 -24.028 -14.403  0.00  0.00    +0.015 C 
ATOM     11  C   UNL     1      29.639 -23.610 -14.788  0.00  0.00    +0.004 C 
ATOM     12  H   UNL     1      33.661 -24.572 -14.313  0.00  0.00    +0.155 HD
ENDROOT
BRANCH   9  15
ATOM     13  O   UNL     1      27.901 -22.300 -17.715  0.00  0.00    -0.431 OA
ATOM     14  N   UNL     1      25.959 -21.945 -16.611  0.00  0.00    -0.203 NA
ATOM     15  C   UNL     1      28.100 -22.559 -16.397  0.00  0.00    +0.166 C 
ATOM     16  C   UNL     1      26.930 -22.346 -15.729  0.00  0.00    +0.140 C 
ATOM     17  C   UNL     1      26.589 -21.937 -17.763  0.00  0.00    +0.285 C 
ENDBRANCH   9  15
BRANCH   6  18
ATOM     18  N   UNL     1      34.626 -22.554 -18.907  0.00  0.00    -0.311 N 
ATOM     19  H   UNL     1      35.186 -23.354 -18.782  0.00  0.00    +0.152 HD
BRANCH  18  29
ATOM     20  S   UNL     1      35.480 -17.779 -22.863  0.00  0.00    -0.002 S 
ATOM     21  O   UNL     1      35.612 -18.258 -24.225  0.00  0.00    -0.172 OA
ATOM     22  O   UNL     1      35.251 -16.380 -22.568  0.00  0.00    -0.172 OA
ATOM     23  C   UNL     1      34.206 -18.740 -22.060  0.00  0.00    +0.177 C 
ATOM     24  C   UNL     1      36.911 -18.322 -21.943  0.00  0.00    +0.177 C 
ATOM     25  C   UNL     1      34.990 -19.667 -21.194  0.00  0.00    +0.000 C 
ATOM     26  C   UNL     1      36.372 -19.454 -21.134  0.00  0.00    -0.001 C 
ATOM     27  C   UNL     1      34.406 -20.694 -20.454  0.00  0.00    +0.012 C 
ATOM     28  C   UNL     1      37.173 -20.266 -20.334  0.00  0.00    -0.002 C 
ATOM     29  C   UNL     1      35.209 -21.510 -19.657  0.00  0.00    +0.048 C 
ATOM     30  C   UNL     1      36.589 -21.297 -19.597  0.00  0.00    +0.014 C 
ENDBRANCH  18  29
ENDBRANCH   6  18
TORSDOF 3
ENDMDL
MODEL 2
REMARK VINA RESULT:     -13.2      7.248     11.424
REMARK  Name = 5288710
REMARK  3 active torsions:
REMARK  status: ('A' for Active; 'I' for Inactive)
REMARK    1  A    between atoms: C_6  and  N_18
REMARK    2  A    between atoms: C_9  and  C_15
REMARK    3  A    between atoms: N_18  and  C_29
REMARK                            x       y       z     vdW  Elec       q    Type
REMARK                         _______ _______ _______ _____ _____    ______ ____
ROOT
ATOM      1  O   UNL     1      32.811 -13.472 -26.152  0.00  0.00    -0.270 OA
ATOM      2  N   UNL     1      33.564 -15.710 -26.185  0.00  0.00    -0.280 N 
ATOM      3  C   UNL     1      34.246 -15.942 -24.001  0.00  0.00    +0.019 C 
ATOM      4  C   UNL     1      33.733 -14.590 -24.196  0.00  0.00    +0.069 C 
ATOM      5  C   UNL     1      34.120 -16.579 -25.238  0.00  0.00    +0.051 C 
ATOM      6  C   UNL     1      33.642 -13.597 -23.308  0.00  0.00    +0.066 C 
ATOM      7  C   UNL     1      33.293 -14.458 -25.626  0.00  0.00    +0.251 C 
ATOM      8  C   UNL     1      34.774 -16.612 -22.912  0.00  0.00    +0.005 C 
ATOM      9  C   UNL     1      35.174 -17.939 -23.094  0.00  0.00    +0.036 C 
ATOM     10  C   UNL     1      34.508 -17.889 -25.440  0.00  0.00    +0.015 C 
ATOM     11  C   UNL     1      35.043 -18.572 -24.345  0.00  0.00    +0.004 C 
ATOM     12  H   UNL     1      33.386 -15.951 -27.123  0.00  0.00    +0.155 HD
ENDROOT
BRANCH   9  15
ATOM     13  O   UNL     1      35.045 -19.779 -21.596  0.00  0.00    -0.431 OA
ATOM     14  N   UNL     1      36.860 -19.557 -20.264  0.00  0.00    -0.203 NA
ATOM     15  C   UNL     1      35.732 -18.673 -21.983  0.00  0.00    +0.166 C 
ATOM     16  C   UNL     1      36.827 -18.537 -21.181  0.00  0.00    +0.140 C 
ATOM     17  C   UNL     1      35.787 -20.255 -20.558  0.00  0.00    +0.285 C 
ENDBRANCH   9  15
BRANCH   6  18
ATOM     18  N   UNL     1      33.165 -12.349 -23.505  0.00  0.00    -0.311 N 
ATOM     19  H   UNL     1      33.109 -12.057 -24.443  0.00  0.00    +0.152 HD
BRANCH  18  29
ATOM     20  S   UNL     1      32.214  -7.041 -20.329  0.00  0.00    -0.002 S 
ATOM     21  O   UNL     1      33.360  -6.727 -19.498  0.00  0.00    -0.172 OA
ATOM     22  O   UNL     1      31.179  -6.063 -20.598  0.00  0.00    -0.172 OA
ATOM     23  C   UNL     1      32.817  -7.667 -21.889  0.00  0.00    +0.177 C 
ATOM     24  C   UNL     1      31.443  -8.513 -19.677  0.00  0.00    +0.177 C 
ATOM     25  C   UNL     1      32.580  -9.134 -21.770  0.00  0.00    +0.000 C 
ATOM     26  C   UNL     1      31.877  -9.567 -20.639  0.00  0.00    -0.001 C 
ATOM     27  C   UNL     1      33.007 -10.054 -22.725  0.00  0.00    +0.012 C 
ATOM     28  C   UNL     1      31.601 -10.920 -20.461  0.00  0.00    -0.002 C 
ATOM     29  C   UNL     1      32.733 -11.410 -22.544  0.00  0.00    +0.048 C 
ATOM     30  C   UNL     1      32.032 -11.842 -21.415  0.00  0.00    +0.014 C 
ENDBRANCH  18  29
ENDBRANCH   6  18
TORSDOF 3
ENDMDL
MODEL 3
REMARK VINA RESULT:     -12.9      2.119      3.199
REMARK  Name = 5288710
REMARK  3 active torsions:
REMARK  status: ('A' for Active; 'I' for Inactive)
REMARK    1  A    between atoms: C_6  and  N_18
REMARK    2  A    between atoms: C_9  and  C_15
REMARK    3  A    between atoms: N_18  and  C_29
REMARK                            x       y       z     vdW  Elec       q    Type
REMARK                         _______ _______ _______ _____ _____    ______ ____
ROOT
ATOM      1  O   UNL     1      37.158 -21.555 -19.144  0.00  0.00    -0.270 OA
ATOM      2  N   UNL     1      36.115 -22.546 -17.271  0.00  0.00    -0.280 N 
ATOM      3  C   UNL     1      33.913 -22.437 -17.926  0.00  0.00    +0.019 C 
ATOM      4  C   UNL     1      34.749 -21.859 -18.973  0.00  0.00    +0.069 C 
ATOM      5  C   UNL     1      34.792 -22.838 -16.917  0.00  0.00    +0.051 C 
ATOM      6  C   UNL     1      34.375 -21.333 -20.143  0.00  0.00    +0.066 C 
ATOM      7  C   UNL     1      36.180 -21.939 -18.528  0.00  0.00    +0.251 C 
ATOM      8  C   UNL     1      32.550 -22.628 -17.793  0.00  0.00    +0.005 C 
ATOM      9  C   UNL     1      32.087 -23.231 -16.620  0.00  0.00    +0.036 C 
ATOM     10  C   UNL     1      34.356 -23.437 -15.751  0.00  0.00    +0.015 C 
ATOM     11  C   UNL     1      32.981 -23.632 -15.609  0.00  0.00    +0.004 C 
ATOM     12  H   UNL     1      36.897 -22.744 -16.707  0.00  0.00    +0.155 HD
ENDROOT
BRANCH   9  15
ATOM     13  O   UNL     1      29.851 -22.618 -17.137  0.00  0.00    -0.431 OA
ATOM     14  N   UNL     1      28.576 -24.053 -15.940  0.00  0.00    -0.203 NA
ATOM     15  C   UNL     1      30.671 -23.447 -16.441  0.00  0.00    +0.166 C 
ATOM     16  C   UNL     1      29.904 -24.314 -15.719  0.00  0.00    +0.140 C 
ATOM     17  C   UNL     1      28.608 -23.046 -16.783  0.00  0.00    +0.285 C 
ENDBRANCH   9  15
BRANCH   6  18
ATOM     18  N   UNL     1      35.162 -20.801 -21.103  0.00  0.00    -0.311 N 
ATOM     19  H   UNL     1      35.904 -21.370 -21.410  0.00  0.00    +0.152 HD
BRANCH  18  29
ATOM     20  S   UNL     1      34.369 -16.260 -25.336  0.00  0.00    -0.002 S 
ATOM     21  O   UNL     1      35.571 -16.077 -26.126  0.00  0.00    -0.172 OA
ATOM     22  O   UNL     1      33.102 -15.682 -25.736  0.00  0.00    -0.172 OA
ATOM     23  C   UNL     1      34.134 -18.012 -25.080  0.00  0.00    +0.177 C 
ATOM     24  C   UNL     1      34.721 -15.743 -23.663  0.00  0.00    +0.177 C 
ATOM     25  C   UNL     1      34.566 -18.199 -23.666  0.00  0.00    +0.000 C 
ATOM     26  C   UNL     1      34.866 -17.040 -22.941  0.00  0.00    -0.001 C 
ATOM     27  C   UNL     1      34.661 -19.450 -23.058  0.00  0.00    +0.012 C 
ATOM     28  C   UNL     1      35.261 -17.128 -21.608  0.00  0.00    -0.002 C 
ATOM     29  C   UNL     1      35.061 -19.539 -21.724  0.00  0.00    +0.048 C 
ATOM     30  C   UNL     1      35.360 -18.381 -21.001  0.00  0.00    +0.014 C 
ENDBRANCH  18  29
ENDBRANCH   6  18
TORSDOF 3
ENDMDL
MODEL 4
REMARK VINA RESULT:     -12.9     10.098     13.923
REMARK  Name = 5288710
REMARK  3 active torsions:
REMARK  status: ('A' for Active; 'I' for Inactive)
REMARK    1  A    between atoms: C_6  and  N_18
REMARK    2  A    between atoms: C_9  and  C_15
REMARK    3  A    between atoms: N_18  and  C_29
REMARK                            x       y       z     vdW  Elec       q    Type
REMARK                         _______ _______ _______ _____ _____    ______ ____
ROOT
ATOM      1  O   UNL     1      31.848 -10.847 -19.294  0.00  0.00    -0.270 OA
ATOM      2  N   UNL     1      32.126  -8.508 -19.473  0.00  0.00    -0.280 N 
ATOM      3  C   UNL     1      32.016  -8.259 -21.757  0.00  0.00    +0.019 C 
ATOM      4  C   UNL     1      31.863  -9.672 -21.426  0.00  0.00    +0.069 C 
ATOM      5  C   UNL     1      32.172  -7.598 -20.536  0.00  0.00    +0.051 C 
ATOM      6  C   UNL     1      31.686 -10.707 -22.252  0.00  0.00    +0.066 C 
ATOM      7  C   UNL     1      31.937  -9.815 -19.933  0.00  0.00    +0.251 C 
ATOM      8  C   UNL     1      32.028  -7.557 -22.947  0.00  0.00    +0.005 C 
ATOM      9  C   UNL     1      32.202  -6.171 -22.885  0.00  0.00    +0.036 C 
ATOM     10  C   UNL     1      32.344  -6.230 -20.452  0.00  0.00    +0.015 C 
ATOM     11  C   UNL     1      32.358  -5.513 -21.650  0.00  0.00    +0.004 C 
ATOM     12  H   UNL     1      32.214  -8.260 -18.525  0.00  0.00    +0.155 HD
ENDROOT
BRANCH   9  15
ATOM     13  O   UNL     1      33.274  -5.627 -24.935  0.00  0.00    -0.431 OA
ATOM     14  N   UNL     1      31.941  -4.062 -25.877  0.00  0.00    -0.203 NA
ATOM     15  C   UNL     1      32.223  -5.400 -24.106  0.00  0.00    +0.166 C 
ATOM     16  C   UNL     1      31.416  -4.457 -24.673  0.00  0.00    +0.140 C 
ATOM     17  C   UNL     1      33.032  -4.785 -25.977  0.00  0.00    +0.285 C 
ENDBRANCH   9  15
BRANCH   6  18
ATOM     18  N   UNL     1      31.546 -12.011 -21.929  0.00  0.00    -0.311 N 
ATOM     19  H   UNL     1      30.777 -12.228 -21.354  0.00  0.00    +0.152 HD
BRANCH  18  29
ATOM     20  S   UNL     1      34.388 -16.483 -25.259  0.00  0.00    -0.002 S 
ATOM     21  O   UNL     1      33.506 -17.617 -25.456  0.00  0.00    -0.172 OA
ATOM     22  O   UNL     1      35.608 -16.327 -26.026  0.00  0.00    -0.172 OA
ATOM     23  C   UNL     1      33.420 -14.992 -25.430  0.00  0.00    +0.177 C 
ATOM     24  C   UNL     1      34.799 -16.394 -23.524  0.00  0.00    +0.177 C 
ATOM     25  C   UNL     1      33.250 -14.546 -24.018  0.00  0.00    +0.000 C 
ATOM     26  C   UNL     1      33.955 -15.263 -23.043  0.00  0.00    -0.001 C 
ATOM     27  C   UNL     1      32.451 -13.465 -23.653  0.00  0.00    +0.012 C 
ATOM     28  C   UNL     1      33.862 -14.899 -21.701  0.00  0.00    -0.002 C 
ATOM     29  C   UNL     1      32.355 -13.103 -22.308  0.00  0.00    +0.048 C 
ATOM     30  C   UNL     1      33.058 -13.818 -21.336  0.00  0.00    +0.014 C 
ENDBRANCH  18  29
ENDBRANCH   6  18
TORSDOF 3
ENDMDL
MODEL 5
REMARK VINA RESULT:     -12.4     10.712     14.145
REMARK  Name = 5288710
REMARK  3 active torsions:
REMARK  status: ('A' for Active; 'I' for Inactive)
REMARK    1  A    between atoms: C_6  and  N_18
REMARK    2  A    between atoms: C_9  and  C_15
REMARK    3  A    between atoms: N_18  and  C_29
REMARK                            x       y       z     vdW  Elec       q    Type
REMARK                         _______ _______ _______ _____ _____    ______ ____
ROOT
ATOM      1  O   UNL     1      31.769  -8.906 -20.573  0.00  0.00    -0.270 OA
ATOM      2  N   UNL     1      31.851 -11.261 -20.404  0.00  0.00    -0.280 N 
ATOM      3  C   UNL     1      32.784 -11.783 -22.441  0.00  0.00    +0.019 C 
ATOM      4  C   UNL     1      32.642 -10.334 -22.341  0.00  0.00    +0.069 C 
ATOM      5  C   UNL     1      32.289 -12.296 -21.239  0.00  0.00    +0.051 C 
ATOM      6  C   UNL     1      32.973  -9.401 -23.237  0.00  0.00    +0.066 C 
ATOM      7  C   UNL     1      32.033 -10.013 -21.007  0.00  0.00    +0.251 C 
ATOM      8  C   UNL     1      33.273 -12.626 -23.421  0.00  0.00    +0.005 C 
ATOM      9  C   UNL     1      33.254 -14.001 -23.168  0.00  0.00    +0.036 C 
ATOM     10  C   UNL     1      32.262 -13.650 -20.968  0.00  0.00    +0.015 C 
ATOM     11  C   UNL     1      32.754 -14.509 -21.954  0.00  0.00    +0.004 C 
ATOM     12  H   UNL     1      31.466 -11.395 -19.508  0.00  0.00    +0.155 HD
ENDROOT
BRANCH   9  15
ATOM     13  O   UNL     1      34.522 -15.937 -23.706  0.00  0.00    -0.431 OA
ATOM     14  N   UNL     1      34.349 -16.123 -25.954  0.00  0.00    -0.203 NA
ATOM     15  C   UNL     1      33.754 -14.916 -24.166  0.00  0.00    +0.166 C 
ATOM     16  C   UNL     1      33.648 -15.026 -25.522  0.00  0.00    +0.140 C 
ATOM     17  C   UNL     1      34.840 -16.619 -24.841  0.00  0.00    +0.285 C 
ENDBRANCH   9  15
BRANCH   6  18
ATOM     18  N   UNL     1      32.836  -8.062 -23.130  0.00  0.00    -0.311 N 
ATOM     19  H   UNL     1      32.394  -7.742 -22.310  0.00  0.00    +0.152 HD
BRANCH  18  29
ATOM     20  S   UNL     1      32.845  -3.178 -27.044  0.00  0.00    -0.002 S 
ATOM     21  O   UNL     1      32.358  -3.567 -28.354  0.00  0.00    -0.172 OA
ATOM     22  O   UNL     1      32.978  -1.786 -26.666  0.00  0.00    -0.172 OA
ATOM     23  C   UNL     1      31.846  -4.003 -25.814  0.00  0.00    +0.177 C 
ATOM     24  C   UNL     1      34.412  -3.989 -26.772  0.00  0.00    +0.177 C 
ATOM     25  C   UNL     1      32.744  -5.095 -25.340  0.00  0.00    +0.000 C 
ATOM     26  C   UNL     1      34.055  -5.088 -25.829  0.00  0.00    -0.001 C 
ATOM     27  C   UNL     1      32.336  -6.079 -24.442  0.00  0.00    +0.012 C 
ATOM     28  C   UNL     1      34.961  -6.065 -25.422  0.00  0.00    -0.002 C 
ATOM     29  C   UNL     1      33.242  -7.060 -24.037  0.00  0.00    +0.048 C 
ATOM     30  C   UNL     1      34.551  -7.053 -24.526  0.00  0.00    +0.014 C 
ENDBRANCH  18  29
ENDBRANCH   6  18
TORSDOF 3
ENDMDL
MODEL 6
REMARK VINA RESULT:     -12.3      3.482      8.943
REMARK  Name = 5288710
REMARK  3 active torsions:
REMARK  status: ('A' for Active; 'I' for Inactive)
REMARK    1  A    between atoms: C_6  and  N_18
REMARK    2  A    between atoms: C_9  and  C_15
REMARK    3  A    between atoms: N_18  and  C_29
REMARK                            x       y       z     vdW  Elec       q    Type
REMARK                         _______ _______ _______ _____ _____    ______ ____
ROOT
ATOM      1  O   UNL     1      36.301 -22.354 -17.953  0.00  0.00    -0.270 OA
ATOM      2  N   UNL     1      37.198 -20.601 -19.259  0.00  0.00    -0.280 N 
ATOM      3  C   UNL     1      35.519 -20.349 -20.810  0.00  0.00    +0.019 C 
ATOM      4  C   UNL     1      35.152 -21.414 -19.883  0.00  0.00    +0.069 C 
ATOM      5  C   UNL     1      36.769 -19.890 -20.385  0.00  0.00    +0.051 C 
ATOM      6  C   UNL     1      34.047 -22.164 -19.870  0.00  0.00    +0.066 C 
ATOM      7  C   UNL     1      36.258 -21.565 -18.880  0.00  0.00    +0.251 C 
ATOM      8  C   UNL     1      34.897 -19.788 -21.910  0.00  0.00    +0.005 C 
ATOM      9  C   UNL     1      35.560 -18.754 -22.578  0.00  0.00    +0.036 C 
ATOM     10  C   UNL     1      37.441 -18.870 -21.030  0.00  0.00    +0.015 C 
ATOM     11  C   UNL     1      36.819 -18.299 -22.143  0.00  0.00    +0.004 C 
ATOM     12  H   UNL     1      38.052 -20.444 -18.794  0.00  0.00    +0.155 HD
ENDROOT
BRANCH   9  15
ATOM     13  O   UNL     1      35.132 -16.805 -23.868  0.00  0.00    -0.431 OA
ATOM     14  N   UNL     1      33.876 -17.535 -25.602  0.00  0.00    -0.203 NA
ATOM     15  C   UNL     1      34.945 -18.143 -23.733  0.00  0.00    +0.166 C 
ATOM     16  C   UNL     1      34.188 -18.586 -24.778  0.00  0.00    +0.140 C 
ATOM     17  C   UNL     1      34.460 -16.515 -25.016  0.00  0.00    +0.285 C 
ENDBRANCH   9  15
BRANCH   6  18
ATOM     18  N   UNL     1      33.721 -23.147 -19.005  0.00  0.00    -0.311 N 
ATOM     19  H   UNL     1      34.101 -24.034 -19.203  0.00  0.00    +0.152 HD
BRANCH  18  29
ATOM     20  S   UNL     1      31.579 -23.678 -13.148  0.00  0.00    -0.002 S 
ATOM     21  O   UNL     1      31.055 -25.009 -12.911  0.00  0.00    -0.172 OA
ATOM     22  O   UNL     1      31.847 -22.762 -12.058  0.00  0.00    -0.172 OA
ATOM     23  C   UNL     1      33.062 -23.834 -14.131  0.00  0.00    +0.177 C 
ATOM     24  C   UNL     1      30.509 -22.862 -14.321  0.00  0.00    +0.177 C 
ATOM     25  C   UNL     1      32.603 -23.420 -15.487  0.00  0.00    +0.000 C 
ATOM     26  C   UNL     1      31.298 -22.922 -15.585  0.00  0.00    -0.001 C 
ATOM     27  C   UNL     1      33.411 -23.494 -16.620  0.00  0.00    +0.012 C 
ATOM     28  C   UNL     1      30.799 -22.499 -16.815  0.00  0.00    -0.002 C 
ATOM     29  C   UNL     1      32.910 -23.073 -17.852  0.00  0.00    +0.048 C 
ATOM     30  C   UNL     1      31.608 -22.577 -17.949  0.00  0.00    +0.014 C 
ENDBRANCH  18  29
ENDBRANCH   6  18
TORSDOF 3
ENDMDL
MODEL 7
REMARK VINA RESULT:     -12.2      3.895      6.414
REMARK  Name = 5288710
REMARK  3 active torsions:
REMARK  status: ('A' for Active; 'I' for Inactive)
REMARK    1  A    between atoms: C_6  and  N_18
REMARK    2  A    between atoms: C_9  and  C_15
REMARK    3  A    between atoms: N_18  and  C_29
REMARK                            x       y       z     vdW  Elec       q    Type
REMARK                         _______ _______ _______ _____ _____    ______ ____
ROOT
ATOM      1  O   UNL     1      33.399 -19.834 -21.991  0.00  0.00    -0.270 OA
ATOM      2  N   UNL     1      32.964 -21.341 -20.225  0.00  0.00    -0.280 N 
ATOM      3  C   UNL     1      35.038 -21.417 -19.234  0.00  0.00    +0.019 C 
ATOM      4  C   UNL     1      35.092 -20.515 -20.380  0.00  0.00    +0.069 C 
ATOM      5  C   UNL     1      33.723 -21.890 -19.185  0.00  0.00    +0.051 C 
ATOM      6  C   UNL     1      36.132 -19.816 -20.841  0.00  0.00    +0.066 C 
ATOM      7  C   UNL     1      33.731 -20.479 -21.013  0.00  0.00    +0.251 C 
ATOM      8  C   UNL     1      35.971 -21.826 -18.300  0.00  0.00    +0.005 C 
ATOM      9  C   UNL     1      35.555 -22.725 -17.312  0.00  0.00    +0.036 C 
ATOM     10  C   UNL     1      33.292 -22.777 -18.219  0.00  0.00    +0.015 C 
ATOM     11  C   UNL     1      34.229 -23.196 -17.271  0.00  0.00    +0.004 C 
ATOM     12  H   UNL     1      32.011 -21.537 -20.380  0.00  0.00    +0.155 HD
ENDROOT
BRANCH   9  15
ATOM     13  O   UNL     1      36.278 -24.417 -15.810  0.00  0.00    -0.431 OA
ATOM     14  N   UNL     1      38.129 -23.558 -14.832  0.00  0.00    -0.203 NA
ATOM     15  C   UNL     1      36.500 -23.178 -16.319  0.00  0.00    +0.166 C 
ATOM     16  C   UNL     1      37.616 -22.657 -15.732  0.00  0.00    +0.140 C 
ATOM     17  C   UNL     1      37.300 -24.572 -14.923  0.00  0.00    +0.285 C 
ENDBRANCH   9  15
BRANCH   6  18
ATOM     18  N   UNL     1      36.167 -18.985 -21.905  0.00  0.00    -0.311 N 
ATOM     19  H   UNL     1      36.709 -19.290 -22.668  0.00  0.00    +0.152 HD
BRANCH  18  29
ATOM     20  S   UNL     1      33.625 -13.844 -24.411  0.00  0.00    -0.002 S 
ATOM     21  O   UNL     1      34.652 -12.884 -24.769  0.00  0.00    -0.172 OA
ATOM     22  O   UNL     1      32.265 -13.716 -24.893  0.00  0.00    -0.172 OA
ATOM     23  C   UNL     1      34.221 -15.475 -24.829  0.00  0.00    +0.177 C 
ATOM     24  C   UNL     1      33.583 -13.971 -22.630  0.00  0.00    +0.177 C 
ATOM     25  C   UNL     1      34.595 -16.039 -23.501  0.00  0.00    +0.000 C 
ATOM     26  C   UNL     1      34.269 -15.271 -22.377  0.00  0.00    -0.001 C 
ATOM     27  C   UNL     1      35.223 -17.274 -23.348  0.00  0.00    +0.012 C 
ATOM     28  C   UNL     1      34.570 -15.736 -21.098  0.00  0.00    -0.002 C 
ATOM     29  C   UNL     1      35.528 -17.737 -22.068  0.00  0.00    +0.048 C 
ATOM     30  C   UNL     1      35.203 -16.970 -20.947  0.00  0.00    +0.014 C 
ENDBRANCH  18  29
ENDBRANCH   6  18
TORSDOF 3
ENDMDL
MODEL 8
REMARK VINA RESULT:     -12.1     11.053     14.516
REMARK  Name = 5288710
REMARK  3 active torsions:
REMARK  status: ('A' for Active; 'I' for Inactive)
REMARK    1  A    between atoms: C_6  and  N_18
REMARK    2  A    between atoms: C_9  and  C_15
REMARK    3  A    between atoms: N_18  and  C_29
REMARK                            x       y       z     vdW  Elec       q    Type
REMARK                         _______ _______ _______ _____ _____    ______ ____
ROOT
ATOM      1  O   UNL     1      31.746  -8.666 -20.223  0.00  0.00    -0.270 OA
ATOM      2  N   UNL     1      31.838 -11.026 -20.288  0.00  0.00    -0.280 N 
ATOM      3  C   UNL     1      32.570 -11.346 -22.445  0.00  0.00    +0.019 C 
ATOM      4  C   UNL     1      32.443  -9.914 -22.194  0.00  0.00    +0.069 C 
ATOM      5  C   UNL     1      32.191 -11.974 -21.255  0.00  0.00    +0.051 C 
ATOM      6  C   UNL     1      32.689  -8.898 -23.025  0.00  0.00    +0.066 C 
ATOM      7  C   UNL     1      31.964  -9.725 -20.784  0.00  0.00    +0.251 C 
ATOM      8  C   UNL     1      32.961 -12.089 -23.542  0.00  0.00    +0.005 C 
ATOM      9  C   UNL     1      32.962 -13.482 -23.421  0.00  0.00    +0.036 C 
ATOM     10  C   UNL     1      32.186 -13.348 -21.113  0.00  0.00    +0.015 C 
ATOM     11  C   UNL     1      32.579 -14.106 -22.218  0.00  0.00    +0.004 C 
ATOM     12  H   UNL     1      31.540 -11.247 -19.376  0.00  0.00    +0.155 HD
ENDROOT
BRANCH   9  15
ATOM     13  O   UNL     1      33.925 -15.493 -24.243  0.00  0.00    -0.431 OA
ATOM     14  N   UNL     1      33.851 -15.280 -26.494  0.00  0.00    -0.203 NA
ATOM     15  C   UNL     1      33.362 -14.295 -24.545  0.00  0.00    +0.166 C 
ATOM     16  C   UNL     1      33.316 -14.164 -25.902  0.00  0.00    +0.140 C 
ATOM     17  C   UNL     1      34.191 -16.026 -25.467  0.00  0.00    +0.285 C 
ENDBRANCH   9  15
BRANCH   6  18
ATOM     18  N   UNL     1      32.566  -7.576 -22.778  0.00  0.00    -0.311 N 
ATOM     19  H   UNL     1      32.554  -7.319 -21.828  0.00  0.00    +0.152 HD
BRANCH  18  29
ATOM     20  S   UNL     1      33.769  -3.435 -27.315  0.00  0.00    -0.002 S 
ATOM     21  O   UNL     1      34.588  -2.348 -26.815  0.00  0.00    -0.172 OA
ATOM     22  O   UNL     1      33.573  -3.648 -28.734  0.00  0.00    -0.172 OA
ATOM     23  C   UNL     1      34.366  -4.956 -26.593  0.00  0.00    +0.177 C 
ATOM     24  C   UNL     1      32.166  -3.325 -26.535  0.00  0.00    +0.177 C 
ATOM     25  C   UNL     1      33.344  -5.249 -25.548  0.00  0.00    +0.000 C 
ATOM     26  C   UNL     1      32.219  -4.415 -25.518  0.00  0.00    -0.001 C 
ATOM     27  C   UNL     1      33.462  -6.300 -24.642  0.00  0.00    +0.012 C 
ATOM     28  C   UNL     1      31.211  -4.632 -24.582  0.00  0.00    -0.002 C 
ATOM     29  C   UNL     1      32.453  -6.515 -23.702  0.00  0.00    +0.048 C 
ATOM     30  C   UNL     1      31.331  -5.683 -23.672  0.00  0.00    +0.014 C 
ENDBRANCH  18  29
ENDBRANCH   6  18
TORSDOF 3
ENDMDL
MODEL 9
REMARK VINA RESULT:     -12.1      3.308      5.627
REMARK  Name = 5288710
REMARK  3 active torsions:
REMARK  status: ('A' for Active; 'I' for Inactive)
REMARK    1  A    between atoms: C_6  and  N_18
REMARK    2  A    between atoms: C_9  and  C_15
REMARK    3  A    between atoms: N_18  and  C_29
REMARK                            x       y       z     vdW  Elec       q    Type
REMARK                         _______ _______ _______ _____ _____    ______ ____
ROOT
ATOM      1  O   UNL     1      32.690 -21.677 -20.614  0.00  0.00    -0.270 OA
ATOM      2  N   UNL     1      32.483 -22.430 -18.385  0.00  0.00    -0.280 N 
ATOM      3  C   UNL     1      34.699 -22.511 -17.775  0.00  0.00    +0.019 C 
ATOM      4  C   UNL     1      34.604 -22.057 -19.159  0.00  0.00    +0.069 C 
ATOM      5  C   UNL     1      33.383 -22.723 -17.354  0.00  0.00    +0.051 C 
ATOM      6  C   UNL     1      35.590 -21.725 -19.996  0.00  0.00    +0.066 C 
ATOM      7  C   UNL     1      33.152 -22.011 -19.539  0.00  0.00    +0.251 C 
ATOM      8  C   UNL     1      35.760 -22.737 -16.918  0.00  0.00    +0.005 C 
ATOM      9  C   UNL     1      35.471 -23.183 -15.625  0.00  0.00    +0.036 C 
ATOM     10  C   UNL     1      33.075 -23.162 -16.081  0.00  0.00    +0.015 C 
ATOM     11  C   UNL     1      34.142 -23.393 -15.210  0.00  0.00    +0.004 C 
ATOM     12  H   UNL     1      31.505 -22.510 -18.308  0.00  0.00    +0.155 HD
ENDROOT
BRANCH   9  15
ATOM     13  O   UNL     1      36.296 -23.145 -13.397  0.00  0.00    -0.431 OA
ATOM     14  N   UNL     1      38.410 -23.932 -13.560  0.00  0.00    -0.203 NA
ATOM     15  C   UNL     1      36.550 -23.432 -14.700  0.00  0.00    +0.166 C 
ATOM     16  C   UNL     1      37.825 -23.908 -14.801  0.00  0.00    +0.140 C 
ATOM     17  C   UNL     1      37.462 -23.473 -12.776  0.00  0.00    +0.285 C 
ENDBRANCH   9  15
BRANCH   6  18
ATOM     18  N   UNL     1      35.486 -21.306 -21.275  0.00  0.00    -0.311 N 
ATOM     19  H   UNL     1      35.479 -22.016 -21.958  0.00  0.00    +0.152 HD
BRANCH  18  29
ATOM     20  S   UNL     1      34.453 -16.345 -24.948  0.00  0.00    -0.002 S 
ATOM     21  O   UNL     1      35.558 -16.145 -25.866  0.00  0.00    -0.172 OA
ATOM     22  O   UNL     1      33.184 -15.671 -25.130  0.00  0.00    -0.172 OA
ATOM     23  C   UNL     1      34.147 -18.100 -24.823  0.00  0.00    +0.177 C 
ATOM     24  C   UNL     1      35.039 -16.009 -23.295  0.00  0.00    +0.177 C 
ATOM     25  C   UNL     1      34.737 -18.443 -23.498  0.00  0.00    +0.000 C 
ATOM     26  C   UNL     1      35.193 -17.375 -22.716  0.00  0.00    -0.001 C 
ATOM     27  C   UNL     1      34.831 -19.750 -23.022  0.00  0.00    +0.012 C 
ATOM     28  C   UNL     1      35.743 -17.611 -21.458  0.00  0.00    -0.002 C 
ATOM     29  C   UNL     1      35.385 -19.986 -21.764  0.00  0.00    +0.048 C 
ATOM     30  C   UNL     1      35.840 -18.919 -20.984  0.00  0.00    +0.014 C 
ENDBRANCH  18  29
ENDBRANCH   6  18
TORSDOF 3
ENDMDL
