MODEL 1
REMARK VINA RESULT:     -12.4      0.000      0.000
REMARK  Name = 46937134
REMARK  9 active torsions:
REMARK  status: ('A' for Active; 'I' for Inactive)
REMARK    1  A    between atoms: N_2  and  C_15
REMARK    2  A    between atoms: N_6  and  C_29
REMARK    3  A    between atoms: C_16  and  O_19
REMARK    4  A    between atoms: C_18  and  C_21
REMARK    5  A    between atoms: C_21  and  O_22
REMARK    6  A    between atoms: O_22  and  P_23
REMARK    7  A    between atoms: P_23  and  O_25
REMARK    8  A    between atoms: P_23  and  O_27
REMARK    9  A    between atoms: C_29  and  C_30
REMARK                            x       y       z     vdW  Elec       q    Type
REMARK                         _______ _______ _______ _____ _____    ______ ____
ROOT
ATOM      1  O   UNL     1      38.859 -23.539 -15.253  0.00  0.00    -0.208 OA
ATOM      2  N   UNL     1      34.700 -24.528 -13.785  0.00  0.00    -0.209 NA
ATOM      3  N   UNL     1      34.858 -23.373 -15.920  0.00  0.00    -0.279 N 
ATOM      4  N   UNL     1      36.899 -24.653 -13.353  0.00  0.00    -0.241 NA
ATOM      5  N   UNL     1      37.103 -22.888 -16.618  0.00  0.00    -0.301 NA
ATOM      6  N   UNL     1      35.244 -22.291 -17.899  0.00  0.00    -0.292 N 
ATOM      7  C   UNL     1      35.350 -23.942 -14.816  0.00  0.00    +0.191 C 
ATOM      8  C   UNL     1      35.685 -24.945 -12.918  0.00  0.00    +0.205 C 
ATOM      9  C   UNL     1      36.685 -24.023 -14.547  0.00  0.00    +0.183 C 
ATOM     10  C   UNL     1      35.797 -22.851 -16.806  0.00  0.00    +0.248 C 
ATOM     11  C   UNL     1      37.656 -23.477 -15.475  0.00  0.00    +0.224 C 
ATOM     12  H   UNL     1      33.890 -23.325 -16.096  0.00  0.00    +0.152 HD
ATOM     13  H   UNL     1      34.263 -22.293 -17.983  0.00  0.00    +0.151 HD
ENDROOT
BRANCH   2  15
ATOM     14  O   UNL     1      32.532 -24.911 -14.850  0.00  0.00    -0.338 OA
ATOM     15  C   UNL     1      33.213 -24.698 -13.599  0.00  0.00    +0.182 C 
ATOM     16  C   UNL     1      31.126 -23.608 -13.442  0.00  0.00    +0.144 C 
ATOM     17  C   UNL     1      32.549 -23.489 -12.949  0.00  0.00    +0.079 C 
ATOM     18  C   UNL     1      31.297 -24.167 -14.849  0.00  0.00    +0.174 C 
BRANCH  16  19
ATOM     19  O   UNL     1      30.444 -24.561 -12.629  0.00  0.00    -0.382 OA
ATOM     20  H   UNL     1      30.510 -24.297 -11.698  0.00  0.00    +0.210 HD
ENDBRANCH  16  19
BRANCH  18  21
ATOM     21  C   UNL     1      31.407 -23.076 -15.906  0.00  0.00    +0.186 C 
BRANCH  21  22
ATOM     22  O   UNL     1      30.415 -23.300 -16.893  0.00  0.00    -0.271 OA
BRANCH  22  23
ATOM     23  P   UNL     1      28.858 -23.177 -16.466  0.00  0.00    +0.473 P 
ATOM     24  O   UNL     1      28.540 -22.027 -15.556  0.00  0.00    -0.227 OA
BRANCH  23  25
ATOM     25  O   UNL     1      28.093 -23.153 -17.890  0.00  0.00    -0.303 OA
ATOM     26  H   UNL     1      27.152 -22.964 -17.748  0.00  0.00    +0.222 HD
ENDBRANCH  23  25
BRANCH  23  27
ATOM     27  O   UNL     1      28.506 -24.642 -15.879  0.00  0.00    -0.303 OA
ATOM     28  H   UNL     1      27.545 -24.727 -15.777  0.00  0.00    +0.222 HD
ENDBRANCH  23  27
ENDBRANCH  22  23
ENDBRANCH  21  22
ENDBRANCH  18  21
ENDBRANCH   2  15
BRANCH   6  29
ATOM     29  C   UNL     1      36.026 -21.686 -18.953  0.00  0.00    +0.117 C 
BRANCH  29  30
ATOM     30  C   UNL     1      35.141 -20.966 -19.923  0.00  0.00    -0.003 C 
ATOM     31  C   UNL     1      35.649 -20.042 -20.851  0.00  0.00    -0.002 C 
ATOM     32  C   UNL     1      34.760 -19.394 -21.741  0.00  0.00    -0.000 C 
ATOM     33  C   UNL     1      33.776 -21.249 -19.876  0.00  0.00    -0.003 C 
ATOM     34  C   UNL     1      37.020 -19.745 -20.913  0.00  0.00    -0.000 C 
ATOM     35  C   UNL     1      33.388 -19.690 -21.677  0.00  0.00    -0.000 C 
ATOM     36  C   UNL     1      32.901 -20.612 -20.751  0.00  0.00    -0.000 C 
ATOM     37  C   UNL     1      35.268 -18.468 -22.667  0.00  0.00    -0.000 C 
ATOM     38  C   UNL     1      37.508 -18.823 -21.840  0.00  0.00    -0.000 C 
ATOM     39  C   UNL     1      36.633 -18.187 -22.715  0.00  0.00    -0.000 C 
ENDBRANCH  29  30
ENDBRANCH   6  29
TORSDOF 9
ENDMDL
MODEL 2
REMARK VINA RESULT:     -12.2      3.481      6.214
REMARK  Name = 46937134
REMARK  9 active torsions:
REMARK  status: ('A' for Active; 'I' for Inactive)
REMARK    1  A    between atoms: N_2  and  C_15
REMARK    2  A    between atoms: N_6  and  C_29
REMARK    3  A    between atoms: C_16  and  O_19
REMARK    4  A    between atoms: C_18  and  C_21
REMARK    5  A    between atoms: C_21  and  O_22
REMARK    6  A    between atoms: O_22  and  P_23
REMARK    7  A    between atoms: P_23  and  O_25
REMARK    8  A    between atoms: P_23  and  O_27
REMARK    9  A    between atoms: C_29  and  C_30
REMARK                            x       y       z     vdW  Elec       q    Type
REMARK                         _______ _______ _______ _____ _____    ______ ____
ROOT
ATOM      1  O   UNL     1      31.957 -20.532 -21.018  0.00  0.00    -0.208 OA
ATOM      2  N   UNL     1      34.922 -22.429 -18.183  0.00  0.00    -0.209 NA
ATOM      3  N   UNL     1      35.834 -20.957 -19.891  0.00  0.00    -0.279 N 
ATOM      4  N   UNL     1      32.760 -22.239 -18.752  0.00  0.00    -0.241 NA
ATOM      5  N   UNL     1      34.187 -19.997 -21.351  0.00  0.00    -0.301 NA
ATOM      6  N   UNL     1      36.466 -19.541 -21.574  0.00  0.00    -0.292 N 
ATOM      7  C   UNL     1      34.853 -21.593 -19.243  0.00  0.00    +0.191 C 
ATOM      8  C   UNL     1      33.622 -22.797 -17.920  0.00  0.00    +0.205 C 
ATOM      9  C   UNL     1      33.537 -21.482 -19.583  0.00  0.00    +0.183 C 
ATOM     10  C   UNL     1      35.438 -20.156 -20.959  0.00  0.00    +0.248 C 
ATOM     11  C   UNL     1      33.133 -20.646 -20.696  0.00  0.00    +0.224 C 
ATOM     12  H   UNL     1      36.779 -21.051 -19.630  0.00  0.00    +0.152 HD
ATOM     13  H   UNL     1      37.377 -19.699 -21.237  0.00  0.00    +0.151 HD
ENDROOT
BRANCH   2  15
ATOM     14  O   UNL     1      35.847 -23.909 -16.469  0.00  0.00    -0.338 OA
ATOM     15  C   UNL     1      36.149 -22.880 -17.431  0.00  0.00    +0.182 C 
ATOM     16  C   UNL     1      37.540 -22.508 -15.561  0.00  0.00    +0.144 C 
ATOM     17  C   UNL     1      36.822 -21.752 -16.654  0.00  0.00    +0.079 C 
ATOM     18  C   UNL     1      36.589 -23.659 -15.259  0.00  0.00    +0.174 C 
BRANCH  16  19
ATOM     19  O   UNL     1      38.759 -23.023 -16.092  0.00  0.00    -0.382 OA
ATOM     20  H   UNL     1      38.606 -23.912 -16.449  0.00  0.00    +0.210 HD
ENDBRANCH  16  19
BRANCH  18  21
ATOM     21  C   UNL     1      35.591 -23.325 -14.158  0.00  0.00    +0.186 C 
BRANCH  21  22
ATOM     22  O   UNL     1      36.281 -23.280 -12.920  0.00  0.00    -0.271 OA
BRANCH  22  23
ATOM     23  P   UNL     1      36.081 -24.504 -11.880  0.00  0.00    +0.473 P 
ATOM     24  O   UNL     1      36.404 -24.180 -10.451  0.00  0.00    -0.227 OA
BRANCH  23  25
ATOM     25  O   UNL     1      34.553 -24.960 -12.147  0.00  0.00    -0.303 OA
ATOM     26  H   UNL     1      34.208 -25.412 -11.361  0.00  0.00    +0.222 HD
ENDBRANCH  23  25
BRANCH  23  27
ATOM     27  O   UNL     1      36.947 -25.705 -12.530  0.00  0.00    -0.303 OA
ATOM     28  H   UNL     1      36.349 -26.356 -12.929  0.00  0.00    +0.222 HD
ENDBRANCH  23  27
ENDBRANCH  22  23
ENDBRANCH  21  22
ENDBRANCH  18  21
ENDBRANCH   2  15
BRANCH   6  29
ATOM     29  C   UNL     1      36.293 -18.661 -22.707  0.00  0.00    +0.117 C 
BRANCH  29  30
ATOM     30  C   UNL     1      35.543 -17.427 -22.310  0.00  0.00    -0.003 C 
ATOM     31  C   UNL     1      34.908 -16.605 -23.255  0.00  0.00    -0.002 C 
ATOM     32  C   UNL     1      34.215 -15.451 -22.816  0.00  0.00    -0.000 C 
ATOM     33  C   UNL     1      35.493 -17.117 -20.951  0.00  0.00    -0.003 C 
ATOM     34  C   UNL     1      34.947 -16.901 -24.628  0.00  0.00    -0.000 C 
ATOM     35  C   UNL     1      34.177 -15.155 -21.444  0.00  0.00    -0.000 C 
ATOM     36  C   UNL     1      34.812 -15.984 -20.519  0.00  0.00    -0.000 C 
ATOM     37  C   UNL     1      33.582 -14.628 -23.762  0.00  0.00    -0.000 C 
ATOM     38  C   UNL     1      34.312 -16.073 -25.553  0.00  0.00    -0.000 C 
ATOM     39  C   UNL     1      33.631 -14.939 -25.121  0.00  0.00    -0.000 C 
ENDBRANCH  29  30
ENDBRANCH   6  29
TORSDOF 9
ENDMDL
MODEL 3
REMARK VINA RESULT:     -12.1      7.235     10.611
REMARK  Name = 46937134
REMARK  9 active torsions:
REMARK  status: ('A' for Active; 'I' for Inactive)
REMARK    1  A    between atoms: N_2  and  C_15
REMARK    2  A    between atoms: N_6  and  C_29
REMARK    3  A    between atoms: C_16  and  O_19
REMARK    4  A    between atoms: C_18  and  C_21
REMARK    5  A    between atoms: C_21  and  O_22
REMARK    6  A    between atoms: O_22  and  P_23
REMARK    7  A    between atoms: P_23  and  O_25
REMARK    8  A    between atoms: P_23  and  O_27
REMARK    9  A    between atoms: C_29  and  C_30
REMARK                            x       y       z     vdW  Elec       q    Type
REMARK                         _______ _______ _______ _____ _____    ______ ____
ROOT
ATOM      1  O   UNL     1      32.488 -15.967 -26.758  0.00  0.00    -0.208 OA
ATOM      2  N   UNL     1      35.186 -18.017 -23.767  0.00  0.00    -0.209 NA
ATOM      3  N   UNL     1      34.933 -15.608 -23.538  0.00  0.00    -0.279 N 
ATOM      4  N   UNL     1      33.846 -18.286 -25.547  0.00  0.00    -0.241 NA
ATOM      5  N   UNL     1      33.485 -14.606 -25.169  0.00  0.00    -0.301 NA
ATOM      6  N   UNL     1      34.551 -13.353 -23.513  0.00  0.00    -0.292 N 
ATOM      7  C   UNL     1      34.706 -16.798 -24.103  0.00  0.00    +0.191 C 
ATOM      8  C   UNL     1      34.634 -18.892 -24.676  0.00  0.00    +0.205 C 
ATOM      9  C   UNL     1      33.893 -16.970 -25.185  0.00  0.00    +0.183 C 
ATOM     10  C   UNL     1      34.285 -14.523 -24.122  0.00  0.00    +0.248 C 
ATOM     11  C   UNL     1      33.222 -15.835 -25.787  0.00  0.00    +0.224 C 
ATOM     12  H   UNL     1      35.524 -15.506 -22.757  0.00  0.00    +0.152 HD
ATOM     13  H   UNL     1      35.156 -13.354 -22.737  0.00  0.00    +0.151 HD
ENDROOT
BRANCH   2  15
ATOM     14  O   UNL     1      36.152 -19.786 -22.383  0.00  0.00    -0.338 OA
ATOM     15  C   UNL     1      36.126 -18.370 -22.642  0.00  0.00    +0.182 C 
ATOM     16  C   UNL     1      36.369 -18.641 -20.310  0.00  0.00    +0.144 C 
ATOM     17  C   UNL     1      35.759 -17.699 -21.322  0.00  0.00    +0.079 C 
ATOM     18  C   UNL     1      36.183 -20.007 -20.959  0.00  0.00    +0.174 C 
BRANCH  16  19
ATOM     19  O   UNL     1      37.760 -18.348 -20.201  0.00  0.00    -0.382 OA
ATOM     20  H   UNL     1      37.981 -17.608 -20.789  0.00  0.00    +0.210 HD
ENDBRANCH  16  19
BRANCH  18  21
ATOM     21  C   UNL     1      34.874 -20.675 -20.559  0.00  0.00    +0.186 C 
BRANCH  21  22
ATOM     22  O   UNL     1      35.145 -21.643 -19.560  0.00  0.00    -0.271 OA
BRANCH  22  23
ATOM     23  P   UNL     1      33.917 -22.533 -18.993  0.00  0.00    +0.473 P 
ATOM     24  O   UNL     1      32.580 -21.853 -19.015  0.00  0.00    -0.227 OA
BRANCH  23  25
ATOM     25  O   UNL     1      34.011 -23.883 -19.877  0.00  0.00    -0.303 OA
ATOM     26  H   UNL     1      33.595 -24.615 -19.395  0.00  0.00    +0.222 HD
ENDBRANCH  23  25
BRANCH  23  27
ATOM     27  O   UNL     1      34.429 -23.006 -17.534  0.00  0.00    -0.303 OA
ATOM     28  H   UNL     1      34.624 -23.956 -17.552  0.00  0.00    +0.222 HD
ENDBRANCH  23  27
ENDBRANCH  22  23
ENDBRANCH  21  22
ENDBRANCH  18  21
ENDBRANCH   2  15
BRANCH   6  29
ATOM     29  C   UNL     1      33.988 -12.094 -23.947  0.00  0.00    +0.117 C 
BRANCH  29  30
ATOM     30  C   UNL     1      33.063 -11.540 -22.908  0.00  0.00    -0.003 C 
ATOM     31  C   UNL     1      32.907 -10.158 -22.711  0.00  0.00    -0.002 C 
ATOM     32  C   UNL     1      32.017  -9.698 -21.711  0.00  0.00    -0.000 C 
ATOM     33  C   UNL     1      32.350 -12.454 -22.132  0.00  0.00    -0.003 C 
ATOM     34  C   UNL     1      33.615  -9.223 -23.482  0.00  0.00    -0.000 C 
ATOM     35  C   UNL     1      31.309 -10.633 -20.939  0.00  0.00    -0.000 C 
ATOM     36  C   UNL     1      31.475 -12.002 -21.150  0.00  0.00    -0.000 C 
ATOM     37  C   UNL     1      31.861  -8.316 -21.513  0.00  0.00    -0.000 C 
ATOM     38  C   UNL     1      33.449  -7.854 -23.272  0.00  0.00    -0.000 C 
ATOM     39  C   UNL     1      32.573  -7.402 -22.290  0.00  0.00    -0.000 C 
ENDBRANCH  29  30
ENDBRANCH   6  29
TORSDOF 9
ENDMDL
MODEL 4
REMARK VINA RESULT:     -12.0      2.781      5.559
REMARK  Name = 46937134
REMARK  9 active torsions:
REMARK  status: ('A' for Active; 'I' for Inactive)
REMARK    1  A    between atoms: N_2  and  C_15
REMARK    2  A    between atoms: N_6  and  C_29
REMARK    3  A    between atoms: C_16  and  O_19
REMARK    4  A    between atoms: C_18  and  C_21
REMARK    5  A    between atoms: C_21  and  O_22
REMARK    6  A    between atoms: O_22  and  P_23
REMARK    7  A    between atoms: P_23  and  O_25
REMARK    8  A    between atoms: P_23  and  O_27
REMARK    9  A    between atoms: C_29  and  C_30
REMARK                            x       y       z     vdW  Elec       q    Type
REMARK                         _______ _______ _______ _____ _____    ______ ____
ROOT
ATOM      1  O   UNL     1      31.009 -22.493 -17.228  0.00  0.00    -0.208 OA
ATOM      2  N   UNL     1      34.856 -24.387 -15.800  0.00  0.00    -0.209 NA
ATOM      3  N   UNL     1      34.978 -23.077 -17.846  0.00  0.00    -0.279 N 
ATOM      4  N   UNL     1      32.666 -24.105 -15.399  0.00  0.00    -0.241 NA
ATOM      5  N   UNL     1      32.889 -22.111 -18.528  0.00  0.00    -0.301 NA
ATOM      6  N   UNL     1      34.859 -21.804 -19.743  0.00  0.00    -0.292 N 
ATOM      7  C   UNL     1      34.358 -23.613 -16.791  0.00  0.00    +0.191 C 
ATOM      8  C   UNL     1      33.788 -24.662 -14.976  0.00  0.00    +0.205 C 
ATOM      9  C   UNL     1      33.027 -23.446 -16.540  0.00  0.00    +0.183 C 
ATOM     10  C   UNL     1      34.181 -22.319 -18.700  0.00  0.00    +0.248 C 
ATOM     11  C   UNL     1      32.205 -22.656 -17.435  0.00  0.00    +0.224 C 
ATOM     12  H   UNL     1      35.941 -23.210 -18.009  0.00  0.00    +0.152 HD
ATOM     13  H   UNL     1      35.822 -21.995 -19.819  0.00  0.00    +0.151 HD
ENDROOT
BRANCH   2  15
ATOM     14  O   UNL     1      36.342 -26.068 -14.828  0.00  0.00    -0.338 OA
ATOM     15  C   UNL     1      36.275 -24.864 -15.615  0.00  0.00    +0.182 C 
ATOM     16  C   UNL     1      38.227 -24.719 -14.297  0.00  0.00    +0.144 C 
ATOM     17  C   UNL     1      37.161 -23.841 -14.910  0.00  0.00    +0.079 C 
ATOM     18  C   UNL     1      37.458 -25.979 -13.919  0.00  0.00    +0.174 C 
BRANCH  16  19
ATOM     19  O   UNL     1      39.190 -25.030 -15.301  0.00  0.00    -0.382 OA
ATOM     20  H   UNL     1      39.118 -25.969 -15.538  0.00  0.00    +0.210 HD
ENDBRANCH  16  19
BRANCH  18  21
ATOM     21  C   UNL     1      36.905 -25.927 -12.501  0.00  0.00    +0.186 C 
BRANCH  21  22
ATOM     22  O   UNL     1      37.497 -24.833 -11.823  0.00  0.00    -0.271 OA
BRANCH  22  23
ATOM     23  P   UNL     1      36.530 -23.780 -11.064  0.00  0.00    +0.473 P 
ATOM     24  O   UNL     1      36.134 -24.173  -9.671  0.00  0.00    -0.227 OA
BRANCH  23  25
ATOM     25  O   UNL     1      37.350 -22.391 -11.174  0.00  0.00    -0.303 OA
ATOM     26  H   UNL     1      38.226 -22.500 -10.771  0.00  0.00    +0.222 HD
ENDBRANCH  23  25
BRANCH  23  27
ATOM     27  O   UNL     1      35.304 -23.571 -12.098  0.00  0.00    -0.303 OA
ATOM     28  H   UNL     1      34.794 -22.787 -11.842  0.00  0.00    +0.222 HD
ENDBRANCH  23  27
ENDBRANCH  22  23
ENDBRANCH  21  22
ENDBRANCH  18  21
ENDBRANCH   2  15
BRANCH   6  29
ATOM     29  C   UNL     1      34.237 -20.984 -20.758  0.00  0.00    +0.117 C 
BRANCH  29  30
ATOM     30  C   UNL     1      35.218 -20.007 -21.326  0.00  0.00    -0.003 C 
ATOM     31  C   UNL     1      34.997 -19.355 -22.550  0.00  0.00    -0.002 C 
ATOM     32  C   UNL     1      35.964 -18.442 -23.034  0.00  0.00    -0.000 C 
ATOM     33  C   UNL     1      36.376 -19.759 -20.588  0.00  0.00    -0.003 C 
ATOM     34  C   UNL     1      33.838 -19.591 -23.307  0.00  0.00    -0.000 C 
ATOM     35  C   UNL     1      37.124 -18.207 -22.278  0.00  0.00    -0.000 C 
ATOM     36  C   UNL     1      37.327 -18.862 -21.063  0.00  0.00    -0.000 C 
ATOM     37  C   UNL     1      35.744 -17.792 -24.259  0.00  0.00    -0.000 C 
ATOM     38  C   UNL     1      33.634 -18.937 -24.522  0.00  0.00    -0.000 C 
ATOM     39  C   UNL     1      34.586 -18.038 -24.996  0.00  0.00    -0.000 C 
ENDBRANCH  29  30
ENDBRANCH   6  29
TORSDOF 9
ENDMDL
MODEL 5
REMARK VINA RESULT:     -11.9      2.794      6.023
REMARK  Name = 46937134
REMARK  9 active torsions:
REMARK  status: ('A' for Active; 'I' for Inactive)
REMARK    1  A    between atoms: N_2  and  C_15
REMARK    2  A    between atoms: N_6  and  C_29
REMARK    3  A    between atoms: C_16  and  O_19
REMARK    4  A    between atoms: C_18  and  C_21
REMARK    5  A    between atoms: C_21  and  O_22
REMARK    6  A    between atoms: O_22  and  P_23
REMARK    7  A    between atoms: P_23  and  O_25
REMARK    8  A    between atoms: P_23  and  O_27
REMARK    9  A    between atoms: C_29  and  C_30
REMARK                            x       y       z     vdW  Elec       q    Type
REMARK                         _______ _______ _______ _____ _____    ______ ____
ROOT
ATOM      1  O   UNL     1      30.836 -23.302 -17.393  0.00  0.00    -0.208 OA
ATOM      2  N   UNL     1      34.252 -23.708 -14.461  0.00  0.00    -0.209 NA
ATOM      3  N   UNL     1      34.796 -22.805 -16.653  0.00  0.00    -0.279 N 
ATOM      4  N   UNL     1      32.055 -24.010 -14.803  0.00  0.00    -0.241 NA
ATOM      5  N   UNL     1      32.922 -22.627 -18.143  0.00  0.00    -0.301 NA
ATOM      6  N   UNL     1      35.077 -21.981 -18.769  0.00  0.00    -0.292 N 
ATOM      7  C   UNL     1      33.978 -23.303 -15.722  0.00  0.00    +0.191 C 
ATOM      8  C   UNL     1      33.049 -24.131 -13.941  0.00  0.00    +0.205 C 
ATOM      9  C   UNL     1      32.641 -23.488 -15.922  0.00  0.00    +0.183 C 
ATOM     10  C   UNL     1      34.206 -22.477 -17.871  0.00  0.00    +0.248 C 
ATOM     11  C   UNL     1      32.034 -23.145 -17.192  0.00  0.00    +0.224 C 
ATOM     12  H   UNL     1      35.759 -22.679 -16.488  0.00  0.00    +0.152 HD
ATOM     13  H   UNL     1      36.022 -21.893 -18.508  0.00  0.00    +0.151 HD
ENDROOT
BRANCH   2  15
ATOM     14  O   UNL     1      36.683 -23.877 -14.667  0.00  0.00    -0.338 OA
ATOM     15  C   UNL     1      35.583 -23.710 -13.752  0.00  0.00    +0.182 C 
ATOM     16  C   UNL     1      37.206 -25.018 -12.646  0.00  0.00    +0.144 C 
ATOM     17  C   UNL     1      35.709 -24.825 -12.719  0.00  0.00    +0.079 C 
ATOM     18  C   UNL     1      37.654 -24.768 -14.081  0.00  0.00    +0.174 C 
BRANCH  16  19
ATOM     19  O   UNL     1      37.751 -24.013 -11.794  0.00  0.00    -0.382 OA
ATOM     20  H   UNL     1      38.250 -23.373 -12.327  0.00  0.00    +0.210 HD
ENDBRANCH  16  19
BRANCH  18  21
ATOM     21  C   UNL     1      37.688 -26.040 -14.917  0.00  0.00    +0.186 C 
BRANCH  21  22
ATOM     22  O   UNL     1      38.852 -26.774 -14.579  0.00  0.00    -0.271 OA
BRANCH  22  23
ATOM     23  P   UNL     1      40.297 -26.079 -14.807  0.00  0.00    +0.473 P 
ATOM     24  O   UNL     1      40.558 -24.869 -13.958  0.00  0.00    -0.227 OA
BRANCH  23  25
ATOM     25  O   UNL     1      41.327 -27.305 -14.585  0.00  0.00    -0.303 OA
ATOM     26  H   UNL     1      41.522 -27.722 -15.439  0.00  0.00    +0.222 HD
ENDBRANCH  23  25
BRANCH  23  27
ATOM     27  O   UNL     1      40.354 -25.829 -16.404  0.00  0.00    -0.303 OA
ATOM     28  H   UNL     1      40.151 -24.900 -16.593  0.00  0.00    +0.222 HD
ENDBRANCH  23  27
ENDBRANCH  22  23
ENDBRANCH  21  22
ENDBRANCH  18  21
ENDBRANCH   2  15
BRANCH   6  29
ATOM     29  C   UNL     1      34.688 -21.572 -20.099  0.00  0.00    +0.117 C 
BRANCH  29  30
ATOM     30  C   UNL     1      35.619 -20.525 -20.627  0.00  0.00    -0.003 C 
ATOM     31  C   UNL     1      35.333 -19.791 -21.790  0.00  0.00    -0.002 C 
ATOM     32  C   UNL     1      36.255 -18.815 -22.237  0.00  0.00    -0.000 C 
ATOM     33  C   UNL     1      36.796 -20.297 -19.913  0.00  0.00    -0.003 C 
ATOM     34  C   UNL     1      34.153 -20.006 -22.520  0.00  0.00    -0.000 C 
ATOM     35  C   UNL     1      37.435 -18.600 -21.507  0.00  0.00    -0.000 C 
ATOM     36  C   UNL     1      37.702 -19.337 -20.352  0.00  0.00    -0.000 C 
ATOM     37  C   UNL     1      35.969 -18.082 -23.401  0.00  0.00    -0.000 C 
ATOM     38  C   UNL     1      33.885 -19.270 -23.674  0.00  0.00    -0.000 C 
ATOM     39  C   UNL     1      34.792 -18.309 -24.113  0.00  0.00    -0.000 C 
ENDBRANCH  29  30
ENDBRANCH   6  29
TORSDOF 9
ENDMDL
MODEL 6
REMARK VINA RESULT:     -11.6     11.964     15.227
REMARK  Name = 46937134
REMARK  9 active torsions:
REMARK  status: ('A' for Active; 'I' for Inactive)
REMARK    1  A    between atoms: N_2  and  C_15
REMARK    2  A    between atoms: N_6  and  C_29
REMARK    3  A    between atoms: C_16  and  O_19
REMARK    4  A    between atoms: C_18  and  C_21
REMARK    5  A    between atoms: C_21  and  O_22
REMARK    6  A    between atoms: O_22  and  P_23
REMARK    7  A    between atoms: P_23  and  O_25
REMARK    8  A    between atoms: P_23  and  O_27
REMARK    9  A    between atoms: C_29  and  C_30
REMARK                            x       y       z     vdW  Elec       q    Type
REMARK                         _______ _______ _______ _____ _____    ______ ____
ROOT
ATOM      1  O   UNL     1      31.891  -8.350 -19.307  0.00  0.00    -0.208 OA
ATOM      2  N   UNL     1      32.336 -11.924 -22.038  0.00  0.00    -0.209 NA
ATOM      3  N   UNL     1      32.511  -9.730 -23.074  0.00  0.00    -0.279 N 
ATOM      4  N   UNL     1      31.989 -11.230 -19.932  0.00  0.00    -0.241 NA
ATOM      5  N   UNL     1      32.261  -7.893 -21.548  0.00  0.00    -0.301 NA
ATOM      6  N   UNL     1      32.639  -7.574 -23.830  0.00  0.00    -0.292 N 
ATOM      7  C   UNL     1      32.341 -10.571 -22.050  0.00  0.00    +0.191 C 
ATOM      8  C   UNL     1      32.118 -12.279 -20.726  0.00  0.00    +0.205 C 
ATOM      9  C   UNL     1      32.130 -10.157 -20.768  0.00  0.00    +0.183 C 
ATOM     10  C   UNL     1      32.461  -8.373 -22.762  0.00  0.00    +0.248 C 
ATOM     11  C   UNL     1      32.079  -8.744 -20.451  0.00  0.00    +0.224 C 
ATOM     12  H   UNL     1      32.662 -10.050 -23.993  0.00  0.00    +0.152 HD
ATOM     13  H   UNL     1      32.783  -7.991 -24.710  0.00  0.00    +0.151 HD
ENDROOT
BRANCH   2  15
ATOM     14  O   UNL     1      32.638 -14.237 -22.772  0.00  0.00    -0.338 OA
ATOM     15  C   UNL     1      32.526 -12.866 -23.200  0.00  0.00    +0.182 C 
ATOM     16  C   UNL     1      34.082 -13.911 -24.634  0.00  0.00    +0.144 C 
ATOM     17  C   UNL     1      33.780 -12.566 -24.014  0.00  0.00    +0.079 C 
ATOM     18  C   UNL     1      33.664 -14.892 -23.544  0.00  0.00    +0.174 C 
BRANCH  16  19
ATOM     19  O   UNL     1      33.245 -14.081 -25.776  0.00  0.00    -0.382 OA
ATOM     20  H   UNL     1      33.415 -13.366 -26.410  0.00  0.00    +0.210 HD
ENDBRANCH  16  19
BRANCH  18  21
ATOM     21  C   UNL     1      34.807 -15.244 -22.602  0.00  0.00    +0.186 C 
BRANCH  21  22
ATOM     22  O   UNL     1      35.570 -16.288 -23.184  0.00  0.00    -0.271 OA
BRANCH  22  23
ATOM     23  P   UNL     1      35.564 -17.740 -22.469  0.00  0.00    +0.473 P 
ATOM     24  O   UNL     1      35.227 -17.725 -21.006  0.00  0.00    -0.227 OA
BRANCH  23  25
ATOM     25  O   UNL     1      34.550 -18.595 -23.394  0.00  0.00    -0.303 OA
ATOM     26  H   UNL     1      34.177 -18.020 -24.081  0.00  0.00    +0.222 HD
ENDBRANCH  23  25
BRANCH  23  27
ATOM     27  O   UNL     1      37.014 -18.355 -22.839  0.00  0.00    -0.303 OA
ATOM     28  H   UNL     1      37.056 -19.280 -22.550  0.00  0.00    +0.222 HD
ENDBRANCH  23  27
ENDBRANCH  22  23
ENDBRANCH  21  22
ENDBRANCH  18  21
ENDBRANCH   2  15
BRANCH   6  29
ATOM     29  C   UNL     1      32.627  -6.132 -23.744  0.00  0.00    +0.117 C 
BRANCH  29  30
ATOM     30  C   UNL     1      33.380  -5.525 -24.888  0.00  0.00    -0.003 C 
ATOM     31  C   UNL     1      32.883  -4.426 -25.607  0.00  0.00    -0.002 C 
ATOM     32  C   UNL     1      33.643  -3.899 -26.679  0.00  0.00    -0.000 C 
ATOM     33  C   UNL     1      34.609  -6.096 -25.219  0.00  0.00    -0.003 C 
ATOM     34  C   UNL     1      31.648  -3.839 -25.288  0.00  0.00    -0.000 C 
ATOM     35  C   UNL     1      34.878  -4.487 -26.999  0.00  0.00    -0.000 C 
ATOM     36  C   UNL     1      35.356  -5.578 -26.272  0.00  0.00    -0.000 C 
ATOM     37  C   UNL     1      33.146  -2.801 -27.399  0.00  0.00    -0.000 C 
ATOM     38  C   UNL     1      31.170  -2.748 -26.013  0.00  0.00    -0.000 C 
ATOM     39  C   UNL     1      31.918  -2.230 -27.067  0.00  0.00    -0.000 C 
ENDBRANCH  29  30
ENDBRANCH   6  29
TORSDOF 9
ENDMDL
MODEL 7
REMARK VINA RESULT:     -11.6     11.298     14.600
REMARK  Name = 46937134
REMARK  9 active torsions:
REMARK  status: ('A' for Active; 'I' for Inactive)
REMARK    1  A    between atoms: N_2  and  C_15
REMARK    2  A    between atoms: N_6  and  C_29
REMARK    3  A    between atoms: C_16  and  O_19
REMARK    4  A    between atoms: C_18  and  C_21
REMARK    5  A    between atoms: C_21  and  O_22
REMARK    6  A    between atoms: O_22  and  P_23
REMARK    7  A    between atoms: P_23  and  O_25
REMARK    8  A    between atoms: P_23  and  O_27
REMARK    9  A    between atoms: C_29  and  C_30
REMARK                            x       y       z     vdW  Elec       q    Type
REMARK                         _______ _______ _______ _____ _____    ______ ____
ROOT
ATOM      1  O   UNL     1      31.916  -9.999 -18.816  0.00  0.00    -0.208 OA
ATOM      2  N   UNL     1      32.456 -12.640 -22.444  0.00  0.00    -0.209 NA
ATOM      3  N   UNL     1      32.306 -10.246 -22.849  0.00  0.00    -0.279 N 
ATOM      4  N   UNL     1      32.246 -12.576 -20.211  0.00  0.00    -0.241 NA
ATOM      5  N   UNL     1      32.018  -8.924 -20.866  0.00  0.00    -0.301 NA
ATOM      6  N   UNL     1      32.140  -7.968 -22.993  0.00  0.00    -0.292 N 
ATOM      7  C   UNL     1      32.322 -11.343 -22.086  0.00  0.00    +0.191 C 
ATOM      8  C   UNL     1      32.404 -13.353 -21.268  0.00  0.00    +0.205 C 
ATOM      9  C   UNL     1      32.195 -11.312 -20.728  0.00  0.00    +0.183 C 
ATOM     10  C   UNL     1      32.148  -9.037 -22.175  0.00  0.00    +0.248 C 
ATOM     11  C   UNL     1      32.031 -10.050 -20.034  0.00  0.00    +0.224 C 
ATOM     12  H   UNL     1      32.399 -10.290 -23.829  0.00  0.00    +0.152 HD
ATOM     13  H   UNL     1      32.240  -8.117 -23.961  0.00  0.00    +0.151 HD
ENDROOT
BRANCH   2  15
ATOM     14  O   UNL     1      32.807 -14.639 -23.808  0.00  0.00    -0.338 OA
ATOM     15  C   UNL     1      32.627 -13.210 -23.829  0.00  0.00    +0.182 C 
ATOM     16  C   UNL     1      34.154 -13.740 -25.549  0.00  0.00    +0.144 C 
ATOM     17  C   UNL     1      33.833 -12.637 -24.567  0.00  0.00    +0.079 C 
ATOM     18  C   UNL     1      33.821 -15.004 -24.766  0.00  0.00    +0.174 C 
BRANCH  16  19
ATOM     19  O   UNL     1      33.274 -13.623 -26.665  0.00  0.00    -0.382 OA
ATOM     20  H   UNL     1      33.565 -14.223 -27.370  0.00  0.00    +0.210 HD
ENDBRANCH  16  19
BRANCH  18  21
ATOM     21  C   UNL     1      35.017 -15.552 -23.998  0.00  0.00    +0.186 C 
BRANCH  21  22
ATOM     22  O   UNL     1      34.985 -16.967 -24.060  0.00  0.00    -0.271 OA
BRANCH  22  23
ATOM     23  P   UNL     1      35.333 -17.807 -22.721  0.00  0.00    +0.473 P 
ATOM     24  O   UNL     1      35.003 -17.111 -21.433  0.00  0.00    -0.227 OA
BRANCH  23  25
ATOM     25  O   UNL     1      34.557 -19.206 -22.960  0.00  0.00    -0.303 OA
ATOM     26  H   UNL     1      33.603 -19.070 -22.845  0.00  0.00    +0.222 HD
ENDBRANCH  23  25
BRANCH  23  27
ATOM     27  O   UNL     1      36.888 -18.207 -22.912  0.00  0.00    -0.303 OA
ATOM     28  H   UNL     1      37.449 -17.514 -22.530  0.00  0.00    +0.222 HD
ENDBRANCH  23  27
ENDBRANCH  22  23
ENDBRANCH  21  22
ENDBRANCH  18  21
ENDBRANCH   2  15
BRANCH   6  29
ATOM     29  C   UNL     1      31.989  -6.613 -22.514  0.00  0.00    +0.117 C 
BRANCH  29  30
ATOM     30  C   UNL     1      32.058  -5.639 -23.649  0.00  0.00    -0.003 C 
ATOM     31  C   UNL     1      33.142  -5.610 -24.542  0.00  0.00    -0.002 C 
ATOM     32  C   UNL     1      33.148  -4.664 -25.594  0.00  0.00    -0.000 C 
ATOM     33  C   UNL     1      30.994  -4.749 -23.795  0.00  0.00    -0.003 C 
ATOM     34  C   UNL     1      34.222  -6.498 -24.411  0.00  0.00    -0.000 C 
ATOM     35  C   UNL     1      32.069  -3.775 -25.724  0.00  0.00    -0.000 C 
ATOM     36  C   UNL     1      30.999  -3.819 -24.829  0.00  0.00    -0.000 C 
ATOM     37  C   UNL     1      34.233  -4.634 -26.486  0.00  0.00    -0.000 C 
ATOM     38  C   UNL     1      35.292  -6.455 -25.306  0.00  0.00    -0.000 C 
ATOM     39  C   UNL     1      35.297  -5.525 -26.341  0.00  0.00    -0.000 C 
ENDBRANCH  29  30
ENDBRANCH   6  29
TORSDOF 9
ENDMDL
MODEL 8
REMARK VINA RESULT:     -10.7      3.502      6.044
REMARK  Name = 46937134
REMARK  9 active torsions:
REMARK  status: ('A' for Active; 'I' for Inactive)
REMARK    1  A    between atoms: N_2  and  C_15
REMARK    2  A    between atoms: N_6  and  C_29
REMARK    3  A    between atoms: C_16  and  O_19
REMARK    4  A    between atoms: C_18  and  C_21
REMARK    5  A    between atoms: C_21  and  O_22
REMARK    6  A    between atoms: O_22  and  P_23
REMARK    7  A    between atoms: P_23  and  O_25
REMARK    8  A    between atoms: P_23  and  O_27
REMARK    9  A    between atoms: C_29  and  C_30
REMARK                            x       y       z     vdW  Elec       q    Type
REMARK                         _______ _______ _______ _____ _____    ______ ____
ROOT
ATOM      1  O   UNL     1      32.318 -20.274 -20.875  0.00  0.00    -0.208 OA
ATOM      2  N   UNL     1      34.982 -22.629 -18.084  0.00  0.00    -0.209 NA
ATOM      3  N   UNL     1      36.046 -20.869 -19.383  0.00  0.00    -0.279 N 
ATOM      4  N   UNL     1      32.897 -22.354 -18.867  0.00  0.00    -0.241 NA
ATOM      5  N   UNL     1      34.556 -19.674 -20.837  0.00  0.00    -0.301 NA
ATOM      6  N   UNL     1      36.832 -19.171 -20.700  0.00  0.00    -0.292 N 
ATOM      7  C   UNL     1      35.015 -21.616 -18.980  0.00  0.00    +0.191 C 
ATOM      8  C   UNL     1      33.670 -23.046 -18.049  0.00  0.00    +0.205 C 
ATOM      9  C   UNL     1      33.745 -21.455 -19.451  0.00  0.00    +0.183 C 
ATOM     10  C   UNL     1      35.757 -19.892 -20.332  0.00  0.00    +0.248 C 
ATOM     11  C   UNL     1      33.451 -20.436 -20.439  0.00  0.00    +0.224 C 
ATOM     12  H   UNL     1      36.957 -21.002 -19.030  0.00  0.00    +0.152 HD
ATOM     13  H   UNL     1      37.702 -19.381 -20.288  0.00  0.00    +0.151 HD
ENDROOT
BRANCH   2  15
ATOM     14  O   UNL     1      35.679 -24.191 -16.336  0.00  0.00    -0.338 OA
ATOM     15  C   UNL     1      36.124 -23.199 -17.281  0.00  0.00    +0.182 C 
ATOM     16  C   UNL     1      37.464 -22.966 -15.353  0.00  0.00    +0.144 C 
ATOM     17  C   UNL     1      36.873 -22.143 -16.474  0.00  0.00    +0.079 C 
ATOM     18  C   UNL     1      36.390 -24.015 -15.094  0.00  0.00    +0.174 C 
BRANCH  16  19
ATOM     19  O   UNL     1      38.647 -23.601 -15.832  0.00  0.00    -0.382 OA
ATOM     20  H   UNL     1      39.364 -23.477 -15.189  0.00  0.00    +0.210 HD
ENDBRANCH  16  19
BRANCH  18  21
ATOM     21  C   UNL     1      35.385 -23.579 -14.036  0.00  0.00    +0.186 C 
BRANCH  21  22
ATOM     22  O   UNL     1      35.232 -24.630 -13.097  0.00  0.00    -0.271 OA
BRANCH  22  23
ATOM     23  P   UNL     1      36.288 -24.732 -11.874  0.00  0.00    +0.473 P 
ATOM     24  O   UNL     1      37.440 -25.665 -12.108  0.00  0.00    -0.227 OA
BRANCH  23  25
ATOM     25  O   UNL     1      36.700 -23.189 -11.622  0.00  0.00    -0.303 OA
ATOM     26  H   UNL     1      36.468 -22.937 -10.714  0.00  0.00    +0.222 HD
ENDBRANCH  23  25
BRANCH  23  27
ATOM     27  O   UNL     1      35.361 -25.084 -10.596  0.00  0.00    -0.303 OA
ATOM     28  H   UNL     1      34.587 -25.589 -10.888  0.00  0.00    +0.222 HD
ENDBRANCH  23  27
ENDBRANCH  22  23
ENDBRANCH  21  22
ENDBRANCH  18  21
ENDBRANCH   2  15
BRANCH   6  29
ATOM     29  C   UNL     1      36.769 -18.103 -21.671  0.00  0.00    +0.117 C 
BRANCH  29  30
ATOM     30  C   UNL     1      35.988 -18.528 -22.876  0.00  0.00    -0.003 C 
ATOM     31  C   UNL     1      35.246 -17.615 -23.643  0.00  0.00    -0.002 C 
ATOM     32  C   UNL     1      34.528 -18.080 -24.771  0.00  0.00    -0.000 C 
ATOM     33  C   UNL     1      36.023 -19.880 -23.218  0.00  0.00    -0.003 C 
ATOM     34  C   UNL     1      35.199 -16.250 -23.314  0.00  0.00    -0.000 C 
ATOM     35  C   UNL     1      34.574 -19.444 -25.099  0.00  0.00    -0.000 C 
ATOM     36  C   UNL     1      35.318 -20.337 -24.327  0.00  0.00    -0.000 C 
ATOM     37  C   UNL     1      33.785 -17.167 -25.537  0.00  0.00    -0.000 C 
ATOM     38  C   UNL     1      34.456 -15.357 -24.086  0.00  0.00    -0.000 C 
ATOM     39  C   UNL     1      33.751 -15.815 -25.196  0.00  0.00    -0.000 C 
ENDBRANCH  29  30
ENDBRANCH   6  29
TORSDOF 9
ENDMDL
MODEL 9
REMARK VINA RESULT:     -10.7     12.843     16.075
REMARK  Name = 46937134
REMARK  9 active torsions:
REMARK  status: ('A' for Active; 'I' for Inactive)
REMARK    1  A    between atoms: N_2  and  C_15
REMARK    2  A    between atoms: N_6  and  C_29
REMARK    3  A    between atoms: C_16  and  O_19
REMARK    4  A    between atoms: C_18  and  C_21
REMARK    5  A    between atoms: C_21  and  O_22
REMARK    6  A    between atoms: O_22  and  P_23
REMARK    7  A    between atoms: P_23  and  O_25
REMARK    8  A    between atoms: P_23  and  O_27
REMARK    9  A    between atoms: C_29  and  C_30
REMARK                            x       y       z     vdW  Elec       q    Type
REMARK                         _______ _______ _______ _____ _____    ______ ____
ROOT
ATOM      1  O   UNL     1      31.275 -10.327 -18.600  0.00  0.00    -0.208 OA
ATOM      2  N   UNL     1      32.838  -7.295 -21.565  0.00  0.00    -0.209 NA
ATOM      3  N   UNL     1      32.768  -9.611 -22.306  0.00  0.00    -0.279 N 
ATOM      4  N   UNL     1      32.017  -7.620 -19.501  0.00  0.00    -0.241 NA
ATOM      5  N   UNL     1      31.927 -11.149 -20.666  0.00  0.00    -0.301 NA
ATOM      6  N   UNL     1      32.615 -11.842 -22.786  0.00  0.00    -0.292 N 
ATOM      7  C   UNL     1      32.589  -8.618 -21.430  0.00  0.00    +0.191 C 
ATOM      8  C   UNL     1      32.474  -6.728 -20.364  0.00  0.00    +0.205 C 
ATOM      9  C   UNL     1      32.091  -8.807 -20.175  0.00  0.00    +0.183 C 
ATOM     10  C   UNL     1      32.414 -10.883 -21.864  0.00  0.00    +0.248 C 
ATOM     11  C   UNL     1      31.724 -10.134 -19.722  0.00  0.00    +0.224 C 
ATOM     12  H   UNL     1      33.130  -9.452 -23.208  0.00  0.00    +0.152 HD
ATOM     13  H   UNL     1      32.982 -11.583 -23.662  0.00  0.00    +0.151 HD
ENDROOT
BRANCH   2  15
ATOM     14  O   UNL     1      32.869  -5.234 -22.881  0.00  0.00    -0.338 OA
ATOM     15  C   UNL     1      33.395  -6.570 -22.764  0.00  0.00    +0.182 C 
ATOM     16  C   UNL     1      33.147  -6.125 -25.068  0.00  0.00    +0.144 C 
ATOM     17  C   UNL     1      33.087  -7.270 -24.083  0.00  0.00    +0.079 C 
ATOM     18  C   UNL     1      32.590  -4.955 -24.268  0.00  0.00    +0.174 C 
BRANCH  16  19
ATOM     19  O   UNL     1      34.513  -5.877 -25.390  0.00  0.00    -0.382 OA
ATOM     20  H   UNL     1      34.777  -6.439 -26.137  0.00  0.00    +0.210 HD
ENDBRANCH  16  19
BRANCH  18  21
ATOM     21  C   UNL     1      31.082  -4.802 -24.421  0.00  0.00    +0.186 C 
BRANCH  21  22
ATOM     22  O   UNL     1      30.772  -3.421 -24.500  0.00  0.00    -0.271 OA
BRANCH  22  23
ATOM     23  P   UNL     1      30.468  -2.617 -23.128  0.00  0.00    +0.473 P 
ATOM     24  O   UNL     1      29.219  -1.786 -23.145  0.00  0.00    -0.227 OA
BRANCH  23  25
ATOM     25  O   UNL     1      30.495  -3.786 -22.011  0.00  0.00    -0.303 OA
ATOM     26  H   UNL     1      30.562  -4.649 -22.448  0.00  0.00    +0.222 HD
ENDBRANCH  23  25
BRANCH  23  27
ATOM     27  O   UNL     1      31.837  -1.803 -22.850  0.00  0.00    -0.303 OA
ATOM     28  H   UNL     1      31.804  -1.408 -21.965  0.00  0.00    +0.222 HD
ENDBRANCH  23  27
ENDBRANCH  22  23
ENDBRANCH  21  22
ENDBRANCH  18  21
ENDBRANCH   2  15
BRANCH   6  29
ATOM     29  C   UNL     1      32.318 -13.237 -22.549  0.00  0.00    +0.117 C 
BRANCH  29  30
ATOM     30  C   UNL     1      33.024 -14.106 -23.542  0.00  0.00    -0.003 C 
ATOM     31  C   UNL     1      33.875 -15.151 -23.145  0.00  0.00    -0.002 C 
ATOM     32  C   UNL     1      34.515 -15.937 -24.134  0.00  0.00    -0.000 C 
ATOM     33  C   UNL     1      32.805 -13.842 -24.894  0.00  0.00    -0.003 C 
ATOM     34  C   UNL     1      34.108 -15.431 -21.789  0.00  0.00    -0.000 C 
ATOM     35  C   UNL     1      34.283 -15.655 -25.490  0.00  0.00    -0.000 C 
ATOM     36  C   UNL     1      33.433 -14.615 -25.866  0.00  0.00    -0.000 C 
ATOM     37  C   UNL     1      35.367 -16.980 -23.737  0.00  0.00    -0.000 C 
ATOM     38  C   UNL     1      34.957 -16.472 -21.413  0.00  0.00    -0.000 C 
ATOM     39  C   UNL     1      35.585 -17.245 -22.385  0.00  0.00    -0.000 C 
ENDBRANCH  29  30
ENDBRANCH   6  29
TORSDOF 9
ENDMDL
