MODEL 1
REMARK VINA RESULT:     -13.9      0.000      0.000
REMARK  Name = 25191001
REMARK  7 active torsions:
REMARK  status: ('A' for Active; 'I' for Inactive)
REMARK    1  A    between atoms: C_1  and  N_9
REMARK    2  A    between atoms: C_2  and  O_24
REMARK    3  A    between atoms: N_8  and  C_14
REMARK    4  A    between atoms: C_15  and  C_23
REMARK    5  A    between atoms: O_24  and  C_26
REMARK    6  A    between atoms: C_28  and  C_33
REMARK    7  A    between atoms: N_32  and  C_35
REMARK                            x       y       z     vdW  Elec       q    Type
REMARK                         _______ _______ _______ _____ _____    ______ ____
ROOT
ATOM      1  C   UNL     1      35.066 -21.905 -18.969  0.00  0.00    +0.052 C 
ATOM      2  C   UNL     1      34.248 -23.462 -16.803  0.00  0.00    +0.145 C 
ATOM      3  C   UNL     1      35.891 -22.035 -17.851  0.00  0.00    +0.018 C 
ATOM      4  C   UNL     1      33.832 -22.553 -19.003  0.00  0.00    +0.018 C 
ATOM      5  C   UNL     1      35.482 -22.813 -16.769  0.00  0.00    +0.039 C 
ATOM      6  C   UNL     1      33.422 -23.332 -17.920  0.00  0.00    +0.039 C 
ENDROOT
BRANCH   1   9
ATOM      7  O   UNL     1      33.530 -19.950 -20.624  0.00  0.00    -0.252 OA
ATOM      8  N   UNL     1      35.512 -19.622 -21.829  0.00  0.00    -0.268 N 
ATOM      9  N   UNL     1      35.481 -21.114 -20.066  0.00  0.00    -0.268 N 
ATOM     10  C   UNL     1      34.715 -20.206 -20.814  0.00  0.00    +0.308 C 
ATOM     11  H   UNL     1      36.449 -19.923 -21.862  0.00  0.00    +0.156 HD
ATOM     12  H   UNL     1      36.421 -21.213 -20.338  0.00  0.00    +0.156 HD
BRANCH   8  14
ATOM     13 CL   UNL     1      33.967 -15.639 -25.913  0.00  0.00    -0.082 Cl
ATOM     14  C   UNL     1      35.147 -18.675 -22.787  0.00  0.00    +0.052 C 
ATOM     15  C   UNL     1      34.598 -16.397 -23.373  0.00  0.00    +0.083 C 
ATOM     16  C   UNL     1      34.963 -17.343 -22.415  0.00  0.00    +0.019 C 
ATOM     17  C   UNL     1      34.966 -19.061 -24.114  0.00  0.00    +0.016 C 
ATOM     18  C   UNL     1      34.418 -16.782 -24.701  0.00  0.00    +0.062 C 
ATOM     19  C   UNL     1      34.601 -18.115 -25.072  0.00  0.00    +0.013 C 
BRANCH  15  23
ATOM     20  F   UNL     1      34.858 -14.737 -21.669  0.00  0.00    -0.166 F 
ATOM     21  F   UNL     1      35.064 -14.077 -23.724  0.00  0.00    -0.166 F 
ATOM     22  F   UNL     1      33.103 -14.599 -22.944  0.00  0.00    -0.166 F 
ATOM     23  C   UNL     1      34.412 -14.980 -22.935  0.00  0.00    +0.419 C 
ENDBRANCH  15  23
ENDBRANCH   8  14
ENDBRANCH   1   9
BRANCH   2  24
ATOM     24  O   UNL     1      33.847 -24.219 -15.745  0.00  0.00    -0.453 OA
BRANCH  24  26
ATOM     25  N   UNL     1      36.700 -25.163 -12.841  0.00  0.00    -0.239 NA
ATOM     26  C   UNL     1      34.792 -24.533 -14.784  0.00  0.00    +0.149 C 
ATOM     27  C   UNL     1      35.936 -25.242 -15.133  0.00  0.00    +0.061 C 
ATOM     28  C   UNL     1      36.852 -25.529 -14.134  0.00  0.00    +0.137 C 
ATOM     29  C   UNL     1      34.601 -24.139 -13.464  0.00  0.00    +0.058 C 
ATOM     30  C   UNL     1      35.576 -24.476 -12.538  0.00  0.00    +0.102 C 
BRANCH  28  33
ATOM     31  O   UNL     1      38.002 -27.423 -14.900  0.00  0.00    -0.269 OA
ATOM     32  N   UNL     1      39.282 -25.612 -14.221  0.00  0.00    -0.313 N 
ATOM     33  C   UNL     1      38.065 -26.267 -14.441  0.00  0.00    +0.263 C 
ATOM     34  H   UNL     1      39.259 -24.698 -13.856  0.00  0.00    +0.149 HD
ATOM     35  C   UNL     1      40.571 -26.203 -14.500  0.00  0.00    +0.128 C 
ENDBRANCH  28  33
ENDBRANCH  24  26
ENDBRANCH   2  24
TORSDOF 6
ENDMDL
MODEL 2
REMARK VINA RESULT:     -13.8      5.809     11.671
REMARK  Name = 25191001
REMARK  7 active torsions:
REMARK  status: ('A' for Active; 'I' for Inactive)
REMARK    1  A    between atoms: C_1  and  N_9
REMARK    2  A    between atoms: C_2  and  O_24
REMARK    3  A    between atoms: N_8  and  C_14
REMARK    4  A    between atoms: C_15  and  C_23
REMARK    5  A    between atoms: O_24  and  C_26
REMARK    6  A    between atoms: C_28  and  C_33
REMARK    7  A    between atoms: N_32  and  C_35
REMARK                            x       y       z     vdW  Elec       q    Type
REMARK                         _______ _______ _______ _____ _____    ______ ____
ROOT
ATOM      1  C   UNL     1      36.563 -19.854 -20.452  0.00  0.00    +0.052 C 
ATOM      2  C   UNL     1      35.761 -18.925 -22.957  0.00  0.00    +0.145 C 
ATOM      3  C   UNL     1      35.299 -20.178 -20.944  0.00  0.00    +0.018 C 
ATOM      4  C   UNL     1      37.426 -19.064 -21.212  0.00  0.00    +0.018 C 
ATOM      5  C   UNL     1      34.898 -19.715 -22.197  0.00  0.00    +0.039 C 
ATOM      6  C   UNL     1      37.025 -18.599 -22.465  0.00  0.00    +0.039 C 
ENDROOT
BRANCH   1   9
ATOM      7  O   UNL     1      35.754 -22.310 -18.957  0.00  0.00    -0.252 OA
ATOM      8  N   UNL     1      37.204 -21.589 -17.263  0.00  0.00    -0.268 N 
ATOM      9  N   UNL     1      36.969 -20.323 -19.180  0.00  0.00    -0.268 N 
ATOM     10  C   UNL     1      36.557 -21.491 -18.519  0.00  0.00    +0.308 C 
ATOM     11  H   UNL     1      37.824 -20.856 -17.044  0.00  0.00    +0.156 HD
ATOM     12  H   UNL     1      37.621 -19.763 -18.702  0.00  0.00    +0.156 HD
BRANCH   8  14
ATOM     13 CL   UNL     1      36.643 -25.806 -13.160  0.00  0.00    -0.082 Cl
ATOM     14  C   UNL     1      37.080 -22.587 -16.295  0.00  0.00    +0.052 C 
ATOM     15  C   UNL     1      38.070 -24.340 -14.961  0.00  0.00    +0.083 C 
ATOM     16  C   UNL     1      38.194 -23.343 -15.928  0.00  0.00    +0.019 C 
ATOM     17  C   UNL     1      35.844 -22.827 -15.696  0.00  0.00    +0.016 C 
ATOM     18  C   UNL     1      36.834 -24.582 -14.360  0.00  0.00    +0.062 C 
ATOM     19  C   UNL     1      35.721 -23.825 -14.729  0.00  0.00    +0.013 C 
BRANCH  15  23
ATOM     20  F   UNL     1      39.658 -24.981 -13.290  0.00  0.00    -0.166 F 
ATOM     21  F   UNL     1      39.137 -26.473 -14.775  0.00  0.00    -0.166 F 
ATOM     22  F   UNL     1      40.377 -24.776 -15.331  0.00  0.00    -0.166 F 
ATOM     23  C   UNL     1      39.286 -25.129 -14.594  0.00  0.00    +0.419 C 
ENDBRANCH  15  23
ENDBRANCH   8  14
ENDBRANCH   1   9
BRANCH   2  24
ATOM     24  O   UNL     1      35.369 -18.470 -24.179  0.00  0.00    -0.453 OA
BRANCH  24  26
ATOM     25  N   UNL     1      33.622 -14.677 -24.373  0.00  0.00    -0.239 NA
ATOM     26  C   UNL     1      34.789 -17.214 -24.242  0.00  0.00    +0.149 C 
ATOM     27  C   UNL     1      34.593 -16.475 -23.081  0.00  0.00    +0.061 C 
ATOM     28  C   UNL     1      34.010 -15.224 -23.198  0.00  0.00    +0.137 C 
ATOM     29  C   UNL     1      34.403 -16.686 -25.469  0.00  0.00    +0.058 C 
ATOM     30  C   UNL     1      33.829 -15.425 -25.481  0.00  0.00    +0.102 C 
BRANCH  28  33
ATOM     31  O   UNL     1      34.613 -14.387 -21.093  0.00  0.00    -0.269 OA
ATOM     32  N   UNL     1      32.608 -13.643 -21.990  0.00  0.00    -0.313 N 
ATOM     33  C   UNL     1      33.781 -14.408 -22.019  0.00  0.00    +0.263 C 
ATOM     34  H   UNL     1      31.993 -13.708 -22.756  0.00  0.00    +0.149 HD
ATOM     35  C   UNL     1      32.251 -12.766 -20.900  0.00  0.00    +0.128 C 
ENDBRANCH  28  33
ENDBRANCH  24  26
ENDBRANCH   2  24
TORSDOF 6
ENDMDL
MODEL 3
REMARK VINA RESULT:     -13.7      6.044     11.955
REMARK  Name = 25191001
REMARK  7 active torsions:
REMARK  status: ('A' for Active; 'I' for Inactive)
REMARK    1  A    between atoms: C_1  and  N_9
REMARK    2  A    between atoms: C_2  and  O_24
REMARK    3  A    between atoms: N_8  and  C_14
REMARK    4  A    between atoms: C_15  and  C_23
REMARK    5  A    between atoms: O_24  and  C_26
REMARK    6  A    between atoms: C_28  and  C_33
REMARK    7  A    between atoms: N_32  and  C_35
REMARK                            x       y       z     vdW  Elec       q    Type
REMARK                         _______ _______ _______ _____ _____    ______ ____
ROOT
ATOM      1  C   UNL     1      35.773 -20.790 -19.955  0.00  0.00    +0.052 C 
ATOM      2  C   UNL     1      35.797 -18.858 -21.969  0.00  0.00    +0.145 C 
ATOM      3  C   UNL     1      36.960 -20.130 -20.276  0.00  0.00    +0.018 C 
ATOM      4  C   UNL     1      34.598 -20.484 -20.642  0.00  0.00    +0.018 C 
ATOM      5  C   UNL     1      36.971 -19.164 -21.282  0.00  0.00    +0.039 C 
ATOM      6  C   UNL     1      34.609 -19.518 -21.649  0.00  0.00    +0.039 C 
ENDROOT
BRANCH   1   9
ATOM      7  O   UNL     1      37.269 -20.901 -17.372  0.00  0.00    -0.252 OA
ATOM      8  N   UNL     1      36.188 -22.944 -16.993  0.00  0.00    -0.268 N 
ATOM      9  N   UNL     1      35.762 -21.771 -18.936  0.00  0.00    -0.268 N 
ATOM     10  C   UNL     1      36.488 -21.776 -17.734  0.00  0.00    +0.308 C 
ATOM     11  H   UNL     1      35.541 -23.559 -17.409  0.00  0.00    +0.156 HD
ATOM     12  H   UNL     1      35.173 -22.544 -19.088  0.00  0.00    +0.156 HD
BRANCH   8  14
ATOM     13 CL   UNL     1      38.271 -24.602 -11.716  0.00  0.00    -0.082 Cl
ATOM     14  C   UNL     1      36.687 -23.340 -15.751  0.00  0.00    +0.052 C 
ATOM     15  C   UNL     1      38.370 -24.469 -14.436  0.00  0.00    +0.083 C 
ATOM     16  C   UNL     1      37.871 -24.074 -15.677  0.00  0.00    +0.019 C 
ATOM     17  C   UNL     1      36.002 -23.002 -14.585  0.00  0.00    +0.016 C 
ATOM     18  C   UNL     1      37.685 -24.131 -13.269  0.00  0.00    +0.062 C 
ATOM     19  C   UNL     1      36.500 -23.397 -13.344  0.00  0.00    +0.013 C 
BRANCH  15  23
ATOM     20  F   UNL     1      40.207 -25.434 -15.628  0.00  0.00    -0.166 F 
ATOM     21  F   UNL     1      40.616 -24.674 -13.638  0.00  0.00    -0.166 F 
ATOM     22  F   UNL     1      39.468 -26.504 -13.885  0.00  0.00    -0.166 F 
ATOM     23  C   UNL     1      39.642 -25.254 -14.399  0.00  0.00    +0.419 C 
ENDBRANCH  15  23
ENDBRANCH   8  14
ENDBRANCH   1   9
BRANCH   2  24
ATOM     24  O   UNL     1      35.808 -17.917 -22.952  0.00  0.00    -0.453 OA
BRANCH  24  26
ATOM     25  N   UNL     1      34.057 -14.215 -22.115  0.00  0.00    -0.239 NA
ATOM     26  C   UNL     1      35.229 -16.690 -22.676  0.00  0.00    +0.149 C 
ATOM     27  C   UNL     1      34.918 -15.815 -23.710  0.00  0.00    +0.061 C 
ATOM     28  C   UNL     1      34.338 -14.601 -23.381  0.00  0.00    +0.137 C 
ATOM     29  C   UNL     1      34.954 -16.330 -21.361  0.00  0.00    +0.058 C 
ATOM     30  C   UNL     1      34.373 -15.092 -21.135  0.00  0.00    +0.102 C 
BRANCH  28  33
ATOM     31  O   UNL     1      34.072 -12.423 -24.207  0.00  0.00    -0.269 OA
ATOM     32  N   UNL     1      33.598 -14.168 -25.658  0.00  0.00    -0.313 N 
ATOM     33  C   UNL     1      33.993 -13.647 -24.420  0.00  0.00    +0.263 C 
ATOM     34  H   UNL     1      33.557 -15.147 -25.758  0.00  0.00    +0.149 HD
ATOM     35  C   UNL     1      33.247 -13.350 -26.796  0.00  0.00    +0.128 C 
ENDBRANCH  28  33
ENDBRANCH  24  26
ENDBRANCH   2  24
TORSDOF 6
ENDMDL
MODEL 4
REMARK VINA RESULT:     -13.6      2.825      4.451
REMARK  Name = 25191001
REMARK  7 active torsions:
REMARK  status: ('A' for Active; 'I' for Inactive)
REMARK    1  A    between atoms: C_1  and  N_9
REMARK    2  A    between atoms: C_2  and  O_24
REMARK    3  A    between atoms: N_8  and  C_14
REMARK    4  A    between atoms: C_15  and  C_23
REMARK    5  A    between atoms: O_24  and  C_26
REMARK    6  A    between atoms: C_28  and  C_33
REMARK    7  A    between atoms: N_32  and  C_35
REMARK                            x       y       z     vdW  Elec       q    Type
REMARK                         _______ _______ _______ _____ _____    ______ ____
ROOT
ATOM      1  C   UNL     1      35.546 -21.335 -19.424  0.00  0.00    +0.052 C 
ATOM      2  C   UNL     1      34.908 -23.101 -17.359  0.00  0.00    +0.145 C 
ATOM      3  C   UNL     1      36.428 -21.511 -18.357  0.00  0.00    +0.018 C 
ATOM      4  C   UNL     1      34.344 -22.043 -19.457  0.00  0.00    +0.018 C 
ATOM      5  C   UNL     1      36.110 -22.393 -17.326  0.00  0.00    +0.039 C 
ATOM      6  C   UNL     1      34.025 -22.926 -18.425  0.00  0.00    +0.039 C 
ENDROOT
BRANCH   1   9
ATOM      7  O   UNL     1      33.775 -19.598 -21.087  0.00  0.00    -0.252 OA
ATOM      8  N   UNL     1      35.725 -18.887 -22.174  0.00  0.00    -0.268 N 
ATOM      9  N   UNL     1      35.869 -20.439 -20.469  0.00  0.00    -0.268 N 
ATOM     10  C   UNL     1      34.994 -19.641 -21.224  0.00  0.00    +0.308 C 
ATOM     11  H   UNL     1      36.700 -19.024 -22.168  0.00  0.00    +0.156 HD
ATOM     12  H   UNL     1      36.824 -20.365 -20.695  0.00  0.00    +0.156 HD
BRANCH   8  14
ATOM     13 CL   UNL     1      33.705 -15.050 -26.190  0.00  0.00    -0.082 Cl
ATOM     14  C   UNL     1      35.248 -17.974 -23.115  0.00  0.00    +0.052 C 
ATOM     15  C   UNL     1      34.503 -15.747 -23.679  0.00  0.00    +0.083 C 
ATOM     16  C   UNL     1      34.980 -16.658 -22.738  0.00  0.00    +0.019 C 
ATOM     17  C   UNL     1      35.039 -18.379 -24.433  0.00  0.00    +0.016 C 
ATOM     18  C   UNL     1      34.294 -16.150 -24.998  0.00  0.00    +0.062 C 
ATOM     19  C   UNL     1      34.562 -17.467 -25.375  0.00  0.00    +0.013 C 
BRANCH  15  23
ATOM     20  F   UNL     1      34.694 -13.399 -24.101  0.00  0.00    -0.166 F 
ATOM     21  F   UNL     1      32.900 -14.073 -23.086  0.00  0.00    -0.166 F 
ATOM     22  F   UNL     1      34.802 -14.059 -22.032  0.00  0.00    -0.166 F 
ATOM     23  C   UNL     1      34.229 -14.346 -23.235  0.00  0.00    +0.419 C 
ENDBRANCH  15  23
ENDBRANCH   8  14
ENDBRANCH   1   9
BRANCH   2  24
ATOM     24  O   UNL     1      34.595 -23.961 -16.352  0.00  0.00    -0.453 OA
BRANCH  24  26
ATOM     25  N   UNL     1      31.067 -23.263 -14.221  0.00  0.00    -0.239 NA
ATOM     26  C   UNL     1      33.426 -23.728 -15.647  0.00  0.00    +0.149 C 
ATOM     27  C   UNL     1      32.262 -23.375 -16.320  0.00  0.00    +0.061 C 
ATOM     28  C   UNL     1      31.119 -23.155 -15.569  0.00  0.00    +0.137 C 
ATOM     29  C   UNL     1      33.412 -23.849 -14.262  0.00  0.00    +0.058 C 
ATOM     30  C   UNL     1      32.218 -23.607 -13.601  0.00  0.00    +0.102 C 
BRANCH  28  33
ATOM     31  O   UNL     1      29.863 -22.454 -17.419  0.00  0.00    -0.269 OA
ATOM     32  N   UNL     1      28.709 -22.840 -15.445  0.00  0.00    -0.313 N 
ATOM     33  C   UNL     1      29.874 -22.784 -16.219  0.00  0.00    +0.263 C 
ATOM     34  H   UNL     1      28.791 -23.109 -14.502  0.00  0.00    +0.149 HD
ATOM     35  C   UNL     1      27.395 -22.525 -15.954  0.00  0.00    +0.128 C 
ENDBRANCH  28  33
ENDBRANCH  24  26
ENDBRANCH   2  24
TORSDOF 6
ENDMDL
MODEL 5
REMARK VINA RESULT:     -13.3      5.937      9.650
REMARK  Name = 25191001
REMARK  7 active torsions:
REMARK  status: ('A' for Active; 'I' for Inactive)
REMARK    1  A    between atoms: C_1  and  N_9
REMARK    2  A    between atoms: C_2  and  O_24
REMARK    3  A    between atoms: N_8  and  C_14
REMARK    4  A    between atoms: C_15  and  C_23
REMARK    5  A    between atoms: O_24  and  C_26
REMARK    6  A    between atoms: C_28  and  C_33
REMARK    7  A    between atoms: N_32  and  C_35
REMARK                            x       y       z     vdW  Elec       q    Type
REMARK                         _______ _______ _______ _____ _____    ______ ____
ROOT
ATOM      1  C   UNL     1      33.334 -14.071 -22.802  0.00  0.00    +0.052 C 
ATOM      2  C   UNL     1      34.787 -16.396 -23.321  0.00  0.00    +0.145 C 
ATOM      3  C   UNL     1      33.983 -14.735 -21.761  0.00  0.00    +0.018 C 
ATOM      4  C   UNL     1      33.412 -14.570 -24.103  0.00  0.00    +0.018 C 
ATOM      5  C   UNL     1      34.710 -15.897 -22.021  0.00  0.00    +0.039 C 
ATOM      6  C   UNL     1      34.139 -15.732 -24.363  0.00  0.00    +0.039 C 
ENDROOT
BRANCH   1   9
ATOM      7  O   UNL     1      33.915 -11.231 -23.524  0.00  0.00    -0.252 OA
ATOM      8  N   UNL     1      31.908 -10.691 -22.443  0.00  0.00    -0.268 N 
ATOM      9  N   UNL     1      32.596 -12.893 -22.539  0.00  0.00    -0.268 N 
ATOM     10  C   UNL     1      32.915 -11.575 -22.902  0.00  0.00    +0.308 C 
ATOM     11  H   UNL     1      31.161 -11.109 -21.957  0.00  0.00    +0.156 HD
ATOM     12  H   UNL     1      31.756 -13.013 -22.040  0.00  0.00    +0.156 HD
BRANCH   8  14
ATOM     13 CL   UNL     1      31.591  -4.826 -23.103  0.00  0.00    -0.082 Cl
ATOM     14  C   UNL     1      31.833  -9.305 -22.590  0.00  0.00    +0.052 C 
ATOM     15  C   UNL     1      31.750  -7.099 -21.609  0.00  0.00    +0.083 C 
ATOM     16  C   UNL     1      31.824  -8.484 -21.462  0.00  0.00    +0.019 C 
ATOM     17  C   UNL     1      31.767  -8.741 -23.864  0.00  0.00    +0.016 C 
ATOM     18  C   UNL     1      31.684  -6.534 -22.883  0.00  0.00    +0.062 C 
ATOM     19  C   UNL     1      31.693  -7.357 -24.011  0.00  0.00    +0.013 C 
BRANCH  15  23
ATOM     20  F   UNL     1      31.633  -6.974 -19.222  0.00  0.00    -0.166 F 
ATOM     21  F   UNL     1      32.874  -5.505 -20.224  0.00  0.00    -0.166 F 
ATOM     22  F   UNL     1      30.708  -5.367 -20.357  0.00  0.00    -0.166 F 
ATOM     23  C   UNL     1      31.743  -6.254 -20.376  0.00  0.00    +0.419 C 
ENDBRANCH  15  23
ENDBRANCH   8  14
ENDBRANCH   1   9
BRANCH   2  24
ATOM     24  O   UNL     1      35.494 -17.531 -23.574  0.00  0.00    -0.453 OA
BRANCH  24  26
ATOM     25  N   UNL     1      36.230 -20.120 -20.376  0.00  0.00    -0.239 NA
ATOM     26  C   UNL     1      35.737 -18.388 -22.514  0.00  0.00    +0.149 C 
ATOM     27  C   UNL     1      34.700 -19.136 -21.968  0.00  0.00    +0.061 C 
ATOM     28  C   UNL     1      34.995 -19.980 -20.910  0.00  0.00    +0.137 C 
ATOM     29  C   UNL     1      37.021 -18.505 -21.993  0.00  0.00    +0.058 C 
ATOM     30  C   UNL     1      37.213 -19.377 -20.932  0.00  0.00    +0.102 C 
BRANCH  28  33
ATOM     31  O   UNL     1      32.761 -20.636 -20.635  0.00  0.00    -0.269 OA
ATOM     32  N   UNL     1      34.350 -21.736 -19.354  0.00  0.00    -0.313 N 
ATOM     33  C   UNL     1      33.951 -20.785 -20.301  0.00  0.00    +0.263 C 
ATOM     34  H   UNL     1      35.308 -21.801 -19.136  0.00  0.00    +0.149 HD
ATOM     35  C   UNL     1      33.434 -22.626 -18.679  0.00  0.00    +0.128 C 
ENDBRANCH  28  33
ENDBRANCH  24  26
ENDBRANCH   2  24
TORSDOF 6
ENDMDL
MODEL 6
REMARK VINA RESULT:     -13.0      3.133      4.958
REMARK  Name = 25191001
REMARK  7 active torsions:
REMARK  status: ('A' for Active; 'I' for Inactive)
REMARK    1  A    between atoms: C_1  and  N_9
REMARK    2  A    between atoms: C_2  and  O_24
REMARK    3  A    between atoms: N_8  and  C_14
REMARK    4  A    between atoms: C_15  and  C_23
REMARK    5  A    between atoms: O_24  and  C_26
REMARK    6  A    between atoms: C_28  and  C_33
REMARK    7  A    between atoms: N_32  and  C_35
REMARK                            x       y       z     vdW  Elec       q    Type
REMARK                         _______ _______ _______ _____ _____    ______ ____
ROOT
ATOM      1  C   UNL     1      35.319 -18.461 -21.769  0.00  0.00    +0.052 C 
ATOM      2  C   UNL     1      36.399 -20.552 -20.270  0.00  0.00    +0.145 C 
ATOM      3  C   UNL     1      36.664 -18.432 -21.397  0.00  0.00    +0.018 C 
ATOM      4  C   UNL     1      34.515 -19.536 -21.391  0.00  0.00    +0.018 C 
ATOM      5  C   UNL     1      37.204 -19.477 -20.648  0.00  0.00    +0.039 C 
ATOM      6  C   UNL     1      35.055 -20.582 -20.641  0.00  0.00    +0.039 C 
ENDROOT
BRANCH   1   9
ATOM      7  O   UNL     1      34.939 -15.584 -21.062  0.00  0.00    -0.252 OA
ATOM      8  N   UNL     1      34.022 -15.322 -23.202  0.00  0.00    -0.268 N 
ATOM      9  N   UNL     1      34.772 -17.400 -22.527  0.00  0.00    -0.268 N 
ATOM     10  C   UNL     1      34.615 -16.058 -22.147  0.00  0.00    +0.308 C 
ATOM     11  H   UNL     1      33.815 -15.836 -24.017  0.00  0.00    +0.156 HD
ATOM     12  H   UNL     1      34.463 -17.631 -23.433  0.00  0.00    +0.156 HD
BRANCH   8  14
ATOM     13 CL   UNL     1      32.655  -9.576 -23.405  0.00  0.00    -0.082 Cl
ATOM     14  C   UNL     1      33.695 -13.966 -23.242  0.00  0.00    +0.052 C 
ATOM     15  C   UNL     1      32.604 -12.048 -22.259  0.00  0.00    +0.083 C 
ATOM     16  C   UNL     1      32.931 -13.403 -22.219  0.00  0.00    +0.019 C 
ATOM     17  C   UNL     1      34.130 -13.175 -24.305  0.00  0.00    +0.016 C 
ATOM     18  C   UNL     1      33.040 -11.256 -23.321  0.00  0.00    +0.062 C 
ATOM     19  C   UNL     1      33.803 -11.820 -24.345  0.00  0.00    +0.013 C 
BRANCH  15  23
ATOM     20  F   UNL     1      32.178 -10.234 -20.758  0.00  0.00    -0.166 F 
ATOM     21  F   UNL     1      30.460 -11.362 -21.450  0.00  0.00    -0.166 F 
ATOM     22  F   UNL     1      31.835 -12.250 -20.019  0.00  0.00    -0.166 F 
ATOM     23  C   UNL     1      31.785 -11.482 -21.144  0.00  0.00    +0.419 C 
ENDBRANCH  15  23
ENDBRANCH   8  14
ENDBRANCH   1   9
BRANCH   2  24
ATOM     24  O   UNL     1      36.925 -21.571 -19.536  0.00  0.00    -0.453 OA
BRANCH  24  26
ATOM     25  N   UNL     1      34.642 -23.056 -16.365  0.00  0.00    -0.239 NA
ATOM     26  C   UNL     1      36.170 -22.064 -18.486  0.00  0.00    +0.149 C 
ATOM     27  C   UNL     1      36.751 -22.260 -17.238  0.00  0.00    +0.061 C 
ATOM     28  C   UNL     1      35.953 -22.753 -16.219  0.00  0.00    +0.137 C 
ATOM     29  C   UNL     1      34.825 -22.363 -18.674  0.00  0.00    +0.058 C 
ATOM     30  C   UNL     1      34.111 -22.853 -17.592  0.00  0.00    +0.102 C 
BRANCH  28  33
ATOM     31  O   UNL     1      37.735 -22.899 -14.703  0.00  0.00    -0.269 OA
ATOM     32  N   UNL     1      35.602 -23.255 -13.864  0.00  0.00    -0.313 N 
ATOM     33  C   UNL     1      36.507 -22.977 -14.896  0.00  0.00    +0.263 C 
ATOM     34  H   UNL     1      34.644 -23.302 -14.086  0.00  0.00    +0.149 HD
ATOM     35  C   UNL     1      35.996 -23.477 -12.492  0.00  0.00    +0.128 C 
ENDBRANCH  28  33
ENDBRANCH  24  26
ENDBRANCH   2  24
TORSDOF 6
ENDMDL
MODEL 7
REMARK VINA RESULT:     -13.0      5.856      9.817
REMARK  Name = 25191001
REMARK  7 active torsions:
REMARK  status: ('A' for Active; 'I' for Inactive)
REMARK    1  A    between atoms: C_1  and  N_9
REMARK    2  A    between atoms: C_2  and  O_24
REMARK    3  A    between atoms: N_8  and  C_14
REMARK    4  A    between atoms: C_15  and  C_23
REMARK    5  A    between atoms: O_24  and  C_26
REMARK    6  A    between atoms: C_28  and  C_33
REMARK    7  A    between atoms: N_32  and  C_35
REMARK                            x       y       z     vdW  Elec       q    Type
REMARK                         _______ _______ _______ _____ _____    ______ ____
ROOT
ATOM      1  C   UNL     1      34.279 -13.867 -24.092  0.00  0.00    +0.052 C 
ATOM      2  C   UNL     1      34.496 -16.649 -24.093  0.00  0.00    +0.145 C 
ATOM      3  C   UNL     1      33.880 -14.598 -25.211  0.00  0.00    +0.018 C 
ATOM      4  C   UNL     1      34.787 -14.528 -22.973  0.00  0.00    +0.018 C 
ATOM      5  C   UNL     1      33.988 -15.988 -25.212  0.00  0.00    +0.039 C 
ATOM      6  C   UNL     1      34.896 -15.919 -22.973  0.00  0.00    +0.039 C 
ENDROOT
BRANCH   1   9
ATOM      7  O   UNL     1      32.501 -12.071 -22.500  0.00  0.00    -0.252 OA
ATOM      8  N   UNL     1      33.524 -10.289 -23.627  0.00  0.00    -0.268 N 
ATOM      9  N   UNL     1      34.171 -12.457 -24.092  0.00  0.00    -0.268 N 
ATOM     10  C   UNL     1      33.314 -11.656 -23.321  0.00  0.00    +0.308 C 
ATOM     11  H   UNL     1      34.211 -10.105 -24.307  0.00  0.00    +0.156 HD
ATOM     12  H   UNL     1      34.770 -11.979 -24.709  0.00  0.00    +0.156 HD
BRANCH   8  14
ATOM     13 CL   UNL     1      30.818  -5.565 -21.325  0.00  0.00    -0.082 Cl
ATOM     14  C   UNL     1      32.886  -9.169 -23.091  0.00  0.00    +0.052 C 
ATOM     15  C   UNL     1      32.108  -6.894 -23.324  0.00  0.00    +0.083 C 
ATOM     16  C   UNL     1      32.745  -8.014 -23.860  0.00  0.00    +0.019 C 
ATOM     17  C   UNL     1      32.391  -9.206 -21.788  0.00  0.00    +0.016 C 
ATOM     18  C   UNL     1      31.612  -6.930 -22.021  0.00  0.00    +0.062 C 
ATOM     19  C   UNL     1      31.754  -8.087 -21.253  0.00  0.00    +0.013 C 
BRANCH  15  23
ATOM     20  F   UNL     1      32.502  -4.552 -23.612  0.00  0.00    -0.166 F 
ATOM     21  F   UNL     1      32.598  -5.790 -25.389  0.00  0.00    -0.166 F 
ATOM     22  F   UNL     1      30.677  -5.374 -24.460  0.00  0.00    -0.166 F 
ATOM     23  C   UNL     1      31.976  -5.676 -24.180  0.00  0.00    +0.419 C 
ENDBRANCH  15  23
ENDBRANCH   8  14
ENDBRANCH   1   9
BRANCH   2  24
ATOM     24  O   UNL     1      34.603 -18.006 -24.094  0.00  0.00    -0.453 OA
BRANCH  24  26
ATOM     25  N   UNL     1      35.984 -19.849 -20.606  0.00  0.00    -0.239 NA
ATOM     26  C   UNL     1      35.059 -18.616 -22.938  0.00  0.00    +0.149 C 
ATOM     27  C   UNL     1      34.197 -19.387 -22.167  0.00  0.00    +0.061 C 
ATOM     28  C   UNL     1      34.703 -19.977 -21.020  0.00  0.00    +0.137 C 
ATOM     29  C   UNL     1      36.384 -18.461 -22.544  0.00  0.00    +0.058 C 
ATOM     30  C   UNL     1      36.793 -19.092 -21.380  0.00  0.00    +0.102 C 
BRANCH  28  33
ATOM     31  O   UNL     1      32.614 -20.619 -20.171  0.00  0.00    -0.269 OA
ATOM     32  N   UNL     1      34.468 -21.783 -19.405  0.00  0.00    -0.313 N 
ATOM     33  C   UNL     1      33.847 -20.793 -20.177  0.00  0.00    +0.263 C 
ATOM     34  H   UNL     1      35.448 -21.866 -19.458  0.00  0.00    +0.149 HD
ATOM     35  C   UNL     1      33.752 -22.688 -18.537  0.00  0.00    +0.128 C 
ENDBRANCH  28  33
ENDBRANCH  24  26
ENDBRANCH   2  24
TORSDOF 6
ENDMDL
MODEL 8
REMARK VINA RESULT:     -12.9      5.542      9.392
REMARK  Name = 25191001
REMARK  7 active torsions:
REMARK  status: ('A' for Active; 'I' for Inactive)
REMARK    1  A    between atoms: C_1  and  N_9
REMARK    2  A    between atoms: C_2  and  O_24
REMARK    3  A    between atoms: N_8  and  C_14
REMARK    4  A    between atoms: C_15  and  C_23
REMARK    5  A    between atoms: O_24  and  C_26
REMARK    6  A    between atoms: C_28  and  C_33
REMARK    7  A    between atoms: N_32  and  C_35
REMARK                            x       y       z     vdW  Elec       q    Type
REMARK                         _______ _______ _______ _____ _____    ______ ____
ROOT
ATOM      1  C   UNL     1      33.630 -14.203 -22.985  0.00  0.00    +0.052 C 
ATOM      2  C   UNL     1      34.887 -16.662 -23.385  0.00  0.00    +0.145 C 
ATOM      3  C   UNL     1      33.570 -14.823 -24.233  0.00  0.00    +0.018 C 
ATOM      4  C   UNL     1      34.319 -14.813 -21.937  0.00  0.00    +0.018 C 
ATOM      5  C   UNL     1      34.198 -16.052 -24.433  0.00  0.00    +0.039 C 
ATOM      6  C   UNL     1      34.947 -16.043 -22.136  0.00  0.00    +0.039 C 
ENDROOT
BRANCH   1   9
ATOM      7  O   UNL     1      34.256 -11.514 -24.125  0.00  0.00    -0.252 OA
ATOM      8  N   UNL     1      32.439 -10.716 -22.881  0.00  0.00    -0.268 N 
ATOM      9  N   UNL     1      32.994 -12.956 -22.783  0.00  0.00    -0.268 N 
ATOM     10  C   UNL     1      33.330 -11.714 -23.345  0.00  0.00    +0.308 C 
ATOM     11  H   UNL     1      31.741 -11.023 -22.257  0.00  0.00    +0.156 HD
ATOM     12  H   UNL     1      32.222 -12.959 -22.173  0.00  0.00    +0.156 HD
BRANCH   8  14
ATOM     13 CL   UNL     1      32.307  -4.953 -24.185  0.00  0.00    -0.082 Cl
ATOM     14  C   UNL     1      32.417  -9.356 -23.191  0.00  0.00    +0.052 C 
ATOM     15  C   UNL     1      33.556  -7.363 -23.943  0.00  0.00    +0.083 C 
ATOM     16  C   UNL     1      33.579  -8.722 -23.633  0.00  0.00    +0.019 C 
ATOM     17  C   UNL     1      31.233  -8.630 -23.058  0.00  0.00    +0.016 C 
ATOM     18  C   UNL     1      32.373  -6.636 -23.811  0.00  0.00    +0.062 C 
ATOM     19  C   UNL     1      31.211  -7.270 -23.368  0.00  0.00    +0.013 C 
BRANCH  15  23
ATOM     20  F   UNL     1      35.809  -6.708 -23.473  0.00  0.00    -0.166 F 
ATOM     21  F   UNL     1      35.371  -7.337 -25.501  0.00  0.00    -0.166 F 
ATOM     22  F   UNL     1      34.642  -5.420 -24.779  0.00  0.00    -0.166 F 
ATOM     23  C   UNL     1      34.821  -6.721 -24.414  0.00  0.00    +0.419 C 
ENDBRANCH  15  23
ENDBRANCH   8  14
ENDBRANCH   1   9
BRANCH   2  24
ATOM     24  O   UNL     1      35.502 -17.860 -23.580  0.00  0.00    -0.453 OA
BRANCH  24  26
ATOM     25  N   UNL     1      36.243 -20.237 -20.223  0.00  0.00    -0.239 NA
ATOM     26  C   UNL     1      35.746 -18.647 -22.467  0.00  0.00    +0.149 C 
ATOM     27  C   UNL     1      34.720 -19.395 -21.901  0.00  0.00    +0.061 C 
ATOM     28  C   UNL     1      35.017 -20.168 -20.790  0.00  0.00    +0.137 C 
ATOM     29  C   UNL     1      37.020 -18.693 -21.913  0.00  0.00    +0.058 C 
ATOM     30  C   UNL     1      37.215 -19.496 -20.800  0.00  0.00    +0.102 C 
BRANCH  28  33
ATOM     31  O   UNL     1      32.792 -20.848 -20.498  0.00  0.00    -0.269 OA
ATOM     32  N   UNL     1      34.396 -21.885 -19.181  0.00  0.00    -0.313 N 
ATOM     33  C   UNL     1      33.984 -20.969 -20.157  0.00  0.00    +0.263 C 
ATOM     34  H   UNL     1      35.354 -21.928 -18.960  0.00  0.00    +0.149 HD
ATOM     35  C   UNL     1      33.492 -22.768 -18.480  0.00  0.00    +0.128 C 
ENDBRANCH  28  33
ENDBRANCH  24  26
ENDBRANCH   2  24
TORSDOF 6
ENDMDL
MODEL 9
REMARK VINA RESULT:     -12.9      5.324     11.194
REMARK  Name = 25191001
REMARK  7 active torsions:
REMARK  status: ('A' for Active; 'I' for Inactive)
REMARK    1  A    between atoms: C_1  and  N_9
REMARK    2  A    between atoms: C_2  and  O_24
REMARK    3  A    between atoms: N_8  and  C_14
REMARK    4  A    between atoms: C_15  and  C_23
REMARK    5  A    between atoms: O_24  and  C_26
REMARK    6  A    between atoms: C_28  and  C_33
REMARK    7  A    between atoms: N_32  and  C_35
REMARK                            x       y       z     vdW  Elec       q    Type
REMARK                         _______ _______ _______ _____ _____    ______ ____
ROOT
ATOM      1  C   UNL     1      35.497 -20.295 -20.833  0.00  0.00    +0.052 C 
ATOM      2  C   UNL     1      35.623 -18.658 -23.089  0.00  0.00    +0.145 C 
ATOM      3  C   UNL     1      36.652 -19.557 -21.097  0.00  0.00    +0.018 C 
ATOM      4  C   UNL     1      34.406 -20.214 -21.698  0.00  0.00    +0.018 C 
ATOM      5  C   UNL     1      36.714 -18.739 -22.224  0.00  0.00    +0.039 C 
ATOM      6  C   UNL     1      34.468 -19.396 -22.826  0.00  0.00    +0.039 C 
ENDROOT
BRANCH   1   9
ATOM      7  O   UNL     1      33.133 -21.295 -19.305  0.00  0.00    -0.252 OA
ATOM      8  N   UNL     1      34.669 -22.385 -17.912  0.00  0.00    -0.268 N 
ATOM      9  N   UNL     1      35.435 -21.126 -19.690  0.00  0.00    -0.268 N 
ATOM     10  C   UNL     1      34.292 -21.569 -19.006  0.00  0.00    +0.308 C 
ATOM     11  H   UNL     1      35.637 -22.519 -17.793  0.00  0.00    +0.156 HD
ATOM     12  H   UNL     1      36.298 -21.431 -19.330  0.00  0.00    +0.156 HD
BRANCH   8  14
ATOM     13 CL   UNL     1      31.236 -25.114 -13.950  0.00  0.00    -0.082 Cl
ATOM     14  C   UNL     1      33.851 -23.026 -16.980  0.00  0.00    +0.052 C 
ATOM     15  C   UNL     1      31.648 -23.522 -16.122  0.00  0.00    +0.083 C 
ATOM     16  C   UNL     1      32.465 -22.881 -17.053  0.00  0.00    +0.019 C 
ATOM     17  C   UNL     1      34.419 -23.810 -15.977  0.00  0.00    +0.016 C 
ATOM     18  C   UNL     1      32.215 -24.307 -15.118  0.00  0.00    +0.062 C 
ATOM     19  C   UNL     1      33.601 -24.451 -15.045  0.00  0.00    +0.013 C 
BRANCH  15  23
ATOM     20  F   UNL     1      29.493 -24.509 -16.452  0.00  0.00    -0.166 F 
ATOM     21  F   UNL     1      29.599 -22.803 -15.118  0.00  0.00    -0.166 F 
ATOM     22  F   UNL     1      29.819 -22.517 -17.262  0.00  0.00    -0.166 F 
ATOM     23  C   UNL     1      30.168 -23.343 -16.235  0.00  0.00    +0.419 C 
ENDBRANCH  15  23
ENDBRANCH   8  14
ENDBRANCH   1   9
BRANCH   2  24
ATOM     24  O   UNL     1      35.685 -17.862 -24.191  0.00  0.00    -0.453 OA
BRANCH  24  26
ATOM     25  N   UNL     1      33.141 -14.548 -24.342  0.00  0.00    -0.239 NA
ATOM     26  C   UNL     1      34.841 -16.765 -24.240  0.00  0.00    +0.149 C 
ATOM     27  C   UNL     1      34.600 -16.017 -23.093  0.00  0.00    +0.061 C 
ATOM     28  C   UNL     1      33.750 -14.927 -23.196  0.00  0.00    +0.137 C 
ATOM     29  C   UNL     1      34.234 -16.406 -25.438  0.00  0.00    +0.058 C 
ATOM     30  C   UNL     1      33.399 -15.300 -25.437  0.00  0.00    +0.102 C 
BRANCH  28  33
ATOM     31  O   UNL     1      34.207 -14.145 -21.034  0.00  0.00    -0.269 OA
ATOM     32  N   UNL     1      32.336 -13.280 -22.096  0.00  0.00    -0.313 N 
ATOM     33  C   UNL     1      33.461 -14.110 -22.030  0.00  0.00    +0.263 C 
ATOM     34  H   UNL     1      31.789 -13.303 -22.914  0.00  0.00    +0.149 HD
ATOM     35  C   UNL     1      31.932 -12.393 -21.030  0.00  0.00    +0.128 C 
ENDBRANCH  28  33
ENDBRANCH  24  26
ENDBRANCH   2  24
TORSDOF 6
ENDMDL
