MODEL 1
REMARK VINA RESULT:     -13.9      0.000      0.000
REMARK  Name = 448407
REMARK  4 active torsions:
REMARK  status: ('A' for Active; 'I' for Inactive)
REMARK    1  A    between atoms: C_1  and  N_8
REMARK    2  A    between atoms: C_2  and  C_23
REMARK    3  A    between atoms: N_22  and  C_25
REMARK    4  A    between atoms: C_25  and  C_28
REMARK                            x       y       z     vdW  Elec       q    Type
REMARK                         _______ _______ _______ _____ _____    ______ ____
ROOT
ATOM      1  C   UNL     1      35.827 -18.417 -21.995  0.00  0.00    +0.090 C 
ATOM      2  C   UNL     1      34.934 -20.215 -20.618  0.00  0.00    +0.055 C 
ATOM      3  C   UNL     1      34.738 -19.165 -21.515  0.00  0.00    +0.023 C 
ATOM      4  C   UNL     1      37.119 -18.752 -21.552  0.00  0.00    +0.018 C 
ATOM      5  C   UNL     1      36.222 -20.534 -20.189  0.00  0.00    +0.005 C 
ATOM      6  C   UNL     1      37.315 -19.803 -20.656  0.00  0.00    +0.002 C 
ENDROOT
BRANCH   1   8
ATOM      7  O   UNL     1      33.399 -13.866 -22.617  0.00  0.00    -0.207 OA
ATOM      8  N   UNL     1      35.632 -17.371 -22.890  0.00  0.00    -0.137 N 
ATOM      9  N   UNL     1      35.524 -17.515 -24.237  0.00  0.00    -0.215 N 
ATOM     10  N   UNL     1      34.962 -16.235 -22.444  0.00  0.00    -0.143 NA
ATOM     11  N   UNL     1      34.353 -16.082 -25.857  0.00  0.00    -0.309 NA
ATOM     12  N   UNL     1      33.247 -14.158 -24.912  0.00  0.00    -0.251 NA
ATOM     13  N   UNL     1      33.160 -14.548 -27.189  0.00  0.00    -0.283 N 
ATOM     14  C   UNL     1      34.784 -16.486 -24.720  0.00  0.00    +0.243 C 
ATOM     15  C   UNL     1      34.459 -15.706 -23.516  0.00  0.00    +0.241 C 
ATOM     16  C   UNL     1      33.650 -14.487 -23.640  0.00  0.00    +0.239 C 
ATOM     17  C   UNL     1      33.586 -14.918 -25.934  0.00  0.00    +0.208 C 
ATOM     18  H   UNL     1      35.915 -18.243 -24.772  0.00  0.00    +0.175 HD
ATOM     19  H   UNL     1      33.398 -15.097 -27.972  0.00  0.00    +0.156 HD
ATOM     20  H   UNL     1      32.616 -13.736 -27.305  0.00  0.00    +0.156 HD
ENDBRANCH   1   8
BRANCH   2  23
ATOM     21  O   UNL     1      32.672 -20.829 -20.642  0.00  0.00    -0.270 OA
ATOM     22  N   UNL     1      34.038 -21.890 -19.097  0.00  0.00    -0.297 N 
ATOM     23  C   UNL     1      33.796 -20.979 -20.132  0.00  0.00    +0.246 C 
ATOM     24  H   UNL     1      34.952 -21.957 -18.740  0.00  0.00    +0.150 HD
BRANCH  22  25
ATOM     25  C   UNL     1      33.016 -22.736 -18.525  0.00  0.00    +0.117 C 
BRANCH  25  28
ATOM     26 CL   UNL     1      31.299 -24.187 -13.836  0.00  0.00    -0.082 Cl
ATOM     27 CL   UNL     1      36.562 -23.483 -14.795  0.00  0.00    -0.082 Cl
ATOM     28  C   UNL     1      33.325 -23.107 -17.103  0.00  0.00    -0.001 C 
ATOM     29  C   UNL     1      34.645 -23.121 -16.666  0.00  0.00    +0.009 C 
ATOM     30  C   UNL     1      32.288 -23.434 -16.237  0.00  0.00    +0.009 C 
ATOM     31  C   UNL     1      32.575 -23.780 -14.916  0.00  0.00    +0.058 C 
ATOM     32  C   UNL     1      34.932 -23.465 -15.346  0.00  0.00    +0.058 C 
ATOM     33  C   UNL     1      33.897 -23.795 -14.470  0.00  0.00    +0.023 C 
ENDBRANCH  25  28
ENDBRANCH  22  25
ENDBRANCH   2  23
TORSDOF 4
ENDMDL
MODEL 2
REMARK VINA RESULT:     -13.4      4.661     10.457
REMARK  Name = 448407
REMARK  4 active torsions:
REMARK  status: ('A' for Active; 'I' for Inactive)
REMARK    1  A    between atoms: C_1  and  N_8
REMARK    2  A    between atoms: C_2  and  C_23
REMARK    3  A    between atoms: N_22  and  C_25
REMARK    4  A    between atoms: C_25  and  C_28
REMARK                            x       y       z     vdW  Elec       q    Type
REMARK                         _______ _______ _______ _____ _____    ______ ____
ROOT
ATOM      1  C   UNL     1      34.838 -22.057 -18.603  0.00  0.00    +0.090 C 
ATOM      2  C   UNL     1      34.920 -20.528 -20.495  0.00  0.00    +0.055 C 
ATOM      3  C   UNL     1      35.566 -21.237 -19.482  0.00  0.00    +0.023 C 
ATOM      4  C   UNL     1      33.445 -22.148 -18.769  0.00  0.00    +0.018 C 
ATOM      5  C   UNL     1      33.538 -20.630 -20.646  0.00  0.00    +0.005 C 
ATOM      6  C   UNL     1      32.800 -21.440 -19.782  0.00  0.00    +0.002 C 
ENDROOT
BRANCH   1   8
ATOM      7  O   UNL     1      34.013 -24.914 -14.342  0.00  0.00    -0.207 OA
ATOM      8  N   UNL     1      35.481 -22.765 -17.594  0.00  0.00    -0.137 N 
ATOM      9  N   UNL     1      36.652 -22.392 -17.013  0.00  0.00    -0.215 N 
ATOM     10  N   UNL     1      34.708 -23.538 -16.731  0.00  0.00    -0.143 NA
ATOM     11  N   UNL     1      37.492 -22.902 -14.758  0.00  0.00    -0.309 NA
ATOM     12  N   UNL     1      36.025 -24.253 -13.399  0.00  0.00    -0.251 NA
ATOM     13  N   UNL     1      38.057 -23.535 -12.560  0.00  0.00    -0.283 N 
ATOM     14  C   UNL     1      36.689 -22.903 -15.757  0.00  0.00    +0.243 C 
ATOM     15  C   UNL     1      35.412 -23.625 -15.646  0.00  0.00    +0.241 C 
ATOM     16  C   UNL     1      35.084 -24.327 -14.398  0.00  0.00    +0.239 C 
ATOM     17  C   UNL     1      37.143 -23.581 -13.588  0.00  0.00    +0.208 C 
ATOM     18  H   UNL     1      37.354 -21.843 -17.432  0.00  0.00    +0.175 HD
ATOM     19  H   UNL     1      38.902 -23.040 -12.673  0.00  0.00    +0.156 HD
ATOM     20  H   UNL     1      37.866 -23.995 -11.711  0.00  0.00    +0.156 HD
ENDBRANCH   1   8
BRANCH   2  23
ATOM     21  O   UNL     1      36.823 -19.286 -21.074  0.00  0.00    -0.270 OA
ATOM     22  N   UNL     1      35.104 -19.373 -22.629  0.00  0.00    -0.297 N 
ATOM     23  C   UNL     1      35.689 -19.685 -21.396  0.00  0.00    +0.246 C 
ATOM     24  H   UNL     1      34.204 -19.721 -22.818  0.00  0.00    +0.150 HD
BRANCH  22  25
ATOM     25  C   UNL     1      35.751 -18.566 -23.638  0.00  0.00    +0.117 C 
BRANCH  25  28
ATOM     26 CL   UNL     1      34.384 -14.140 -21.276  0.00  0.00    -0.082 Cl
ATOM     27 CL   UNL     1      33.552 -14.868 -26.558  0.00  0.00    -0.082 Cl
ATOM     28  C   UNL     1      35.148 -17.194 -23.733  0.00  0.00    -0.001 C 
ATOM     29  C   UNL     1      34.687 -16.728 -24.958  0.00  0.00    +0.009 C 
ATOM     30  C   UNL     1      35.058 -16.403 -22.593  0.00  0.00    +0.009 C 
ATOM     31  C   UNL     1      34.499 -15.128 -22.680  0.00  0.00    +0.058 C 
ATOM     32  C   UNL     1      34.127 -15.454 -25.046  0.00  0.00    +0.058 C 
ATOM     33  C   UNL     1      34.034 -14.653 -23.907  0.00  0.00    +0.023 C 
ENDBRANCH  25  28
ENDBRANCH  22  25
ENDBRANCH   2  23
TORSDOF 4
ENDMDL
MODEL 3
REMARK VINA RESULT:     -13.3      4.194      9.813
REMARK  Name = 448407
REMARK  4 active torsions:
REMARK  status: ('A' for Active; 'I' for Inactive)
REMARK    1  A    between atoms: C_1  and  N_8
REMARK    2  A    between atoms: C_2  and  C_23
REMARK    3  A    between atoms: N_22  and  C_25
REMARK    4  A    between atoms: C_25  and  C_28
REMARK                            x       y       z     vdW  Elec       q    Type
REMARK                         _______ _______ _______ _____ _____    ______ ____
ROOT
ATOM      1  C   UNL     1      34.583 -22.076 -18.741  0.00  0.00    +0.090 C 
ATOM      2  C   UNL     1      35.067 -20.653 -20.656  0.00  0.00    +0.055 C 
ATOM      3  C   UNL     1      34.170 -21.422 -19.914  0.00  0.00    +0.023 C 
ATOM      4  C   UNL     1      35.921 -21.937 -18.331  0.00  0.00    +0.018 C 
ATOM      5  C   UNL     1      36.391 -20.526 -20.235  0.00  0.00    +0.005 C 
ATOM      6  C   UNL     1      36.817 -21.169 -19.072  0.00  0.00    +0.002 C 
ENDROOT
BRANCH   1   8
ATOM      7  O   UNL     1      29.606 -22.427 -17.294  0.00  0.00    -0.207 OA
ATOM      8  N   UNL     1      33.689 -22.841 -18.001  0.00  0.00    -0.137 N 
ATOM      9  N   UNL     1      33.985 -23.456 -16.825  0.00  0.00    -0.215 N 
ATOM     10  N   UNL     1      32.331 -22.547 -18.094  0.00  0.00    -0.143 NA
ATOM     11  N   UNL     1      32.482 -24.062 -14.975  0.00  0.00    -0.309 NA
ATOM     12  N   UNL     1      30.164 -23.479 -15.305  0.00  0.00    -0.251 NA
ATOM     13  N   UNL     1      30.834 -24.530 -13.357  0.00  0.00    -0.283 N 
ATOM     14  C   UNL     1      32.840 -23.586 -16.109  0.00  0.00    +0.243 C 
ATOM     15  C   UNL     1      31.822 -22.983 -16.984  0.00  0.00    +0.241 C 
ATOM     16  C   UNL     1      30.422 -22.937 -16.541  0.00  0.00    +0.239 C 
ATOM     17  C   UNL     1      31.141 -23.999 -14.589  0.00  0.00    +0.208 C 
ATOM     18  H   UNL     1      34.878 -23.755 -16.540  0.00  0.00    +0.175 HD
ATOM     19  H   UNL     1      31.544 -24.925 -12.800  0.00  0.00    +0.156 HD
ATOM     20  H   UNL     1      29.905 -24.515 -13.032  0.00  0.00    +0.156 HD
ENDBRANCH   1   8
BRANCH   2  23
ATOM     21  O   UNL     1      33.409 -19.885 -22.125  0.00  0.00    -0.270 OA
ATOM     22  N   UNL     1      35.614 -19.443 -22.696  0.00  0.00    -0.297 N 
ATOM     23  C   UNL     1      34.622 -19.982 -21.867  0.00  0.00    +0.246 C 
ATOM     24  H   UNL     1      36.554 -19.558 -22.431  0.00  0.00    +0.150 HD
BRANCH  22  25
ATOM     25  C   UNL     1      35.329 -18.729 -23.919  0.00  0.00    +0.117 C 
BRANCH  25  28
ATOM     26 CL   UNL     1      33.464 -14.234 -25.751  0.00  0.00    -0.082 Cl
ATOM     27 CL   UNL     1      34.762 -14.814 -20.545  0.00  0.00    -0.082 Cl
ATOM     28  C   UNL     1      34.919 -17.308 -23.658  0.00  0.00    -0.001 C 
ATOM     29  C   UNL     1      35.020 -16.788 -22.373  0.00  0.00    +0.009 C 
ATOM     30  C   UNL     1      34.441 -16.528 -24.704  0.00  0.00    +0.009 C 
ATOM     31  C   UNL     1      34.058 -15.209 -24.463  0.00  0.00    +0.058 C 
ATOM     32  C   UNL     1      34.639 -15.469 -22.131  0.00  0.00    +0.058 C 
ATOM     33  C   UNL     1      34.157 -14.678 -23.176  0.00  0.00    +0.023 C 
ENDBRANCH  25  28
ENDBRANCH  22  25
ENDBRANCH   2  23
TORSDOF 4
ENDMDL
MODEL 4
REMARK VINA RESULT:     -13.1      1.568      2.618
REMARK  Name = 448407
REMARK  4 active torsions:
REMARK  status: ('A' for Active; 'I' for Inactive)
REMARK    1  A    between atoms: C_1  and  N_8
REMARK    2  A    between atoms: C_2  and  C_23
REMARK    3  A    between atoms: N_22  and  C_25
REMARK    4  A    between atoms: C_25  and  C_28
REMARK                            x       y       z     vdW  Elec       q    Type
REMARK                         _______ _______ _______ _____ _____    ______ ____
ROOT
ATOM      1  C   UNL     1      35.249 -19.250 -21.148  0.00  0.00    +0.090 C 
ATOM      2  C   UNL     1      34.976 -21.355 -19.956  0.00  0.00    +0.055 C 
ATOM      3  C   UNL     1      34.427 -20.277 -20.651  0.00  0.00    +0.023 C 
ATOM      4  C   UNL     1      36.635 -19.335 -20.931  0.00  0.00    +0.018 C 
ATOM      5  C   UNL     1      36.353 -21.423 -19.749  0.00  0.00    +0.005 C 
ATOM      6  C   UNL     1      37.183 -20.413 -20.237  0.00  0.00    +0.002 C 
ENDROOT
BRANCH   1   8
ATOM      7  O   UNL     1      34.910 -17.066 -25.850  0.00  0.00    -0.207 OA
ATOM      8  N   UNL     1      34.702 -18.176 -21.841  0.00  0.00    -0.137 N 
ATOM      9  N   UNL     1      34.572 -16.918 -21.342  0.00  0.00    -0.215 N 
ATOM     10  N   UNL     1      34.802 -18.165 -23.230  0.00  0.00    -0.143 NA
ATOM     11  N   UNL     1      34.499 -14.775 -22.547  0.00  0.00    -0.309 NA
ATOM     12  N   UNL     1      34.685 -14.942 -24.947  0.00  0.00    -0.251 NA
ATOM     13  N   UNL     1      34.457 -12.874 -23.938  0.00  0.00    -0.283 N 
ATOM     14  C   UNL     1      34.582 -16.043 -22.378  0.00  0.00    +0.243 C 
ATOM     15  C   UNL     1      34.732 -16.911 -23.556  0.00  0.00    +0.241 C 
ATOM     16  C   UNL     1      34.783 -16.312 -24.896  0.00  0.00    +0.239 C 
ATOM     17  C   UNL     1      34.553 -14.243 -23.838  0.00  0.00    +0.208 C 
ATOM     18  H   UNL     1      34.487 -16.682 -20.391  0.00  0.00    +0.175 HD
ATOM     19  H   UNL     1      34.359 -12.326 -23.126  0.00  0.00    +0.156 HD
ATOM     20  H   UNL     1      34.489 -12.442 -24.822  0.00  0.00    +0.156 HD
ENDBRANCH   1   8
BRANCH   2  23
ATOM     21  O   UNL     1      34.219 -23.572 -19.877  0.00  0.00    -0.270 OA
ATOM     22  N   UNL     1      33.189 -22.054 -18.458  0.00  0.00    -0.297 N 
ATOM     23  C   UNL     1      34.112 -22.409 -19.449  0.00  0.00    +0.246 C 
ATOM     24  H   UNL     1      33.158 -21.114 -18.167  0.00  0.00    +0.150 HD
BRANCH  22  25
ATOM     25  C   UNL     1      32.280 -22.992 -17.841  0.00  0.00    +0.117 C 
BRANCH  25  28
ATOM     26 CL   UNL     1      36.099 -23.323 -14.327  0.00  0.00    -0.082 Cl
ATOM     27 CL   UNL     1      31.081 -24.935 -13.170  0.00  0.00    -0.082 Cl
ATOM     28  C   UNL     1      32.722 -23.376 -16.458  0.00  0.00    -0.001 C 
ATOM     29  C   UNL     1      31.801 -23.912 -15.566  0.00  0.00    +0.009 C 
ATOM     30  C   UNL     1      34.048 -23.192 -16.085  0.00  0.00    +0.009 C 
ATOM     31  C   UNL     1      34.460 -23.548 -14.800  0.00  0.00    +0.058 C 
ATOM     32  C   UNL     1      32.212 -24.270 -14.282  0.00  0.00    +0.058 C 
ATOM     33  C   UNL     1      33.541 -24.087 -13.898  0.00  0.00    +0.023 C 
ENDBRANCH  25  28
ENDBRANCH  22  25
ENDBRANCH   2  23
TORSDOF 4
ENDMDL
MODEL 5
REMARK VINA RESULT:     -13.0      4.856     10.640
REMARK  Name = 448407
REMARK  4 active torsions:
REMARK  status: ('A' for Active; 'I' for Inactive)
REMARK    1  A    between atoms: C_1  and  N_8
REMARK    2  A    between atoms: C_2  and  C_23
REMARK    3  A    between atoms: N_22  and  C_25
REMARK    4  A    between atoms: C_25  and  C_28
REMARK                            x       y       z     vdW  Elec       q    Type
REMARK                         _______ _______ _______ _____ _____    ______ ____
ROOT
ATOM      1  C   UNL     1      34.996 -22.333 -17.856  0.00  0.00    +0.090 C 
ATOM      2  C   UNL     1      35.190 -21.006 -19.888  0.00  0.00    +0.055 C 
ATOM      3  C   UNL     1      35.747 -21.508 -18.712  0.00  0.00    +0.023 C 
ATOM      4  C   UNL     1      33.672 -22.641 -18.213  0.00  0.00    +0.018 C 
ATOM      5  C   UNL     1      33.874 -21.322 -20.226  0.00  0.00    +0.005 C 
ATOM      6  C   UNL     1      33.115 -22.140 -19.388  0.00  0.00    +0.002 C 
ENDROOT
BRANCH   1   8
ATOM      7  O   UNL     1      39.463 -23.857 -15.684  0.00  0.00    -0.207 OA
ATOM      8  N   UNL     1      35.552 -22.834 -16.685  0.00  0.00    -0.137 N 
ATOM      9  N   UNL     1      34.946 -23.732 -15.863  0.00  0.00    -0.215 N 
ATOM     10  N   UNL     1      36.939 -22.915 -16.591  0.00  0.00    -0.143 NA
ATOM     11  N   UNL     1      35.967 -25.366 -14.335  0.00  0.00    -0.309 NA
ATOM     12  N   UNL     1      38.380 -25.368 -14.299  0.00  0.00    -0.251 NA
ATOM     13  N   UNL     1      37.194 -26.833 -12.959  0.00  0.00    -0.283 N 
ATOM     14  C   UNL     1      35.907 -24.428 -15.205  0.00  0.00    +0.243 C 
ATOM     15  C   UNL     1      37.158 -23.851 -15.721  0.00  0.00    +0.241 C 
ATOM     16  C   UNL     1      38.445 -24.360 -15.231  0.00  0.00    +0.239 C 
ATOM     17  C   UNL     1      37.211 -25.824 -13.895  0.00  0.00    +0.208 C 
ATOM     18  H   UNL     1      33.975 -23.856 -15.762  0.00  0.00    +0.175 HD
ATOM     19  H   UNL     1      36.336 -27.194 -12.638  0.00  0.00    +0.156 HD
ATOM     20  H   UNL     1      38.041 -27.196 -12.612  0.00  0.00    +0.156 HD
ENDBRANCH   1   8
BRANCH   2  23
ATOM     21  O   UNL     1      37.132 -19.814 -20.438  0.00  0.00    -0.270 OA
ATOM     22  N   UNL     1      35.396 -19.772 -21.975  0.00  0.00    -0.297 N 
ATOM     23  C   UNL     1      35.981 -20.156 -20.763  0.00  0.00    +0.246 C 
ATOM     24  H   UNL     1      34.481 -20.078 -22.167  0.00  0.00    +0.150 HD
BRANCH  22  25
ATOM     25  C   UNL     1      36.063 -18.949 -22.957  0.00  0.00    +0.117 C 
BRANCH  25  28
ATOM     26 CL   UNL     1      34.394 -14.519 -20.805  0.00  0.00    -0.082 Cl
ATOM     27 CL   UNL     1      33.768 -15.479 -26.078  0.00  0.00    -0.082 Cl
ATOM     28  C   UNL     1      35.393 -17.614 -23.121  0.00  0.00    -0.001 C 
ATOM     29  C   UNL     1      34.947 -17.218 -24.377  0.00  0.00    +0.009 C 
ATOM     30  C   UNL     1      35.226 -16.789 -22.015  0.00  0.00    +0.009 C 
ATOM     31  C   UNL     1      34.605 -15.549 -22.167  0.00  0.00    +0.058 C 
ATOM     32  C   UNL     1      34.325 -15.979 -24.529  0.00  0.00    +0.058 C 
ATOM     33  C   UNL     1      34.154 -15.144 -23.424  0.00  0.00    +0.023 C 
ENDBRANCH  25  28
ENDBRANCH  22  25
ENDBRANCH   2  23
TORSDOF 4
ENDMDL
MODEL 6
REMARK VINA RESULT:     -13.0      3.431      6.123
REMARK  Name = 448407
REMARK  4 active torsions:
REMARK  status: ('A' for Active; 'I' for Inactive)
REMARK    1  A    between atoms: C_1  and  N_8
REMARK    2  A    between atoms: C_2  and  C_23
REMARK    3  A    between atoms: N_22  and  C_25
REMARK    4  A    between atoms: C_25  and  C_28
REMARK                            x       y       z     vdW  Elec       q    Type
REMARK                         _______ _______ _______ _____ _____    ______ ____
ROOT
ATOM      1  C   UNL     1      33.762 -14.348 -24.285  0.00  0.00    +0.090 C 
ATOM      2  C   UNL     1      34.593 -16.627 -24.479  0.00  0.00    +0.055 C 
ATOM      3  C   UNL     1      34.530 -15.416 -23.790  0.00  0.00    +0.023 C 
ATOM      4  C   UNL     1      33.059 -14.528 -25.489  0.00  0.00    +0.018 C 
ATOM      5  C   UNL     1      33.889 -16.790 -25.672  0.00  0.00    +0.005 C 
ATOM      6  C   UNL     1      33.122 -15.739 -26.177  0.00  0.00    +0.002 C 
ENDROOT
BRANCH   1   8
ATOM      7  O   UNL     1      30.734 -11.467 -21.199  0.00  0.00    -0.207 OA
ATOM      8  N   UNL     1      33.698 -13.141 -23.599  0.00  0.00    -0.137 N 
ATOM      9  N   UNL     1      34.209 -11.965 -24.051  0.00  0.00    -0.215 N 
ATOM     10  N   UNL     1      32.633 -12.931 -22.726  0.00  0.00    -0.143 NA
ATOM     11  N   UNL     1      33.502  -9.668 -23.528  0.00  0.00    -0.309 NA
ATOM     12  N   UNL     1      31.643  -9.490 -22.000  0.00  0.00    -0.251 NA
ATOM     13  N   UNL     1      32.628  -7.584 -22.862  0.00  0.00    -0.283 N 
ATOM     14  C   UNL     1      33.502 -10.949 -23.496  0.00  0.00    +0.243 C 
ATOM     15  C   UNL     1      32.511 -11.642 -22.659  0.00  0.00    +0.241 C 
ATOM     16  C   UNL     1      31.543 -10.856 -21.881  0.00  0.00    +0.239 C 
ATOM     17  C   UNL     1      32.565  -8.956 -22.775  0.00  0.00    +0.208 C 
ATOM     18  H   UNL     1      34.963 -11.867 -24.676  0.00  0.00    +0.175 HD
ATOM     19  H   UNL     1      33.307  -7.156 -23.434  0.00  0.00    +0.156 HD
ATOM     20  H   UNL     1      31.993  -7.029 -22.354  0.00  0.00    +0.156 HD
ENDBRANCH   1   8
BRANCH   2  23
ATOM     21  O   UNL     1      35.450 -18.809 -24.556  0.00  0.00    -0.270 OA
ATOM     22  N   UNL     1      36.094 -17.484 -22.765  0.00  0.00    -0.297 N 
ATOM     23  C   UNL     1      35.392 -17.723 -23.952  0.00  0.00    +0.246 C 
ATOM     24  H   UNL     1      36.002 -16.602 -22.340  0.00  0.00    +0.150 HD
BRANCH  22  25
ATOM     25  C   UNL     1      36.946 -18.464 -22.131  0.00  0.00    +0.117 C 
BRANCH  25  28
ATOM     26 CL   UNL     1      36.908 -22.005 -18.324  0.00  0.00    -0.082 Cl
ATOM     27 CL   UNL     1      32.363 -20.556 -20.846  0.00  0.00    -0.082 Cl
ATOM     28  C   UNL     1      36.165 -19.415 -21.271  0.00  0.00    -0.001 C 
ATOM     29  C   UNL     1      34.790 -19.526 -21.442  0.00  0.00    +0.009 C 
ATOM     30  C   UNL     1      36.825 -20.176 -20.313  0.00  0.00    +0.009 C 
ATOM     31  C   UNL     1      36.100 -21.060 -19.514  0.00  0.00    +0.058 C 
ATOM     32  C   UNL     1      34.065 -20.410 -20.643  0.00  0.00    +0.058 C 
ATOM     33  C   UNL     1      34.720 -21.177 -19.678  0.00  0.00    +0.023 C 
ENDBRANCH  25  28
ENDBRANCH  22  25
ENDBRANCH   2  23
TORSDOF 4
ENDMDL
MODEL 7
REMARK VINA RESULT:     -12.8      6.105      9.604
REMARK  Name = 448407
REMARK  4 active torsions:
REMARK  status: ('A' for Active; 'I' for Inactive)
REMARK    1  A    between atoms: C_1  and  N_8
REMARK    2  A    between atoms: C_2  and  C_23
REMARK    3  A    between atoms: N_22  and  C_25
REMARK    4  A    between atoms: C_25  and  C_28
REMARK                            x       y       z     vdW  Elec       q    Type
REMARK                         _______ _______ _______ _____ _____    ______ ____
ROOT
ATOM      1  C   UNL     1      32.477 -10.300 -22.491  0.00  0.00    +0.090 C 
ATOM      2  C   UNL     1      32.966 -12.524 -23.351  0.00  0.00    +0.055 C 
ATOM      3  C   UNL     1      33.010 -11.137 -23.487  0.00  0.00    +0.023 C 
ATOM      4  C   UNL     1      31.901 -10.894 -21.354  0.00  0.00    +0.018 C 
ATOM      5  C   UNL     1      32.391 -13.097 -22.217  0.00  0.00    +0.005 C 
ATOM      6  C   UNL     1      31.858 -12.281 -21.218  0.00  0.00    +0.002 C 
ENDROOT
BRANCH   1   8
ATOM      7  O   UNL     1      31.181  -5.845 -20.154  0.00  0.00    -0.207 OA
ATOM      8  N   UNL     1      32.521  -8.918 -22.625  0.00  0.00    -0.137 N 
ATOM      9  N   UNL     1      32.363  -8.249 -23.798  0.00  0.00    -0.215 N 
ATOM     10  N   UNL     1      32.144  -8.134 -21.537  0.00  0.00    -0.143 NA
ATOM     11  N   UNL     1      31.540  -5.962 -24.177  0.00  0.00    -0.309 NA
ATOM     12  N   UNL     1      30.932  -4.748 -22.181  0.00  0.00    -0.251 NA
ATOM     13  N   UNL     1      30.724  -3.754 -24.259  0.00  0.00    -0.283 N 
ATOM     14  C   UNL     1      31.880  -7.011 -23.524  0.00  0.00    +0.243 C 
ATOM     15  C   UNL     1      31.765  -7.008 -22.057  0.00  0.00    +0.241 C 
ATOM     16  C   UNL     1      31.265  -5.809 -21.373  0.00  0.00    +0.239 C 
ATOM     17  C   UNL     1      31.068  -4.841 -23.489  0.00  0.00    +0.208 C 
ATOM     18  H   UNL     1      32.564  -8.602 -24.694  0.00  0.00    +0.175 HD
ATOM     19  H   UNL     1      30.815  -3.794 -25.239  0.00  0.00    +0.156 HD
ATOM     20  H   UNL     1      30.385  -2.935 -23.830  0.00  0.00    +0.156 HD
ENDBRANCH   1   8
BRANCH   2  23
ATOM     21  O   UNL     1      34.069 -12.874 -25.390  0.00  0.00    -0.270 OA
ATOM     22  N   UNL     1      33.433 -14.759 -24.197  0.00  0.00    -0.297 N 
ATOM     23  C   UNL     1      33.523 -13.375 -24.391  0.00  0.00    +0.246 C 
ATOM     24  H   UNL     1      32.987 -15.086 -23.383  0.00  0.00    +0.150 HD
BRANCH  22  25
ATOM     25  C   UNL     1      33.959 -15.731 -25.127  0.00  0.00    +0.117 C 
BRANCH  25  28
ATOM     26 CL   UNL     1      35.944 -17.857 -20.817  0.00  0.00    -0.082 Cl
ATOM     27 CL   UNL     1      35.183 -20.782 -25.287  0.00  0.00    -0.082 Cl
ATOM     28  C   UNL     1      34.501 -16.943 -24.427  0.00  0.00    -0.001 C 
ATOM     29  C   UNL     1      34.578 -18.154 -25.106  0.00  0.00    +0.009 C 
ATOM     30  C   UNL     1      34.920 -16.843 -23.105  0.00  0.00    +0.009 C 
ATOM     31  C   UNL     1      35.423 -17.969 -22.453  0.00  0.00    +0.058 C 
ATOM     32  C   UNL     1      35.082 -19.279 -24.456  0.00  0.00    +0.058 C 
ATOM     33  C   UNL     1      35.504 -19.188 -23.128  0.00  0.00    +0.023 C 
ENDBRANCH  25  28
ENDBRANCH  22  25
ENDBRANCH   2  23
TORSDOF 4
ENDMDL
MODEL 8
REMARK VINA RESULT:     -12.8      6.098      9.580
REMARK  Name = 448407
REMARK  4 active torsions:
REMARK  status: ('A' for Active; 'I' for Inactive)
REMARK    1  A    between atoms: C_1  and  N_8
REMARK    2  A    between atoms: C_2  and  C_23
REMARK    3  A    between atoms: N_22  and  C_25
REMARK    4  A    between atoms: C_25  and  C_28
REMARK                            x       y       z     vdW  Elec       q    Type
REMARK                         _______ _______ _______ _____ _____    ______ ____
ROOT
ATOM      1  C   UNL     1      32.478 -10.318 -22.463  0.00  0.00    +0.090 C 
ATOM      2  C   UNL     1      32.970 -12.542 -23.323  0.00  0.00    +0.055 C 
ATOM      3  C   UNL     1      33.006 -11.154 -23.462  0.00  0.00    +0.023 C 
ATOM      4  C   UNL     1      31.915 -10.911 -21.320  0.00  0.00    +0.018 C 
ATOM      5  C   UNL     1      32.407 -13.114 -22.182  0.00  0.00    +0.005 C 
ATOM      6  C   UNL     1      31.880 -12.298 -21.181  0.00  0.00    +0.002 C 
ENDROOT
BRANCH   1   8
ATOM      7  O   UNL     1      31.168  -5.863 -20.133  0.00  0.00    -0.207 OA
ATOM      8  N   UNL     1      32.515  -8.935 -22.601  0.00  0.00    -0.137 N 
ATOM      9  N   UNL     1      32.349  -8.270 -23.775  0.00  0.00    -0.215 N 
ATOM     10  N   UNL     1      32.137  -8.151 -21.514  0.00  0.00    -0.143 NA
ATOM     11  N   UNL     1      31.513  -5.989 -24.157  0.00  0.00    -0.309 NA
ATOM     12  N   UNL     1      30.906  -4.773 -22.162  0.00  0.00    -0.251 NA
ATOM     13  N   UNL     1      30.685  -3.785 -24.242  0.00  0.00    -0.283 N 
ATOM     14  C   UNL     1      31.861  -7.035 -23.502  0.00  0.00    +0.243 C 
ATOM     15  C   UNL     1      31.751  -7.028 -22.035  0.00  0.00    +0.241 C 
ATOM     16  C   UNL     1      31.247  -5.830 -21.352  0.00  0.00    +0.239 C 
ATOM     17  C   UNL     1      31.038  -4.869 -23.470  0.00  0.00    +0.208 C 
ATOM     18  H   UNL     1      32.549  -8.625 -24.671  0.00  0.00    +0.175 HD
ATOM     19  H   UNL     1      30.773  -3.828 -25.222  0.00  0.00    +0.156 HD
ATOM     20  H   UNL     1      30.344  -2.967 -23.813  0.00  0.00    +0.156 HD
ENDBRANCH   1   8
BRANCH   2  23
ATOM     21  O   UNL     1      34.087 -12.892 -25.354  0.00  0.00    -0.270 OA
ATOM     22  N   UNL     1      33.404 -14.776 -24.186  0.00  0.00    -0.297 N 
ATOM     23  C   UNL     1      33.522 -13.392 -24.365  0.00  0.00    +0.246 C 
ATOM     24  H   UNL     1      32.944 -15.103 -23.380  0.00  0.00    +0.150 HD
BRANCH  22  25
ATOM     25  C   UNL     1      33.921 -15.748 -25.121  0.00  0.00    +0.117 C 
BRANCH  25  28
ATOM     26 CL   UNL     1      35.155 -20.797 -25.289  0.00  0.00    -0.082 Cl
ATOM     27 CL   UNL     1      35.965 -17.864 -20.832  0.00  0.00    -0.082 Cl
ATOM     28  C   UNL     1      34.475 -16.958 -24.424  0.00  0.00    -0.001 C 
ATOM     29  C   UNL     1      34.910 -16.856 -23.108  0.00  0.00    +0.009 C 
ATOM     30  C   UNL     1      34.546 -18.169 -25.103  0.00  0.00    +0.009 C 
ATOM     31  C   UNL     1      35.061 -19.293 -24.457  0.00  0.00    +0.058 C 
ATOM     32  C   UNL     1      35.424 -17.979 -22.461  0.00  0.00    +0.058 C 
ATOM     33  C   UNL     1      35.500 -19.199 -23.136  0.00  0.00    +0.023 C 
ENDBRANCH  25  28
ENDBRANCH  22  25
ENDBRANCH   2  23
TORSDOF 4
ENDMDL
MODEL 9
REMARK VINA RESULT:     -12.5      5.853     10.695
REMARK  Name = 448407
REMARK  4 active torsions:
REMARK  status: ('A' for Active; 'I' for Inactive)
REMARK    1  A    between atoms: C_1  and  N_8
REMARK    2  A    between atoms: C_2  and  C_23
REMARK    3  A    between atoms: N_22  and  C_25
REMARK    4  A    between atoms: C_25  and  C_28
REMARK                            x       y       z     vdW  Elec       q    Type
REMARK                         _______ _______ _______ _____ _____    ______ ____
ROOT
ATOM      1  C   UNL     1      33.104 -24.587 -14.135  0.00  0.00    +0.090 C 
ATOM      2  C   UNL     1      31.636 -23.537 -15.768  0.00  0.00    +0.055 C 
ATOM      3  C   UNL     1      32.918 -23.864 -15.326  0.00  0.00    +0.023 C 
ATOM      4  C   UNL     1      31.969 -24.975 -13.401  0.00  0.00    +0.018 C 
ATOM      5  C   UNL     1      30.521 -23.929 -15.028  0.00  0.00    +0.005 C 
ATOM      6  C   UNL     1      30.688 -24.648 -13.844  0.00  0.00    +0.002 C 
ENDROOT
BRANCH   1   8
ATOM      7  O   UNL     1      37.107 -22.857 -11.311  0.00  0.00    -0.207 OA
ATOM      8  N   UNL     1      34.381 -24.915 -13.694  0.00  0.00    -0.137 N 
ATOM      9  N   UNL     1      35.303 -25.592 -14.429  0.00  0.00    -0.215 N 
ATOM     10  N   UNL     1      34.988 -24.089 -12.751  0.00  0.00    -0.143 NA
ATOM     11  N   UNL     1      37.757 -25.520 -14.278  0.00  0.00    -0.309 NA
ATOM     12  N   UNL     1      38.637 -24.038 -12.590  0.00  0.00    -0.251 NA
ATOM     13  N   UNL     1      40.072 -25.265 -13.926  0.00  0.00    -0.283 N 
ATOM     14  C   UNL     1      36.539 -25.238 -13.997  0.00  0.00    +0.243 C 
ATOM     15  C   UNL     1      36.260 -24.273 -12.922  0.00  0.00    +0.241 C 
ATOM     16  C   UNL     1      37.378 -23.655 -12.196  0.00  0.00    +0.239 C 
ATOM     17  C   UNL     1      38.792 -24.910 -13.566  0.00  0.00    +0.208 C 
ATOM     18  H   UNL     1      35.108 -26.231 -15.152  0.00  0.00    +0.175 HD
ATOM     19  H   UNL     1      40.219 -25.914 -14.652  0.00  0.00    +0.156 HD
ATOM     20  H   UNL     1      40.843 -24.867 -13.459  0.00  0.00    +0.156 HD
ENDBRANCH   1   8
BRANCH   2  23
ATOM     21  O   UNL     1      30.376 -22.238 -17.259  0.00  0.00    -0.270 OA
ATOM     22  N   UNL     1      32.567 -22.707 -17.859  0.00  0.00    -0.297 N 
ATOM     23  C   UNL     1      31.462 -22.789 -17.004  0.00  0.00    +0.246 C 
ATOM     24  H   UNL     1      33.395 -23.168 -17.594  0.00  0.00    +0.150 HD
BRANCH  22  25
ATOM     25  C   UNL     1      32.557 -21.983 -19.109  0.00  0.00    +0.117 C 
BRANCH  25  28
ATOM     26 CL   UNL     1      37.675 -21.958 -18.189  0.00  0.00    -0.082 Cl
ATOM     27 CL   UNL     1      35.553 -19.163 -22.289  0.00  0.00    -0.082 Cl
ATOM     28  C   UNL     1      33.928 -21.502 -19.491  0.00  0.00    -0.001 C 
ATOM     29  C   UNL     1      34.080 -20.657 -20.584  0.00  0.00    +0.009 C 
ATOM     30  C   UNL     1      35.030 -21.907 -18.747  0.00  0.00    +0.009 C 
ATOM     31  C   UNL     1      36.303 -21.461 -19.102  0.00  0.00    +0.058 C 
ATOM     32  C   UNL     1      35.353 -20.210 -20.938  0.00  0.00    +0.058 C 
ATOM     33  C   UNL     1      36.465 -20.613 -20.198  0.00  0.00    +0.023 C 
ENDBRANCH  25  28
ENDBRANCH  22  25
ENDBRANCH   2  23
TORSDOF 4
ENDMDL
