MODEL 1
REMARK VINA RESULT:     -12.5      0.000      0.000
REMARK  Name = 10050566
REMARK  9 active torsions:
REMARK  status: ('A' for Active; 'I' for Inactive)
REMARK    1  A    between atoms: C_2  and  N_11
REMARK    2  A    between atoms: C_3  and  O_22
REMARK    3  A    between atoms: C_12  and  C_14
REMARK    4  A    between atoms: C_19  and  O_20
REMARK    5  A    between atoms: O_22  and  C_24
REMARK    6  A    between atoms: C_24  and  C_25
REMARK    7  A    between atoms: C_30  and  C_32
REMARK    8  A    between atoms: C_32  and  C_33
REMARK    9  A    between atoms: C_34  and  O_39
REMARK                            x       y       z     vdW  Elec       q    Type
REMARK                         _______ _______ _______ _____ _____    ______ ____
ROOT
ATOM      1  N   UNL     1      32.321 -22.117 -14.624  0.00  0.00    +0.385 N 
ATOM      2  C   UNL     1      34.356 -23.142 -15.655  0.00  0.00    +0.091 C 
ATOM      3  C   UNL     1      33.571 -23.909 -16.735  0.00  0.00    +0.185 C 
ATOM      4  C   UNL     1      32.365 -24.723 -16.253  0.00  0.00    +0.043 C 
ATOM      5  C   UNL     1      33.593 -22.793 -14.373  0.00  0.00    -0.058 C 
ATOM      6  C   UNL     1      31.115 -23.907 -15.916  0.00  0.00    -0.020 C 
ATOM      7  C   UNL     1      31.206 -23.065 -14.648  0.00  0.00    -0.082 C 
ATOM      8  H   UNL     1      32.370 -21.640 -15.524  0.00  0.00    -0.084 HD
ATOM      9  H   UNL     1      32.157 -21.450 -13.869  0.00  0.00    -0.084 HD
ENDROOT
BRANCH   2  11
ATOM     10  O   UNL     1      37.061 -22.194 -15.783  0.00  0.00    -0.270 OA
ATOM     11  N   UNL     1      35.551 -23.885 -15.299  0.00  0.00    -0.301 N 
ATOM     12  C   UNL     1      36.814 -23.333 -15.397  0.00  0.00    +0.246 C 
ATOM     13  H   UNL     1      35.459 -24.811 -14.978  0.00  0.00    +0.150 HD
BRANCH  12  14
ATOM     14  C   UNL     1      37.936 -24.232 -15.021  0.00  0.00    +0.054 C 
ATOM     15  C   UNL     1      37.800 -25.036 -13.908  0.00  0.00    +0.008 C 
ATOM     16  C   UNL     1      39.078 -24.234 -15.795  0.00  0.00    +0.008 C 
ATOM     17  C   UNL     1      38.853 -25.879 -13.554  0.00  0.00    +0.037 C 
ATOM     18  C   UNL     1      40.130 -25.078 -15.442  0.00  0.00    +0.037 C 
ATOM     19  C   UNL     1      40.017 -25.901 -14.321  0.00  0.00    +0.134 C 
BRANCH  19  20
ATOM     20  O   UNL     1      41.044 -26.725 -13.977  0.00  0.00    -0.506 OA
ATOM     21  H   UNL     1      41.897 -26.586 -14.339  0.00  0.00    +0.292 HD
ENDBRANCH  19  20
ENDBRANCH  12  14
ENDBRANCH   2  11
BRANCH   3  22
ATOM     22  O   UNL     1      33.168 -22.999 -17.763  0.00  0.00    -0.448 OA
BRANCH  22  24
ATOM     23  O   UNL     1      33.755 -24.340 -19.539  0.00  0.00    -0.245 OA
ATOM     24  C   UNL     1      33.672 -23.249 -18.997  0.00  0.00    +0.341 C 
BRANCH  24  25
ATOM     25  C   UNL     1      34.130 -21.988 -19.632  0.00  0.00    +0.076 C 
ATOM     26  C   UNL     1      33.186 -21.088 -20.085  0.00  0.00    +0.007 C 
ATOM     27  C   UNL     1      35.485 -21.754 -19.751  0.00  0.00    +0.007 C 
ATOM     28  C   UNL     1      33.617 -19.903 -20.683  0.00  0.00    +0.003 C 
ATOM     29  C   UNL     1      35.915 -20.570 -20.348  0.00  0.00    +0.003 C 
ATOM     30  C   UNL     1      34.981 -19.644 -20.815  0.00  0.00    +0.039 C 
BRANCH  30  32
ATOM     31  O   UNL     1      36.126 -17.605 -20.802  0.00  0.00    -0.286 OA
ATOM     32  C   UNL     1      35.430 -18.409 -21.438  0.00  0.00    +0.198 C 
BRANCH  32  33
ATOM     33  C   UNL     1      35.082 -18.051 -22.846  0.00  0.00    +0.073 C 
ATOM     34  C   UNL     1      34.897 -16.731 -23.185  0.00  0.00    +0.137 C 
ATOM     35  C   UNL     1      34.961 -19.077 -23.757  0.00  0.00    +0.006 C 
ATOM     36  C   UNL     1      34.573 -16.418 -24.505  0.00  0.00    +0.037 C 
ATOM     37  C   UNL     1      34.638 -18.764 -25.077  0.00  0.00    +0.000 C 
ATOM     38  C   UNL     1      34.443 -17.435 -25.451  0.00  0.00    +0.003 C 
BRANCH  34  39
ATOM     39  O   UNL     1      35.019 -15.723 -22.276  0.00  0.00    -0.505 OA
ATOM     40  H   UNL     1      34.324 -15.551 -21.670  0.00  0.00    +0.292 HD
ENDBRANCH  34  39
ENDBRANCH  32  33
ENDBRANCH  30  32
ENDBRANCH  24  25
ENDBRANCH  22  24
ENDBRANCH   3  22
TORSDOF 9
ENDMDL
MODEL 2
REMARK VINA RESULT:     -11.9      2.280      5.965
REMARK  Name = 10050566
REMARK  9 active torsions:
REMARK  status: ('A' for Active; 'I' for Inactive)
REMARK    1  A    between atoms: C_2  and  N_11
REMARK    2  A    between atoms: C_3  and  O_22
REMARK    3  A    between atoms: C_12  and  C_14
REMARK    4  A    between atoms: C_19  and  O_20
REMARK    5  A    between atoms: O_22  and  C_24
REMARK    6  A    between atoms: C_24  and  C_25
REMARK    7  A    between atoms: C_30  and  C_32
REMARK    8  A    between atoms: C_32  and  C_33
REMARK    9  A    between atoms: C_34  and  O_39
REMARK                            x       y       z     vdW  Elec       q    Type
REMARK                         _______ _______ _______ _____ _____    ______ ____
ROOT
ATOM      1  N   UNL     1      34.850 -25.349 -14.533  0.00  0.00    +0.385 N 
ATOM      2  C   UNL     1      32.990 -24.369 -15.889  0.00  0.00    +0.091 C 
ATOM      3  C   UNL     1      33.806 -23.148 -16.351  0.00  0.00    +0.185 C 
ATOM      4  C   UNL     1      34.556 -22.376 -15.260  0.00  0.00    +0.043 C 
ATOM      5  C   UNL     1      33.424 -25.026 -14.575  0.00  0.00    -0.058 C 
ATOM      6  C   UNL     1      35.833 -23.042 -14.742  0.00  0.00    -0.020 C 
ATOM      7  C   UNL     1      35.621 -24.286 -13.886  0.00  0.00    -0.082 C 
ATOM      8  H   UNL     1      35.191 -25.471 -15.487  0.00  0.00    -0.084 HD
ATOM      9  H   UNL     1      34.969 -26.205 -13.993  0.00  0.00    -0.084 HD
ENDROOT
BRANCH   2  11
ATOM     10  O   UNL     1      31.549 -22.605 -17.634  0.00  0.00    -0.270 OA
ATOM     11  N   UNL     1      31.588 -24.010 -15.791  0.00  0.00    -0.301 N 
ATOM     12  C   UNL     1      30.986 -23.147 -16.687  0.00  0.00    +0.246 C 
ATOM     13  H   UNL     1      31.048 -24.393 -15.062  0.00  0.00    +0.150 HD
BRANCH  12  14
ATOM     14  C   UNL     1      29.550 -22.860 -16.434  0.00  0.00    +0.054 C 
ATOM     15  C   UNL     1      28.632 -23.132 -17.427  0.00  0.00    +0.008 C 
ATOM     16  C   UNL     1      29.181 -22.330 -15.215  0.00  0.00    +0.008 C 
ATOM     17  C   UNL     1      27.284 -22.862 -17.190  0.00  0.00    +0.037 C 
ATOM     18  C   UNL     1      27.833 -22.061 -14.978  0.00  0.00    +0.037 C 
ATOM     19  C   UNL     1      26.885 -22.327 -15.966  0.00  0.00    +0.134 C 
BRANCH  19  20
ATOM     20  O   UNL     1      25.569 -22.066 -15.734  0.00  0.00    -0.506 OA
ATOM     21  H   UNL     1      25.243 -22.054 -14.855  0.00  0.00    +0.292 HD
ENDBRANCH  19  20
ENDBRANCH  12  14
ENDBRANCH   2  11
BRANCH   3  22
ATOM     22  O   UNL     1      34.718 -23.549 -17.379  0.00  0.00    -0.448 OA
BRANCH  22  24
ATOM     23  O   UNL     1      33.523 -24.396 -19.154  0.00  0.00    -0.245 OA
ATOM     24  C   UNL     1      34.220 -23.535 -18.641  0.00  0.00    +0.341 C 
BRANCH  24  25
ATOM     25  C   UNL     1      34.644 -22.301 -19.348  0.00  0.00    +0.076 C 
ATOM     26  C   UNL     1      35.987 -21.987 -19.394  0.00  0.00    +0.007 C 
ATOM     27  C   UNL     1      33.683 -21.506 -19.937  0.00  0.00    +0.007 C 
ATOM     28  C   UNL     1      36.386 -20.826 -20.059  0.00  0.00    +0.003 C 
ATOM     29  C   UNL     1      34.080 -20.346 -20.601  0.00  0.00    +0.003 C 
ATOM     30  C   UNL     1      35.433 -20.006 -20.663  0.00  0.00    +0.039 C 
BRANCH  30  32
ATOM     31  O   UNL     1      36.693 -18.045 -20.847  0.00  0.00    -0.286 OA
ATOM     32  C   UNL     1      35.848 -18.797 -21.354  0.00  0.00    +0.198 C 
BRANCH  32  33
ATOM     33  C   UNL     1      35.289 -18.403 -22.683  0.00  0.00    +0.073 C 
ATOM     34  C   UNL     1      34.994 -17.082 -22.932  0.00  0.00    +0.137 C 
ATOM     35  C   UNL     1      35.093 -19.397 -23.616  0.00  0.00    +0.006 C 
ATOM     36  C   UNL     1      34.474 -16.737 -24.178  0.00  0.00    +0.037 C 
ATOM     37  C   UNL     1      34.574 -19.052 -24.863  0.00  0.00    +0.000 C 
ATOM     38  C   UNL     1      34.264 -17.721 -25.144  0.00  0.00    +0.003 C 
BRANCH  34  39
ATOM     39  O   UNL     1      35.193 -16.107 -22.002  0.00  0.00    -0.505 OA
ATOM     40  H   UNL     1      34.533 -15.930 -21.359  0.00  0.00    +0.292 HD
ENDBRANCH  34  39
ENDBRANCH  32  33
ENDBRANCH  30  32
ENDBRANCH  24  25
ENDBRANCH  22  24
ENDBRANCH   3  22
TORSDOF 9
ENDMDL
MODEL 3
REMARK VINA RESULT:     -11.7      2.304      5.939
REMARK  Name = 10050566
REMARK  9 active torsions:
REMARK  status: ('A' for Active; 'I' for Inactive)
REMARK    1  A    between atoms: C_2  and  N_11
REMARK    2  A    between atoms: C_3  and  O_22
REMARK    3  A    between atoms: C_12  and  C_14
REMARK    4  A    between atoms: C_19  and  O_20
REMARK    5  A    between atoms: O_22  and  C_24
REMARK    6  A    between atoms: C_24  and  C_25
REMARK    7  A    between atoms: C_30  and  C_32
REMARK    8  A    between atoms: C_32  and  C_33
REMARK    9  A    between atoms: C_34  and  O_39
REMARK                            x       y       z     vdW  Elec       q    Type
REMARK                         _______ _______ _______ _____ _____    ______ ____
ROOT
ATOM      1  N   UNL     1      35.725 -25.249 -15.379  0.00  0.00    +0.385 N 
ATOM      2  C   UNL     1      33.731 -24.120 -16.382  0.00  0.00    +0.091 C 
ATOM      3  C   UNL     1      34.462 -22.790 -16.640  0.00  0.00    +0.185 C 
ATOM      4  C   UNL     1      35.260 -22.211 -15.466  0.00  0.00    +0.043 C 
ATOM      5  C   UNL     1      34.289 -25.001 -15.260  0.00  0.00    -0.058 C 
ATOM      6  C   UNL     1      36.598 -22.898 -15.180  0.00  0.00    -0.020 C 
ATOM      7  C   UNL     1      36.500 -24.297 -14.582  0.00  0.00    -0.082 C 
ATOM      8  H   UNL     1      35.997 -25.161 -16.358  0.00  0.00    -0.084 HD
ATOM      9  H   UNL     1      35.918 -26.188 -15.032  0.00  0.00    -0.084 HD
ENDROOT
BRANCH   2  11
ATOM     10  O   UNL     1      31.964 -22.504 -17.963  0.00  0.00    -0.270 OA
ATOM     11  N   UNL     1      32.328 -23.863 -16.121  0.00  0.00    -0.301 N 
ATOM     12  C   UNL     1      31.560 -23.066 -16.948  0.00  0.00    +0.246 C 
ATOM     13  H   UNL     1      31.908 -24.270 -15.328  0.00  0.00    +0.150 HD
BRANCH  12  14
ATOM     14  C   UNL     1      30.147 -22.881 -16.528  0.00  0.00    +0.054 C 
ATOM     15  C   UNL     1      29.141 -23.316 -17.366  0.00  0.00    +0.008 C 
ATOM     16  C   UNL     1      29.885 -22.278 -15.316  0.00  0.00    +0.008 C 
ATOM     17  C   UNL     1      27.814 -23.142 -16.973  0.00  0.00    +0.037 C 
ATOM     18  C   UNL     1      28.558 -22.105 -14.922  0.00  0.00    +0.037 C 
ATOM     19  C   UNL     1      27.523 -22.537 -15.751  0.00  0.00    +0.134 C 
BRANCH  19  20
ATOM     20  O   UNL     1      26.228 -22.369 -15.366  0.00  0.00    -0.506 OA
ATOM     21  H   UNL     1      25.535 -22.720 -15.889  0.00  0.00    +0.292 HD
ENDBRANCH  19  20
ENDBRANCH  12  14
ENDBRANCH   2  11
BRANCH   3  22
ATOM     22  O   UNL     1      35.308 -22.928 -17.786  0.00  0.00    -0.448 OA
BRANCH  22  24
ATOM     23  O   UNL     1      33.892 -23.746 -19.405  0.00  0.00    -0.245 OA
ATOM     24  C   UNL     1      34.677 -22.909 -18.986  0.00  0.00    +0.341 C 
BRANCH  24  25
ATOM     25  C   UNL     1      35.071 -21.704 -19.757  0.00  0.00    +0.076 C 
ATOM     26  C   UNL     1      36.403 -21.342 -19.793  0.00  0.00    +0.007 C 
ATOM     27  C   UNL     1      34.095 -20.983 -20.413  0.00  0.00    +0.007 C 
ATOM     28  C   UNL     1      36.773 -20.208 -20.517  0.00  0.00    +0.003 C 
ATOM     29  C   UNL     1      34.466 -19.850 -21.137  0.00  0.00    +0.003 C 
ATOM     30  C   UNL     1      35.806 -19.462 -21.189  0.00  0.00    +0.039 C 
BRANCH  30  32
ATOM     31  O   UNL     1      37.248 -18.272 -22.594  0.00  0.00    -0.286 OA
ATOM     32  C   UNL     1      36.192 -18.281 -21.944  0.00  0.00    +0.198 C 
BRANCH  32  33
ATOM     33  C   UNL     1      35.357 -17.042 -21.974  0.00  0.00    +0.073 C 
ATOM     34  C   UNL     1      35.070 -16.446 -23.180  0.00  0.00    +0.137 C 
ATOM     35  C   UNL     1      34.903 -16.546 -20.772  0.00  0.00    +0.006 C 
ATOM     36  C   UNL     1      34.289 -15.291 -23.186  0.00  0.00    +0.037 C 
ATOM     37  C   UNL     1      34.121 -15.391 -20.778  0.00  0.00    +0.000 C 
ATOM     38  C   UNL     1      33.815 -14.763 -21.985  0.00  0.00    +0.003 C 
BRANCH  34  39
ATOM     39  O   UNL     1      35.524 -16.946 -24.364  0.00  0.00    -0.505 OA
ATOM     40  H   UNL     1      36.355 -16.672 -24.701  0.00  0.00    +0.292 HD
ENDBRANCH  34  39
ENDBRANCH  32  33
ENDBRANCH  30  32
ENDBRANCH  24  25
ENDBRANCH  22  24
ENDBRANCH   3  22
TORSDOF 9
ENDMDL
MODEL 4
REMARK VINA RESULT:     -11.3      1.426      2.136
REMARK  Name = 10050566
REMARK  9 active torsions:
REMARK  status: ('A' for Active; 'I' for Inactive)
REMARK    1  A    between atoms: C_2  and  N_11
REMARK    2  A    between atoms: C_3  and  O_22
REMARK    3  A    between atoms: C_12  and  C_14
REMARK    4  A    between atoms: C_19  and  O_20
REMARK    5  A    between atoms: O_22  and  C_24
REMARK    6  A    between atoms: C_24  and  C_25
REMARK    7  A    between atoms: C_30  and  C_32
REMARK    8  A    between atoms: C_32  and  C_33
REMARK    9  A    between atoms: C_34  and  O_39
REMARK                            x       y       z     vdW  Elec       q    Type
REMARK                         _______ _______ _______ _____ _____    ______ ____
ROOT
ATOM      1  N   UNL     1      30.156 -21.998 -15.525  0.00  0.00    +0.385 N 
ATOM      2  C   UNL     1      32.560 -22.687 -15.486  0.00  0.00    +0.091 C 
ATOM      3  C   UNL     1      32.417 -23.695 -16.640  0.00  0.00    +0.185 C 
ATOM      4  C   UNL     1      31.251 -24.685 -16.540  0.00  0.00    +0.043 C 
ATOM      5  C   UNL     1      31.292 -22.377 -14.685  0.00  0.00    -0.058 C 
ATOM      6  C   UNL     1      29.870 -24.109 -16.863  0.00  0.00    -0.020 C 
ATOM      7  C   UNL     1      29.303 -23.149 -15.823  0.00  0.00    -0.082 C 
ATOM      8  H   UNL     1      30.506 -21.609 -16.401  0.00  0.00    -0.084 HD
ATOM      9  H   UNL     1      29.599 -21.309 -15.019  0.00  0.00    -0.084 HD
ENDROOT
BRANCH   2  11
ATOM     10  O   UNL     1      35.381 -22.788 -16.002  0.00  0.00    -0.270 OA
ATOM     11  N   UNL     1      33.592 -23.137 -14.570  0.00  0.00    -0.301 N 
ATOM     12  C   UNL     1      34.930 -23.146 -14.918  0.00  0.00    +0.246 C 
ATOM     13  H   UNL     1      33.331 -23.446 -13.673  0.00  0.00    +0.150 HD
BRANCH  12  14
ATOM     14  C   UNL     1      35.858 -23.660 -13.878  0.00  0.00    +0.054 C 
ATOM     15  C   UNL     1      37.198 -23.780 -14.184  0.00  0.00    +0.008 C 
ATOM     16  C   UNL     1      35.352 -24.003 -12.642  0.00  0.00    +0.008 C 
ATOM     17  C   UNL     1      38.071 -24.263 -13.209  0.00  0.00    +0.037 C 
ATOM     18  C   UNL     1      36.225 -24.485 -11.666  0.00  0.00    +0.037 C 
ATOM     19  C   UNL     1      37.584 -24.615 -11.950  0.00  0.00    +0.134 C 
BRANCH  19  20
ATOM     20  O   UNL     1      38.436 -25.084 -10.998  0.00  0.00    -0.506 OA
ATOM     21  H   UNL     1      38.859 -24.486 -10.413  0.00  0.00    +0.292 HD
ENDBRANCH  19  20
ENDBRANCH  12  14
ENDBRANCH   2  11
BRANCH   3  22
ATOM     22  O   UNL     1      32.351 -22.987 -17.882  0.00  0.00    -0.448 OA
BRANCH  22  24
ATOM     23  O   UNL     1      33.563 -24.510 -19.110  0.00  0.00    -0.245 OA
ATOM     24  C   UNL     1      33.255 -23.364 -18.820  0.00  0.00    +0.341 C 
BRANCH  24  25
ATOM     25  C   UNL     1      33.849 -22.171 -19.473  0.00  0.00    +0.076 C 
ATOM     26  C   UNL     1      35.222 -22.034 -19.491  0.00  0.00    +0.007 C 
ATOM     27  C   UNL     1      33.010 -21.235 -20.042  0.00  0.00    +0.007 C 
ATOM     28  C   UNL     1      35.780 -20.912 -20.105  0.00  0.00    +0.003 C 
ATOM     29  C   UNL     1      33.567 -20.113 -20.655  0.00  0.00    +0.003 C 
ATOM     30  C   UNL     1      34.953 -19.952 -20.687  0.00  0.00    +0.039 C 
BRANCH  30  32
ATOM     31  O   UNL     1      36.384 -18.102 -20.731  0.00  0.00    -0.286 OA
ATOM     32  C   UNL     1      35.535 -18.783 -21.326  0.00  0.00    +0.198 C 
BRANCH  32  33
ATOM     33  C   UNL     1      35.147 -18.347 -22.702  0.00  0.00    +0.073 C 
ATOM     34  C   UNL     1      34.961 -17.009 -22.963  0.00  0.00    +0.137 C 
ATOM     35  C   UNL     1      34.993 -19.321 -23.663  0.00  0.00    +0.006 C 
ATOM     36  C   UNL     1      34.600 -16.623 -24.253  0.00  0.00    +0.037 C 
ATOM     37  C   UNL     1      34.633 -18.935 -24.954  0.00  0.00    +0.000 C 
ATOM     38  C   UNL     1      34.436 -17.587 -25.249  0.00  0.00    +0.003 C 
BRANCH  34  39
ATOM     39  O   UNL     1      35.117 -16.053 -22.004  0.00  0.00    -0.505 OA
ATOM     40  H   UNL     1      35.877 -16.058 -21.456  0.00  0.00    +0.292 HD
ENDBRANCH  34  39
ENDBRANCH  32  33
ENDBRANCH  30  32
ENDBRANCH  24  25
ENDBRANCH  22  24
ENDBRANCH   3  22
TORSDOF 9
ENDMDL
MODEL 5
REMARK VINA RESULT:     -11.1      5.375      8.919
REMARK  Name = 10050566
REMARK  9 active torsions:
REMARK  status: ('A' for Active; 'I' for Inactive)
REMARK    1  A    between atoms: C_2  and  N_11
REMARK    2  A    between atoms: C_3  and  O_22
REMARK    3  A    between atoms: C_12  and  C_14
REMARK    4  A    between atoms: C_19  and  O_20
REMARK    5  A    between atoms: O_22  and  C_24
REMARK    6  A    between atoms: C_24  and  C_25
REMARK    7  A    between atoms: C_30  and  C_32
REMARK    8  A    between atoms: C_32  and  C_33
REMARK    9  A    between atoms: C_34  and  O_39
REMARK                            x       y       z     vdW  Elec       q    Type
REMARK                         _______ _______ _______ _____ _____    ______ ____
ROOT
ATOM      1  N   UNL     1      33.866 -18.289 -24.899  0.00  0.00    +0.385 N 
ATOM      2  C   UNL     1      34.149 -18.454 -22.418  0.00  0.00    +0.091 C 
ATOM      3  C   UNL     1      34.735 -17.038 -22.269  0.00  0.00    +0.185 C 
ATOM      4  C   UNL     1      35.871 -16.666 -23.227  0.00  0.00    +0.043 C 
ATOM      5  C   UNL     1      34.317 -19.124 -23.786  0.00  0.00    -0.058 C 
ATOM      6  C   UNL     1      35.443 -16.344 -24.661  0.00  0.00    -0.020 C 
ATOM      7  C   UNL     1      34.975 -17.537 -25.487  0.00  0.00    -0.082 C 
ATOM      8  H   UNL     1      33.164 -17.632 -24.557  0.00  0.00    -0.084 HD
ATOM      9  H   UNL     1      33.475 -18.898 -25.618  0.00  0.00    -0.084 HD
ENDROOT
BRANCH   2  11
ATOM     10  O   UNL     1      32.767 -20.528 -20.997  0.00  0.00    -0.270 OA
ATOM     11  N   UNL     1      34.706 -19.324 -21.400  0.00  0.00    -0.301 N 
ATOM     12  C   UNL     1      33.952 -20.297 -20.773  0.00  0.00    +0.246 C 
ATOM     13  H   UNL     1      35.652 -19.217 -21.148  0.00  0.00    +0.150 HD
BRANCH  12  14
ATOM     14  C   UNL     1      34.663 -21.087 -19.734  0.00  0.00    +0.054 C 
ATOM     15  C   UNL     1      36.028 -20.939 -19.603  0.00  0.00    +0.008 C 
ATOM     16  C   UNL     1      33.936 -21.943 -18.933  0.00  0.00    +0.008 C 
ATOM     17  C   UNL     1      36.696 -21.680 -18.628  0.00  0.00    +0.037 C 
ATOM     18  C   UNL     1      34.603 -22.683 -17.958  0.00  0.00    +0.037 C 
ATOM     19  C   UNL     1      35.983 -22.552 -17.805  0.00  0.00    +0.134 C 
BRANCH  19  20
ATOM     20  O   UNL     1      36.634 -23.273 -16.852  0.00  0.00    -0.506 OA
ATOM     21  H   UNL     1      36.678 -24.207 -16.921  0.00  0.00    +0.292 HD
ENDBRANCH  19  20
ENDBRANCH  12  14
ENDBRANCH   2  11
BRANCH   3  22
ATOM     22  O   UNL     1      33.680 -16.076 -22.365  0.00  0.00    -0.448 OA
BRANCH  22  24
ATOM     23  O   UNL     1      33.599 -15.667 -20.101  0.00  0.00    -0.245 OA
ATOM     24  C   UNL     1      33.485 -15.309 -21.263  0.00  0.00    +0.341 C 
BRANCH  24  25
ATOM     25  C   UNL     1      33.099 -13.931 -21.657  0.00  0.00    +0.076 C 
ATOM     26  C   UNL     1      32.356 -13.170 -20.777  0.00  0.00    +0.007 C 
ATOM     27  C   UNL     1      33.494 -13.453 -22.890  0.00  0.00    +0.007 C 
ATOM     28  C   UNL     1      31.993 -11.874 -21.147  0.00  0.00    +0.003 C 
ATOM     29  C   UNL     1      33.131 -12.159 -23.260  0.00  0.00    +0.003 C 
ATOM     30  C   UNL     1      32.380 -11.368 -22.388  0.00  0.00    +0.039 C 
BRANCH  30  32
ATOM     31  O   UNL     1      30.804  -9.707 -22.863  0.00  0.00    -0.286 OA
ATOM     32  C   UNL     1      32.001 -10.019 -22.774  0.00  0.00    +0.198 C 
BRANCH  32  33
ATOM     33  C   UNL     1      33.011  -8.960 -23.078  0.00  0.00    +0.073 C 
ATOM     34  C   UNL     1      32.757  -7.657 -22.718  0.00  0.00    +0.137 C 
ATOM     35  C   UNL     1      34.170  -9.344 -23.714  0.00  0.00    +0.006 C 
ATOM     36  C   UNL     1      33.712  -6.684 -23.010  0.00  0.00    +0.037 C 
ATOM     37  C   UNL     1      35.125  -8.371 -24.007  0.00  0.00    +0.000 C 
ATOM     38  C   UNL     1      34.896  -7.041 -23.655  0.00  0.00    +0.003 C 
BRANCH  34  39
ATOM     39  O   UNL     1      31.606  -7.288 -22.088  0.00  0.00    -0.505 OA
ATOM     40  H   UNL     1      31.625  -7.036 -21.185  0.00  0.00    +0.292 HD
ENDBRANCH  34  39
ENDBRANCH  32  33
ENDBRANCH  30  32
ENDBRANCH  24  25
ENDBRANCH  22  24
ENDBRANCH   3  22
TORSDOF 9
ENDMDL
MODEL 6
REMARK VINA RESULT:     -11.1      7.294     11.710
REMARK  Name = 10050566
REMARK  9 active torsions:
REMARK  status: ('A' for Active; 'I' for Inactive)
REMARK    1  A    between atoms: C_2  and  N_11
REMARK    2  A    between atoms: C_3  and  O_22
REMARK    3  A    between atoms: C_12  and  C_14
REMARK    4  A    between atoms: C_19  and  O_20
REMARK    5  A    between atoms: O_22  and  C_24
REMARK    6  A    between atoms: C_24  and  C_25
REMARK    7  A    between atoms: C_30  and  C_32
REMARK    8  A    between atoms: C_32  and  C_33
REMARK    9  A    between atoms: C_34  and  O_39
REMARK                            x       y       z     vdW  Elec       q    Type
REMARK                         _______ _______ _______ _____ _____    ______ ____
ROOT
ATOM      1  N   UNL     1      33.126 -14.346 -25.903  0.00  0.00    +0.385 N 
ATOM      2  C   UNL     1      33.403 -15.184 -23.563  0.00  0.00    +0.091 C 
ATOM      3  C   UNL     1      33.621 -13.786 -22.958  0.00  0.00    +0.185 C 
ATOM      4  C   UNL     1      34.646 -12.890 -23.663  0.00  0.00    +0.043 C 
ATOM      5  C   UNL     1      33.752 -15.352 -25.045  0.00  0.00    -0.058 C 
ATOM      6  C   UNL     1      34.173 -12.256 -24.973  0.00  0.00    -0.020 C 
ATOM      7  C   UNL     1      34.025 -13.217 -26.148  0.00  0.00    -0.082 C 
ATOM      8  H   UNL     1      32.279 -14.003 -25.450  0.00  0.00    -0.084 HD
ATOM      9  H   UNL     1      32.907 -14.781 -26.800  0.00  0.00    -0.084 HD
ENDROOT
BRANCH   2  11
ATOM     10  O   UNL     1      34.260 -17.768 -24.470  0.00  0.00    -0.270 OA
ATOM     11  N   UNL     1      34.142 -16.170 -22.796  0.00  0.00    -0.301 N 
ATOM     12  C   UNL     1      34.509 -17.391 -23.328  0.00  0.00    +0.246 C 
ATOM     13  H   UNL     1      34.389 -15.962 -21.866  0.00  0.00    +0.150 HD
BRANCH  12  14
ATOM     14  C   UNL     1      35.238 -18.299 -22.406  0.00  0.00    +0.054 C 
ATOM     15  C   UNL     1      34.541 -19.313 -21.782  0.00  0.00    +0.008 C 
ATOM     16  C   UNL     1      36.587 -18.100 -22.201  0.00  0.00    +0.008 C 
ATOM     17  C   UNL     1      35.224 -20.166 -20.915  0.00  0.00    +0.037 C 
ATOM     18  C   UNL     1      37.271 -18.954 -21.336  0.00  0.00    +0.037 C 
ATOM     19  C   UNL     1      36.589 -19.987 -20.693  0.00  0.00    +0.134 C 
BRANCH  19  20
ATOM     20  O   UNL     1      37.256 -20.821 -19.849  0.00  0.00    -0.506 OA
ATOM     21  H   UNL     1      36.879 -21.644 -19.609  0.00  0.00    +0.292 HD
ENDBRANCH  19  20
ENDBRANCH  12  14
ENDBRANCH   2  11
BRANCH   3  22
ATOM     22  O   UNL     1      32.364 -13.110 -22.863  0.00  0.00    -0.448 OA
BRANCH  22  24
ATOM     23  O   UNL     1      31.969 -12.937 -20.603  0.00  0.00    -0.245 OA
ATOM     24  C   UNL     1      32.145 -12.440 -21.704  0.00  0.00    +0.341 C 
BRANCH  24  25
ATOM     25  C   UNL     1      32.142 -10.976 -21.947  0.00  0.00    +0.076 C 
ATOM     26  C   UNL     1      31.993 -10.514 -23.239  0.00  0.00    +0.007 C 
ATOM     27  C   UNL     1      32.291 -10.121 -20.874  0.00  0.00    +0.007 C 
ATOM     28  C   UNL     1      31.992  -9.138 -23.467  0.00  0.00    +0.003 C 
ATOM     29  C   UNL     1      32.289  -8.746 -21.102  0.00  0.00    +0.003 C 
ATOM     30  C   UNL     1      32.140  -8.253 -22.399  0.00  0.00    +0.039 C 
BRANCH  30  32
ATOM     31  O   UNL     1      31.567  -6.054 -21.846  0.00  0.00    -0.286 OA
ATOM     32  C   UNL     1      32.139  -6.819 -22.637  0.00  0.00    +0.198 C 
BRANCH  32  33
ATOM     33  C   UNL     1      32.811  -6.204 -23.822  0.00  0.00    +0.073 C 
ATOM     34  C   UNL     1      32.132  -5.282 -24.585  0.00  0.00    +0.137 C 
ATOM     35  C   UNL     1      34.102  -6.592 -24.099  0.00  0.00    +0.006 C 
ATOM     36  C   UNL     1      32.777  -4.720 -25.685  0.00  0.00    +0.037 C 
ATOM     37  C   UNL     1      34.748  -6.030 -25.200  0.00  0.00    +0.000 C 
ATOM     38  C   UNL     1      34.085  -5.094 -25.993  0.00  0.00    +0.003 C 
BRANCH  34  39
ATOM     39  O   UNL     1      30.853  -4.904 -24.301  0.00  0.00    -0.505 OA
ATOM     40  H   UNL     1      30.600  -4.737 -23.414  0.00  0.00    +0.292 HD
ENDBRANCH  34  39
ENDBRANCH  32  33
ENDBRANCH  30  32
ENDBRANCH  24  25
ENDBRANCH  22  24
ENDBRANCH   3  22
TORSDOF 9
ENDMDL
MODEL 7
REMARK VINA RESULT:     -11.0      9.949     16.041
REMARK  Name = 10050566
REMARK  9 active torsions:
REMARK  status: ('A' for Active; 'I' for Inactive)
REMARK    1  A    between atoms: C_2  and  N_11
REMARK    2  A    between atoms: C_3  and  O_22
REMARK    3  A    between atoms: C_12  and  C_14
REMARK    4  A    between atoms: C_19  and  O_20
REMARK    5  A    between atoms: O_22  and  C_24
REMARK    6  A    between atoms: C_24  and  C_25
REMARK    7  A    between atoms: C_30  and  C_32
REMARK    8  A    between atoms: C_32  and  C_33
REMARK    9  A    between atoms: C_34  and  O_39
REMARK                            x       y       z     vdW  Elec       q    Type
REMARK                         _______ _______ _______ _____ _____    ______ ____
ROOT
ATOM      1  N   UNL     1      30.837  -5.702 -20.864  0.00  0.00    +0.385 N 
ATOM      2  C   UNL     1      32.023  -6.656 -22.849  0.00  0.00    +0.091 C 
ATOM      3  C   UNL     1      32.583  -7.869 -22.085  0.00  0.00    +0.185 C 
ATOM      4  C   UNL     1      33.274  -7.573 -20.749  0.00  0.00    +0.043 C 
ATOM      5  C   UNL     1      31.691  -5.414 -22.016  0.00  0.00    -0.058 C 
ATOM      6  C   UNL     1      32.336  -7.262 -19.580  0.00  0.00    -0.020 C 
ATOM      7  C   UNL     1      31.628  -5.913 -19.651  0.00  0.00    -0.082 C 
ATOM      8  H   UNL     1      30.293  -6.544 -21.056  0.00  0.00    -0.084 HD
ATOM      9  H   UNL     1      30.224  -4.901 -20.711  0.00  0.00    -0.084 HD
ENDROOT
BRANCH   2  11
ATOM     10  O   UNL     1      31.494  -4.839 -25.006  0.00  0.00    -0.270 OA
ATOM     11  N   UNL     1      32.941  -6.277 -23.906  0.00  0.00    -0.301 N 
ATOM     12  C   UNL     1      32.587  -5.389 -24.904  0.00  0.00    +0.246 C 
ATOM     13  H   UNL     1      33.846  -6.666 -23.913  0.00  0.00    +0.150 HD
BRANCH  12  14
ATOM     14  C   UNL     1      33.631  -5.125 -25.927  0.00  0.00    +0.054 C 
ATOM     15  C   UNL     1      34.881  -5.687 -25.763  0.00  0.00    +0.008 C 
ATOM     16  C   UNL     1      33.320  -4.327 -27.008  0.00  0.00    +0.008 C 
ATOM     17  C   UNL     1      35.861  -5.440 -26.724  0.00  0.00    +0.037 C 
ATOM     18  C   UNL     1      34.300  -4.081 -27.969  0.00  0.00    +0.037 C 
ATOM     19  C   UNL     1      35.571  -4.638 -27.826  0.00  0.00    +0.134 C 
BRANCH  19  20
ATOM     20  O   UNL     1      36.527  -4.398 -28.765  0.00  0.00    -0.506 OA
ATOM     21  H   UNL     1      36.327  -4.504 -29.674  0.00  0.00    +0.292 HD
ENDBRANCH  19  20
ENDBRANCH  12  14
ENDBRANCH   2  11
BRANCH   3  22
ATOM     22  O   UNL     1      31.542  -8.832 -21.894  0.00  0.00    -0.448 OA
BRANCH  22  24
ATOM     23  O   UNL     1      31.877 -10.193 -20.069  0.00  0.00    -0.245 OA
ATOM     24  C   UNL     1      31.911  -9.978 -21.271  0.00  0.00    +0.341 C 
BRANCH  24  25
ATOM     25  C   UNL     1      32.382 -10.976 -22.263  0.00  0.00    +0.076 C 
ATOM     26  C   UNL     1      33.215 -10.561 -23.283  0.00  0.00    +0.007 C 
ATOM     27  C   UNL     1      31.972 -12.288 -22.137  0.00  0.00    +0.007 C 
ATOM     28  C   UNL     1      33.656 -11.500 -24.216  0.00  0.00    +0.003 C 
ATOM     29  C   UNL     1      32.413 -13.225 -23.070  0.00  0.00    +0.003 C 
ATOM     30  C   UNL     1      33.256 -12.832 -24.110  0.00  0.00    +0.039 C 
BRANCH  30  32
ATOM     31  O   UNL     1      33.719 -13.534 -26.292  0.00  0.00    -0.286 OA
ATOM     32  C   UNL     1      33.716 -13.809 -25.083  0.00  0.00    +0.198 C 
BRANCH  32  33
ATOM     33  C   UNL     1      34.197 -15.167 -24.687  0.00  0.00    +0.073 C 
ATOM     34  C   UNL     1      33.875 -16.255 -25.466  0.00  0.00    +0.137 C 
ATOM     35  C   UNL     1      34.955 -15.270 -23.542  0.00  0.00    +0.006 C 
ATOM     36  C   UNL     1      34.334 -17.513 -25.079  0.00  0.00    +0.037 C 
ATOM     37  C   UNL     1      35.415 -16.529 -23.155  0.00  0.00    +0.000 C 
ATOM     38  C   UNL     1      35.104 -17.650 -23.923  0.00  0.00    +0.003 C 
BRANCH  34  39
ATOM     39  O   UNL     1      33.124 -16.142 -26.597  0.00  0.00    -0.505 OA
ATOM     40  H   UNL     1      32.478 -15.466 -26.666  0.00  0.00    +0.292 HD
ENDBRANCH  34  39
ENDBRANCH  32  33
ENDBRANCH  30  32
ENDBRANCH  24  25
ENDBRANCH  22  24
ENDBRANCH   3  22
TORSDOF 9
ENDMDL
MODEL 8
REMARK VINA RESULT:     -10.6      9.257     16.074
REMARK  Name = 10050566
REMARK  9 active torsions:
REMARK  status: ('A' for Active; 'I' for Inactive)
REMARK    1  A    between atoms: C_2  and  N_11
REMARK    2  A    between atoms: C_3  and  O_22
REMARK    3  A    between atoms: C_12  and  C_14
REMARK    4  A    between atoms: C_19  and  O_20
REMARK    5  A    between atoms: O_22  and  C_24
REMARK    6  A    between atoms: C_24  and  C_25
REMARK    7  A    between atoms: C_30  and  C_32
REMARK    8  A    between atoms: C_32  and  C_33
REMARK    9  A    between atoms: C_34  and  O_39
REMARK                            x       y       z     vdW  Elec       q    Type
REMARK                         _______ _______ _______ _____ _____    ______ ____
ROOT
ATOM      1  N   UNL     1      31.146  -5.631 -20.644  0.00  0.00    +0.385 N 
ATOM      2  C   UNL     1      32.232  -6.516 -22.716  0.00  0.00    +0.091 C 
ATOM      3  C   UNL     1      32.882  -7.719 -22.008  0.00  0.00    +0.185 C 
ATOM      4  C   UNL     1      33.646  -7.418 -20.714  0.00  0.00    +0.043 C 
ATOM      5  C   UNL     1      31.914  -5.298 -21.843  0.00  0.00    -0.058 C 
ATOM      6  C   UNL     1      32.776  -7.155 -19.483  0.00  0.00    -0.020 C 
ATOM      7  C   UNL     1      32.020  -5.831 -19.487  0.00  0.00    -0.082 C 
ATOM      8  H   UNL     1      30.620  -6.488 -20.814  0.00  0.00    -0.084 HD
ATOM      9  H   UNL     1      30.518  -4.854 -20.439  0.00  0.00    -0.084 HD
ENDROOT
BRANCH   2  11
ATOM     10  O   UNL     1      31.400  -4.994 -25.001  0.00  0.00    -0.270 OA
ATOM     11  N   UNL     1      33.068  -6.092 -23.823  0.00  0.00    -0.301 N 
ATOM     12  C   UNL     1      32.567  -5.357 -24.881  0.00  0.00    +0.246 C 
ATOM     13  H   UNL     1      34.022  -6.334 -23.821  0.00  0.00    +0.150 HD
BRANCH  12  14
ATOM     14  C   UNL     1      33.545  -5.024 -25.949  0.00  0.00    +0.054 C 
ATOM     15  C   UNL     1      34.826  -5.530 -25.861  0.00  0.00    +0.008 C 
ATOM     16  C   UNL     1      33.143  -4.218 -26.994  0.00  0.00    +0.008 C 
ATOM     17  C   UNL     1      35.744  -5.217 -26.862  0.00  0.00    +0.037 C 
ATOM     18  C   UNL     1      34.061  -3.906 -27.997  0.00  0.00    +0.037 C 
ATOM     19  C   UNL     1      35.362  -4.406 -27.930  0.00  0.00    +0.134 C 
BRANCH  19  20
ATOM     20  O   UNL     1      36.257  -4.102 -28.909  0.00  0.00    -0.506 OA
ATOM     21  H   UNL     1      36.746  -3.304 -28.865  0.00  0.00    +0.292 HD
ENDBRANCH  19  20
ENDBRANCH  12  14
ENDBRANCH   2  11
BRANCH   3  22
ATOM     22  O   UNL     1      31.888  -8.720 -21.767  0.00  0.00    -0.448 OA
BRANCH  22  24
ATOM     23  O   UNL     1      30.958  -9.216 -23.812  0.00  0.00    -0.245 OA
ATOM     24  C   UNL     1      31.599  -9.524 -22.820  0.00  0.00    +0.341 C 
BRANCH  24  25
ATOM     25  C   UNL     1      32.176 -10.875 -22.610  0.00  0.00    +0.076 C 
ATOM     26  C   UNL     1      33.150 -11.327 -23.479  0.00  0.00    +0.007 C 
ATOM     27  C   UNL     1      31.722 -11.639 -21.555  0.00  0.00    +0.007 C 
ATOM     28  C   UNL     1      33.692 -12.597 -23.282  0.00  0.00    +0.003 C 
ATOM     29  C   UNL     1      32.263 -12.909 -21.358  0.00  0.00    +0.003 C 
ATOM     30  C   UNL     1      33.249 -13.389 -22.222  0.00  0.00    +0.039 C 
BRANCH  30  32
ATOM     31  O   UNL     1      34.013 -15.137 -20.870  0.00  0.00    -0.286 OA
ATOM     32  C   UNL     1      33.814 -14.713 -22.018  0.00  0.00    +0.198 C 
BRANCH  32  33
ATOM     33  C   UNL     1      34.177 -15.612 -23.155  0.00  0.00    +0.073 C 
ATOM     34  C   UNL     1      34.943 -16.731 -22.918  0.00  0.00    +0.137 C 
ATOM     35  C   UNL     1      33.721 -15.275 -24.410  0.00  0.00    +0.006 C 
ATOM     36  C   UNL     1      35.270 -17.556 -23.992  0.00  0.00    +0.037 C 
ATOM     37  C   UNL     1      34.048 -16.102 -25.484  0.00  0.00    +0.000 C 
ATOM     38  C   UNL     1      34.823 -17.242 -25.276  0.00  0.00    +0.003 C 
BRANCH  34  39
ATOM     39  O   UNL     1      35.389 -17.054 -21.672  0.00  0.00    -0.505 OA
ATOM     40  H   UNL     1      34.786 -17.105 -20.956  0.00  0.00    +0.292 HD
ENDBRANCH  34  39
ENDBRANCH  32  33
ENDBRANCH  30  32
ENDBRANCH  24  25
ENDBRANCH  22  24
ENDBRANCH   3  22
TORSDOF 9
ENDMDL
MODEL 9
REMARK VINA RESULT:     -10.4      3.797     10.747
REMARK  Name = 10050566
REMARK  9 active torsions:
REMARK  status: ('A' for Active; 'I' for Inactive)
REMARK    1  A    between atoms: C_2  and  N_11
REMARK    2  A    between atoms: C_3  and  O_22
REMARK    3  A    between atoms: C_12  and  C_14
REMARK    4  A    between atoms: C_19  and  O_20
REMARK    5  A    between atoms: O_22  and  C_24
REMARK    6  A    between atoms: C_24  and  C_25
REMARK    7  A    between atoms: C_30  and  C_32
REMARK    8  A    between atoms: C_32  and  C_33
REMARK    9  A    between atoms: C_34  and  O_39
REMARK                            x       y       z     vdW  Elec       q    Type
REMARK                         _______ _______ _______ _____ _____    ______ ____
ROOT
ATOM      1  N   UNL     1      35.524 -17.795 -25.397  0.00  0.00    +0.385 N 
ATOM      2  C   UNL     1      35.310 -16.684 -23.166  0.00  0.00    +0.091 C 
ATOM      3  C   UNL     1      35.084 -17.998 -22.397  0.00  0.00    +0.185 C 
ATOM      4  C   UNL     1      34.031 -18.952 -22.972  0.00  0.00    +0.043 C 
ATOM      5  C   UNL     1      34.932 -16.685 -24.651  0.00  0.00    -0.058 C 
ATOM      6  C   UNL     1      34.466 -19.743 -24.208  0.00  0.00    -0.020 C 
ATOM      7  C   UNL     1      34.604 -18.929 -25.490  0.00  0.00    -0.082 C 
ATOM      8  H   UNL     1      36.376 -18.098 -24.923  0.00  0.00    -0.084 HD
ATOM      9  H   UNL     1      35.730 -17.472 -26.342  0.00  0.00    -0.084 HD
ENDROOT
BRANCH   2  11
ATOM     10  O   UNL     1      33.412 -14.897 -24.365  0.00  0.00    -0.270 OA
ATOM     11  N   UNL     1      34.603 -15.603 -22.506  0.00  0.00    -0.301 N 
ATOM     12  C   UNL     1      33.704 -14.796 -23.176  0.00  0.00    +0.246 C 
ATOM     13  H   UNL     1      34.769 -15.439 -21.549  0.00  0.00    +0.150 HD
BRANCH  12  14
ATOM     14  C   UNL     1      33.083 -13.716 -22.365  0.00  0.00    +0.054 C 
ATOM     15  C   UNL     1      32.700 -12.549 -22.993  0.00  0.00    +0.008 C 
ATOM     16  C   UNL     1      32.911 -13.914 -21.011  0.00  0.00    +0.008 C 
ATOM     17  C   UNL     1      32.117 -11.536 -22.233  0.00  0.00    +0.037 C 
ATOM     18  C   UNL     1      32.327 -12.902 -20.251  0.00  0.00    +0.037 C 
ATOM     19  C   UNL     1      31.930 -11.712 -20.862  0.00  0.00    +0.134 C 
BRANCH  19  20
ATOM     20  O   UNL     1      31.360 -10.724 -20.120  0.00  0.00    -0.506 OA
ATOM     21  H   UNL     1      31.880 -10.235 -19.512  0.00  0.00    +0.292 HD
ENDBRANCH  19  20
ENDBRANCH  12  14
ENDBRANCH   2  11
BRANCH   3  22
ATOM     22  O   UNL     1      36.333 -18.681 -22.248  0.00  0.00    -0.448 OA
BRANCH  22  24
ATOM     23  O   UNL     1      37.576 -18.259 -20.358  0.00  0.00    -0.245 OA
ATOM     24  C   UNL     1      36.734 -18.896 -20.971  0.00  0.00    +0.341 C 
BRANCH  24  25
ATOM     25  C   UNL     1      35.998 -20.046 -20.386  0.00  0.00    +0.076 C 
ATOM     26  C   UNL     1      34.638 -20.144 -20.598  0.00  0.00    +0.007 C 
ATOM     27  C   UNL     1      36.696 -20.980 -19.649  0.00  0.00    +0.007 C 
ATOM     28  C   UNL     1      33.946 -21.223 -20.048  0.00  0.00    +0.003 C 
ATOM     29  C   UNL     1      36.005 -22.059 -19.100  0.00  0.00    +0.003 C 
ATOM     30  C   UNL     1      34.629 -22.181 -19.299  0.00  0.00    +0.039 C 
BRANCH  30  32
ATOM     31  O   UNL     1      33.762 -24.352 -19.376  0.00  0.00    -0.286 OA
ATOM     32  C   UNL     1      33.909 -23.306 -18.725  0.00  0.00    +0.198 C 
BRANCH  32  33
ATOM     33  C   UNL     1      33.319 -23.263 -17.353  0.00  0.00    +0.073 C 
ATOM     34  C   UNL     1      34.098 -23.592 -16.268  0.00  0.00    +0.137 C 
ATOM     35  C   UNL     1      31.999 -22.887 -17.234  0.00  0.00    +0.006 C 
ATOM     36  C   UNL     1      33.529 -23.545 -14.997  0.00  0.00    +0.037 C 
ATOM     37  C   UNL     1      31.429 -22.840 -15.962  0.00  0.00    +0.000 C 
ATOM     38  C   UNL     1      32.194 -23.169 -14.844  0.00  0.00    +0.003 C 
BRANCH  34  39
ATOM     39  O   UNL     1      35.403 -23.963 -16.397  0.00  0.00    -0.505 OA
ATOM     40  H   UNL     1      35.673 -24.487 -17.127  0.00  0.00    +0.292 HD
ENDBRANCH  34  39
ENDBRANCH  32  33
ENDBRANCH  30  32
ENDBRANCH  24  25
ENDBRANCH  22  24
ENDBRANCH   3  22
TORSDOF 9
ENDMDL
