MODEL 1
REMARK VINA RESULT:     -13.0      0.000      0.000
REMARK  Name = 9924495
REMARK  4 active torsions:
REMARK  status: ('A' for Active; 'I' for Inactive)
REMARK    1  A    between atoms: N_2  and  C_22
REMARK    2  A    between atoms: C_3  and  C_14
REMARK    3  A    between atoms: C_4  and  C_9
REMARK    4  A    between atoms: C_15  and  C_21
REMARK                            x       y       z     vdW  Elec       q    Type
REMARK                         _______ _______ _______ _____ _____    ______ ____
ROOT
ATOM      1  O   UNL     1      36.917 -23.005 -16.615  0.00  0.00    -0.269 OA
ATOM      2  N   UNL     1      34.656 -22.784 -17.240  0.00  0.00    -0.233 N 
ATOM      3  C   UNL     1      35.334 -23.870 -15.107  0.00  0.00    +0.055 C 
ATOM      4  C   UNL     1      33.006 -23.832 -15.829  0.00  0.00    +0.033 C 
ATOM      5  C   UNL     1      35.717 -23.161 -16.381  0.00  0.00    +0.257 C 
ATOM      6  C   UNL     1      34.047 -24.177 -14.888  0.00  0.00    +0.007 C 
ATOM      7  C   UNL     1      33.345 -23.151 -16.936  0.00  0.00    +0.074 C 
ENDROOT
BRANCH   4   9
ATOM      8  N   UNL     1      31.338 -25.135 -14.705  0.00  0.00    -0.244 NA
ATOM      9  C   UNL     1      31.584 -24.154 -15.600  0.00  0.00    +0.083 C 
ATOM     10  C   UNL     1      30.601 -23.465 -16.289  0.00  0.00    +0.019 C 
ATOM     11  C   UNL     1      29.275 -23.805 -16.041  0.00  0.00    +0.003 C 
ATOM     12  C   UNL     1      30.037 -25.438 -14.490  0.00  0.00    +0.099 C 
ATOM     13  C   UNL     1      28.980 -24.808 -15.126  0.00  0.00    +0.021 C 
ENDBRANCH   4   9
BRANCH   3  14
ATOM     14  C   UNL     1      36.351 -24.227 -14.102  0.00  0.00    +0.014 C 
ATOM     15  C   UNL     1      37.058 -25.427 -14.161  0.00  0.00    +0.069 C 
ATOM     16  C   UNL     1      36.599 -23.321 -13.070  0.00  0.00    +0.001 C 
ATOM     17  C   UNL     1      38.012 -25.724 -13.187  0.00  0.00    +0.010 C 
ATOM     18  C   UNL     1      37.553 -23.617 -12.096  0.00  0.00    +0.000 C 
ATOM     19  C   UNL     1      38.260 -24.818 -12.155  0.00  0.00    +0.001 C 
BRANCH  15  21
ATOM     20  N   UNL     1      36.649 -27.151 -16.051  0.00  0.00    -0.191 NA
ATOM     21  C   UNL     1      36.831 -26.381 -15.206  0.00  0.00    +0.100 C 
ENDBRANCH  15  21
ENDBRANCH   3  14
BRANCH   2  22
ATOM     22  C   UNL     1      34.944 -22.040 -18.451  0.00  0.00    +0.058 C 
ATOM     23  C   UNL     1      36.262 -21.757 -18.788  0.00  0.00    +0.015 C 
ATOM     24  C   UNL     1      33.898 -21.618 -19.264  0.00  0.00    +0.015 C 
ATOM     25  C   UNL     1      36.539 -21.042 -19.953  0.00  0.00    +0.001 C 
ATOM     26  C   UNL     1      34.175 -20.904 -20.430  0.00  0.00    +0.001 C 
ATOM     27  C   UNL     1      35.495 -20.616 -20.774  0.00  0.00    +0.000 C 
ENDBRANCH   2  22
TORSDOF 4
ENDMDL
MODEL 2
REMARK VINA RESULT:     -12.8      1.223      5.162
REMARK  Name = 9924495
REMARK  4 active torsions:
REMARK  status: ('A' for Active; 'I' for Inactive)
REMARK    1  A    between atoms: N_2  and  C_22
REMARK    2  A    between atoms: C_3  and  C_14
REMARK    3  A    between atoms: C_4  and  C_9
REMARK    4  A    between atoms: C_15  and  C_21
REMARK                            x       y       z     vdW  Elec       q    Type
REMARK                         _______ _______ _______ _____ _____    ______ ____
ROOT
ATOM      1  O   UNL     1      33.255 -24.632 -13.568  0.00  0.00    -0.269 OA
ATOM      2  N   UNL     1      32.701 -23.808 -15.706  0.00  0.00    -0.233 N 
ATOM      3  C   UNL     1      35.052 -23.907 -14.899  0.00  0.00    +0.055 C 
ATOM      4  C   UNL     1      34.483 -22.866 -17.028  0.00  0.00    +0.033 C 
ATOM      5  C   UNL     1      33.587 -24.171 -14.662  0.00  0.00    +0.257 C 
ATOM      6  C   UNL     1      35.434 -23.281 -16.022  0.00  0.00    +0.007 C 
ATOM      7  C   UNL     1      33.185 -23.153 -16.838  0.00  0.00    +0.074 C 
ENDROOT
BRANCH   4   9
ATOM      8  N   UNL     1      36.215 -22.024 -18.456  0.00  0.00    -0.244 NA
ATOM      9  C   UNL     1      34.885 -22.184 -18.274  0.00  0.00    +0.083 C 
ATOM     10  C   UNL     1      33.920 -21.752 -19.167  0.00  0.00    +0.019 C 
ATOM     11  C   UNL     1      34.348 -21.113 -20.327  0.00  0.00    +0.003 C 
ATOM     12  C   UNL     1      36.592 -21.399 -19.594  0.00  0.00    +0.099 C 
ATOM     13  C   UNL     1      35.707 -20.930 -20.551  0.00  0.00    +0.021 C 
ENDBRANCH   4   9
BRANCH   3  14
ATOM     14  C   UNL     1      36.067 -24.328 -13.917  0.00  0.00    +0.014 C 
ATOM     15  C   UNL     1      36.777 -25.520 -14.053  0.00  0.00    +0.069 C 
ATOM     16  C   UNL     1      36.310 -23.493 -12.825  0.00  0.00    +0.001 C 
ATOM     17  C   UNL     1      37.728 -25.880 -13.099  0.00  0.00    +0.010 C 
ATOM     18  C   UNL     1      37.262 -23.852 -11.870  0.00  0.00    +0.000 C 
ATOM     19  C   UNL     1      37.971 -25.045 -12.008  0.00  0.00    +0.001 C 
BRANCH  15  21
ATOM     20  N   UNL     1      36.377 -27.116 -16.054  0.00  0.00    -0.191 NA
ATOM     21  C   UNL     1      36.555 -26.402 -15.160  0.00  0.00    +0.100 C 
ENDBRANCH  15  21
ENDBRANCH   3  14
BRANCH   2  22
ATOM     22  C   UNL     1      31.285 -24.093 -15.575  0.00  0.00    +0.058 C 
ATOM     23  C   UNL     1      30.874 -25.299 -15.021  0.00  0.00    +0.015 C 
ATOM     24  C   UNL     1      30.353 -23.155 -16.004  0.00  0.00    +0.015 C 
ATOM     25  C   UNL     1      29.512 -25.572 -14.896  0.00  0.00    +0.001 C 
ATOM     26  C   UNL     1      28.991 -23.428 -15.878  0.00  0.00    +0.001 C 
ATOM     27  C   UNL     1      28.571 -24.637 -15.324  0.00  0.00    +0.000 C 
ENDBRANCH   2  22
TORSDOF 4
ENDMDL
MODEL 3
REMARK VINA RESULT:     -10.4      1.262      1.909
REMARK  Name = 9924495
REMARK  4 active torsions:
REMARK  status: ('A' for Active; 'I' for Inactive)
REMARK    1  A    between atoms: N_2  and  C_22
REMARK    2  A    between atoms: C_3  and  C_14
REMARK    3  A    between atoms: C_4  and  C_9
REMARK    4  A    between atoms: C_15  and  C_21
REMARK                            x       y       z     vdW  Elec       q    Type
REMARK                         _______ _______ _______ _____ _____    ______ ____
ROOT
ATOM      1  O   UNL     1      37.189 -23.000 -16.997  0.00  0.00    -0.269 OA
ATOM      2  N   UNL     1      34.870 -22.761 -17.346  0.00  0.00    -0.233 N 
ATOM      3  C   UNL     1      35.790 -23.962 -15.371  0.00  0.00    +0.055 C 
ATOM      4  C   UNL     1      33.395 -23.900 -15.819  0.00  0.00    +0.033 C 
ATOM      5  C   UNL     1      36.024 -23.178 -16.638  0.00  0.00    +0.257 C 
ATOM      6  C   UNL     1      34.536 -24.291 -15.024  0.00  0.00    +0.007 C 
ATOM      7  C   UNL     1      33.604 -23.155 -16.917  0.00  0.00    +0.074 C 
ENDROOT
BRANCH   4   9
ATOM      8  N   UNL     1      31.047 -23.823 -16.299  0.00  0.00    -0.244 NA
ATOM      9  C   UNL     1      32.008 -24.246 -15.448  0.00  0.00    +0.083 C 
ATOM     10  C   UNL     1      31.761 -24.958 -14.287  0.00  0.00    +0.019 C 
ATOM     11  C   UNL     1      30.438 -25.259 -13.979  0.00  0.00    +0.003 C 
ATOM     12  C   UNL     1      29.774 -24.133 -15.966  0.00  0.00    +0.099 C 
ATOM     13  C   UNL     1      29.420 -24.842 -14.829  0.00  0.00    +0.021 C 
ENDBRANCH   4   9
BRANCH   3  14
ATOM     14  C   UNL     1      36.916 -24.368 -14.511  0.00  0.00    +0.014 C 
ATOM     15  C   UNL     1      36.818 -24.373 -13.121  0.00  0.00    +0.069 C 
ATOM     16  C   UNL     1      38.106 -24.755 -15.128  0.00  0.00    +0.001 C 
ATOM     17  C   UNL     1      37.909 -24.763 -12.345  0.00  0.00    +0.010 C 
ATOM     18  C   UNL     1      39.198 -25.146 -14.353  0.00  0.00    +0.000 C 
ATOM     19  C   UNL     1      39.099 -25.151 -12.962  0.00  0.00    +0.001 C 
BRANCH  15  21
ATOM     20  N   UNL     1      34.639 -23.664 -11.911  0.00  0.00    -0.191 NA
ATOM     21  C   UNL     1      35.612 -23.982 -12.452  0.00  0.00    +0.100 C 
ENDBRANCH  15  21
ENDBRANCH   3  14
BRANCH   2  22
ATOM     22  C   UNL     1      35.018 -21.947 -18.538  0.00  0.00    +0.058 C 
ATOM     23  C   UNL     1      36.283 -21.538 -18.940  0.00  0.00    +0.015 C 
ATOM     24  C   UNL     1      33.890 -21.585 -19.267  0.00  0.00    +0.015 C 
ATOM     25  C   UNL     1      36.424 -20.756 -20.086  0.00  0.00    +0.001 C 
ATOM     26  C   UNL     1      34.031 -20.803 -20.413  0.00  0.00    +0.001 C 
ATOM     27  C   UNL     1      35.298 -20.388 -20.823  0.00  0.00    +0.000 C 
ENDBRANCH   2  22
TORSDOF 4
ENDMDL
MODEL 4
REMARK VINA RESULT:     -10.4      1.925      5.564
REMARK  Name = 9924495
REMARK  4 active torsions:
REMARK  status: ('A' for Active; 'I' for Inactive)
REMARK    1  A    between atoms: N_2  and  C_22
REMARK    2  A    between atoms: C_3  and  C_14
REMARK    3  A    between atoms: C_4  and  C_9
REMARK    4  A    between atoms: C_15  and  C_21
REMARK                            x       y       z     vdW  Elec       q    Type
REMARK                         _______ _______ _______ _____ _____    ______ ____
ROOT
ATOM      1  O   UNL     1      33.412 -24.697 -14.629  0.00  0.00    -0.269 OA
ATOM      2  N   UNL     1      32.454 -23.578 -16.468  0.00  0.00    -0.233 N 
ATOM      3  C   UNL     1      34.916 -23.805 -16.200  0.00  0.00    +0.055 C 
ATOM      4  C   UNL     1      33.952 -22.473 -17.999  0.00  0.00    +0.033 C 
ATOM      5  C   UNL     1      33.525 -24.090 -15.695  0.00  0.00    +0.257 C 
ATOM      6  C   UNL     1      35.077 -23.031 -17.284  0.00  0.00    +0.007 C 
ATOM      7  C   UNL     1      32.713 -22.775 -17.579  0.00  0.00    +0.074 C 
ENDROOT
BRANCH   4   9
ATOM      8  N   UNL     1      32.966 -21.150 -19.737  0.00  0.00    -0.244 NA
ATOM      9  C   UNL     1      34.109 -21.627 -19.198  0.00  0.00    +0.083 C 
ATOM     10  C   UNL     1      35.373 -21.370 -19.702  0.00  0.00    +0.019 C 
ATOM     11  C   UNL     1      35.470 -20.568 -20.834  0.00  0.00    +0.003 C 
ATOM     12  C   UNL     1      33.100 -20.375 -20.837  0.00  0.00    +0.099 C 
ATOM     13  C   UNL     1      34.317 -20.057 -21.418  0.00  0.00    +0.021 C 
ENDBRANCH   4   9
BRANCH   3  14
ATOM     14  C   UNL     1      36.099 -24.366 -15.522  0.00  0.00    +0.014 C 
ATOM     15  C   UNL     1      37.308 -23.676 -15.455  0.00  0.00    +0.069 C 
ATOM     16  C   UNL     1      35.982 -25.627 -14.937  0.00  0.00    +0.001 C 
ATOM     17  C   UNL     1      38.402 -24.245 -14.804  0.00  0.00    +0.010 C 
ATOM     18  C   UNL     1      37.076 -26.197 -14.285  0.00  0.00    +0.000 C 
ATOM     19  C   UNL     1      38.286 -25.506 -14.218  0.00  0.00    +0.001 C 
BRANCH  15  21
ATOM     20  N   UNL     1      37.591 -21.331 -16.520  0.00  0.00    -0.191 NA
ATOM     21  C   UNL     1      37.465 -22.379 -16.044  0.00  0.00    +0.100 C 
ENDBRANCH  15  21
ENDBRANCH   3  14
BRANCH   2  22
ATOM     22  C   UNL     1      31.087 -23.869 -16.079  0.00  0.00    +0.058 C 
ATOM     23  C   UNL     1      30.070 -22.989 -16.427  0.00  0.00    +0.015 C 
ATOM     24  C   UNL     1      30.808 -25.028 -15.364  0.00  0.00    +0.015 C 
ATOM     25  C   UNL     1      28.756 -23.269 -16.054  0.00  0.00    +0.001 C 
ATOM     26  C   UNL     1      29.494 -25.309 -14.991  0.00  0.00    +0.001 C 
ATOM     27  C   UNL     1      28.468 -24.429 -15.335  0.00  0.00    +0.000 C 
ENDBRANCH   2  22
TORSDOF 4
ENDMDL
MODEL 5
REMARK VINA RESULT:     -10.3      1.724      6.282
REMARK  Name = 9924495
REMARK  4 active torsions:
REMARK  status: ('A' for Active; 'I' for Inactive)
REMARK    1  A    between atoms: N_2  and  C_22
REMARK    2  A    between atoms: C_3  and  C_14
REMARK    3  A    between atoms: C_4  and  C_9
REMARK    4  A    between atoms: C_15  and  C_21
REMARK                            x       y       z     vdW  Elec       q    Type
REMARK                         _______ _______ _______ _____ _____    ______ ____
ROOT
ATOM      1  O   UNL     1      32.212 -22.592 -18.283  0.00  0.00    -0.269 OA
ATOM      2  N   UNL     1      32.368 -23.609 -16.163  0.00  0.00    -0.233 N 
ATOM      3  C   UNL     1      34.372 -22.768 -17.373  0.00  0.00    +0.055 C 
ATOM      4  C   UNL     1      34.576 -23.996 -15.277  0.00  0.00    +0.033 C 
ATOM      5  C   UNL     1      32.878 -22.960 -17.314  0.00  0.00    +0.257 C 
ATOM      6  C   UNL     1      35.139 -23.279 -16.398  0.00  0.00    +0.007 C 
ATOM      7  C   UNL     1      33.240 -24.116 -15.200  0.00  0.00    +0.074 C 
ENDROOT
BRANCH   4   9
ATOM      8  N   UNL     1      35.000 -24.270 -12.934  0.00  0.00    -0.244 NA
ATOM      9  C   UNL     1      35.403 -24.557 -14.191  0.00  0.00    +0.083 C 
ATOM     10  C   UNL     1      36.516 -25.322 -14.496  0.00  0.00    +0.019 C 
ATOM     11  C   UNL     1      37.265 -25.829 -13.439  0.00  0.00    +0.003 C 
ATOM     12  C   UNL     1      35.753 -24.779 -11.933  0.00  0.00    +0.099 C 
ATOM     13  C   UNL     1      36.883 -25.557 -12.131  0.00  0.00    +0.021 C 
ENDBRANCH   4   9
BRANCH   3  14
ATOM     14  C   UNL     1      34.998 -22.026 -18.482  0.00  0.00    +0.014 C 
ATOM     15  C   UNL     1      36.356 -21.708 -18.483  0.00  0.00    +0.069 C 
ATOM     16  C   UNL     1      34.191 -21.641 -19.552  0.00  0.00    +0.001 C 
ATOM     17  C   UNL     1      36.907 -21.003 -19.554  0.00  0.00    +0.010 C 
ATOM     18  C   UNL     1      34.741 -20.938 -20.624  0.00  0.00    +0.000 C 
ATOM     19  C   UNL     1      36.099 -20.619 -20.625  0.00  0.00    +0.001 C 
BRANCH  15  21
ATOM     20  N   UNL     1      37.912 -22.391 -16.528  0.00  0.00    -0.191 NA
ATOM     21  C   UNL     1      37.216 -22.086 -17.401  0.00  0.00    +0.100 C 
ENDBRANCH  15  21
ENDBRANCH   3  14
BRANCH   2  22
ATOM     22  C   UNL     1      30.934 -23.769 -16.007  0.00  0.00    +0.058 C 
ATOM     23  C   UNL     1      30.432 -24.912 -15.397  0.00  0.00    +0.015 C 
ATOM     24  C   UNL     1      30.078 -22.776 -16.469  0.00  0.00    +0.015 C 
ATOM     25  C   UNL     1      29.054 -25.065 -15.248  0.00  0.00    +0.001 C 
ATOM     26  C   UNL     1      28.700 -22.929 -16.319  0.00  0.00    +0.001 C 
ATOM     27  C   UNL     1      28.187 -24.074 -15.708  0.00  0.00    +0.000 C 
ENDBRANCH   2  22
TORSDOF 4
ENDMDL
