MODEL 1
REMARK VINA RESULT:     -14.5      0.000      0.000
REMARK  Name = 1712
REMARK  5 active torsions:
REMARK  status: ('A' for Active; 'I' for Inactive)
REMARK    1  A    between atoms: C_1  and  N_18
REMARK    2  A    between atoms: C_2  and  S_7
REMARK    3  A    between atoms: S_7  and  N_10
REMARK    4  A    between atoms: N_18  and  C_20
REMARK    5  A    between atoms: C_20  and  C_26
REMARK                            x       y       z     vdW  Elec       q    Type
REMARK                         _______ _______ _______ _____ _____    ______ ____
ROOT
ATOM      1  C   UNL     1      35.201 -19.943 -21.047  0.00  0.00    +0.045 C 
ATOM      2  C   UNL     1      34.332 -21.928 -19.253  0.00  0.00    +0.125 C 
ATOM      3  C   UNL     1      33.830 -20.177 -20.840  0.00  0.00    +0.016 C 
ATOM      4  C   UNL     1      36.128 -20.727 -20.336  0.00  0.00    +0.016 C 
ATOM      5  C   UNL     1      33.399 -21.161 -19.950  0.00  0.00    +0.021 C 
ATOM      6  C   UNL     1      35.697 -21.711 -19.446  0.00  0.00    +0.021 C 
ENDROOT
BRANCH   2   7
ATOM      7  S   UNL     1      33.793 -23.160 -18.140  0.00  0.00    +0.075 S 
ATOM      8  O   UNL     1      34.719 -23.178 -17.013  0.00  0.00    -0.150 OA
ATOM      9  O   UNL     1      33.567 -24.393 -18.883  0.00  0.00    -0.150 OA
BRANCH   7  10
ATOM     10  N   UNL     1      32.286 -22.538 -17.583  0.00  0.00    -0.199 N 
ATOM     11  H   UNL     1      31.826 -21.815 -18.068  0.00  0.00    +0.175 HD
ATOM     12  N   UNL     1      32.396 -22.863 -15.249  0.00  0.00    -0.228 NA
ATOM     13  C   UNL     1      31.720 -23.106 -16.389  0.00  0.00    +0.147 C 
ATOM     14  C   UNL     1      30.555 -23.843 -16.473  0.00  0.00    +0.036 C 
ATOM     15  C   UNL     1      30.043 -24.373 -15.293  0.00  0.00    +0.005 C 
ATOM     16  C   UNL     1      31.869 -23.395 -14.123  0.00  0.00    +0.100 C 
ATOM     17  C   UNL     1      30.707 -24.149 -14.092  0.00  0.00    +0.021 C 
ENDBRANCH   7  10
ENDBRANCH   2   7
BRANCH   1  18
ATOM     18  N   UNL     1      35.630 -18.964 -21.931  0.00  0.00    -0.328 N 
ATOM     19  H   UNL     1      36.271 -19.221 -22.634  0.00  0.00    +0.147 HD
BRANCH  18  20
ATOM     20  C   UNL     1      35.194 -17.590 -21.880  0.00  0.00    +0.127 C 
BRANCH  20  26
ATOM     21  S   UNL     1      33.571 -14.384 -21.555  0.00  0.00    -0.104 S 
ATOM     22  O   UNL     1      35.748 -19.056 -24.368  0.00  0.00    -0.210 OA
ATOM     23  N   UNL     1      34.767 -17.328 -25.582  0.00  0.00    -0.333 NA
ATOM     24  N   UNL     1      32.612 -12.790 -23.363  0.00  0.00    -0.262 NA
ATOM     25  C   UNL     1      34.253 -16.041 -23.725  0.00  0.00    +0.033 C 
ATOM     26  C   UNL     1      34.849 -17.131 -23.247  0.00  0.00    +0.092 C 
ATOM     27  C   UNL     1      34.230 -16.221 -25.186  0.00  0.00    +0.142 C 
ATOM     28  C   UNL     1      33.696 -14.874 -23.180  0.00  0.00    +0.114 C 
ATOM     29  C   UNL     1      35.187 -17.972 -24.436  0.00  0.00    +0.202 C 
ATOM     30  C   UNL     1      33.132 -13.897 -23.984  0.00  0.00    +0.069 C 
ATOM     31  C   UNL     1      33.615 -15.149 -26.014  0.00  0.00    +0.034 C 
ATOM     32  C   UNL     1      33.103 -14.060 -25.406  0.00  0.00    +0.018 C 
ATOM     33  C   UNL     1      32.788 -12.939 -22.067  0.00  0.00    +0.183 C 
ENDBRANCH  20  26
ENDBRANCH  18  20
ENDBRANCH   1  18
TORSDOF 5
ENDMDL
MODEL 2
REMARK VINA RESULT:     -13.5      5.790     12.423
REMARK  Name = 1712
REMARK  5 active torsions:
REMARK  status: ('A' for Active; 'I' for Inactive)
REMARK    1  A    between atoms: C_1  and  N_18
REMARK    2  A    between atoms: C_2  and  S_7
REMARK    3  A    between atoms: S_7  and  N_10
REMARK    4  A    between atoms: N_18  and  C_20
REMARK    5  A    between atoms: C_20  and  C_26
REMARK                            x       y       z     vdW  Elec       q    Type
REMARK                         _______ _______ _______ _____ _____    ______ ____
ROOT
ATOM      1  C   UNL     1      32.635 -11.930 -22.834  0.00  0.00    +0.045 C 
ATOM      2  C   UNL     1      32.150  -9.228 -22.215  0.00  0.00    +0.125 C 
ATOM      3  C   UNL     1      33.244 -10.900 -23.573  0.00  0.00    +0.016 C 
ATOM      4  C   UNL     1      31.776 -11.575 -21.778  0.00  0.00    +0.016 C 
ATOM      5  C   UNL     1      33.004  -9.561 -23.266  0.00  0.00    +0.021 C 
ATOM      6  C   UNL     1      31.536 -10.236 -21.471  0.00  0.00    +0.021 C 
ENDROOT
BRANCH   2   7
ATOM      7  S   UNL     1      31.849  -7.553 -21.831  0.00  0.00    +0.075 S 
ATOM      8  O   UNL     1      31.833  -7.424 -20.378  0.00  0.00    -0.150 OA
ATOM      9  O   UNL     1      30.688  -7.102 -22.589  0.00  0.00    -0.150 OA
BRANCH   7  10
ATOM     10  N   UNL     1      33.263  -6.765 -22.422  0.00  0.00    -0.199 N 
ATOM     11  H   UNL     1      34.132  -6.881 -21.974  0.00  0.00    +0.175 HD
ATOM     12  N   UNL     1      32.413  -4.809 -23.429  0.00  0.00    -0.228 NA
ATOM     13  C   UNL     1      33.137  -5.933 -23.589  0.00  0.00    +0.147 C 
ATOM     14  C   UNL     1      33.744  -6.319 -24.768  0.00  0.00    +0.036 C 
ATOM     15  C   UNL     1      33.595  -5.485 -25.870  0.00  0.00    +0.005 C 
ATOM     16  C   UNL     1      32.290  -4.023 -24.522  0.00  0.00    +0.100 C 
ATOM     17  C   UNL     1      32.856  -4.313 -25.753  0.00  0.00    +0.021 C 
ENDBRANCH   7  10
ENDBRANCH   2   7
BRANCH   1  18
ATOM     18  N   UNL     1      32.874 -13.262 -23.139  0.00  0.00    -0.328 N 
ATOM     19  H   UNL     1      32.100 -13.841 -23.328  0.00  0.00    +0.147 HD
BRANCH  18  20
ATOM     20  C   UNL     1      34.190 -13.848 -23.192  0.00  0.00    +0.127 C 
BRANCH  20  26
ATOM     21  S   UNL     1      35.215 -16.739 -21.292  0.00  0.00    -0.104 S 
ATOM     22  O   UNL     1      33.459 -13.762 -26.039  0.00  0.00    -0.210 OA
ATOM     23  N   UNL     1      33.850 -16.053 -26.188  0.00  0.00    -0.333 NA
ATOM     24  N   UNL     1      35.499 -19.215 -22.012  0.00  0.00    -0.262 NA
ATOM     25  C   UNL     1      34.457 -16.301 -23.966  0.00  0.00    +0.033 C 
ATOM     26  C   UNL     1      34.177 -15.009 -24.114  0.00  0.00    +0.092 C 
ATOM     27  C   UNL     1      34.236 -16.900 -25.292  0.00  0.00    +0.142 C 
ATOM     28  C   UNL     1      34.878 -17.128 -22.913  0.00  0.00    +0.114 C 
ATOM     29  C   UNL     1      33.783 -14.833 -25.546  0.00  0.00    +0.202 C 
ATOM     30  C   UNL     1      35.087 -18.486 -23.097  0.00  0.00    +0.069 C 
ATOM     31  C   UNL     1      34.470 -18.361 -25.448  0.00  0.00    +0.034 C 
ATOM     32  C   UNL     1      34.875 -19.080 -24.382  0.00  0.00    +0.018 C 
ATOM     33  C   UNL     1      35.602 -18.389 -20.991  0.00  0.00    +0.183 C 
ENDBRANCH  20  26
ENDBRANCH  18  20
ENDBRANCH   1  18
TORSDOF 5
ENDMDL
MODEL 3
REMARK VINA RESULT:     -13.3      1.931      2.264
REMARK  Name = 1712
REMARK  5 active torsions:
REMARK  status: ('A' for Active; 'I' for Inactive)
REMARK    1  A    between atoms: C_1  and  N_18
REMARK    2  A    between atoms: C_2  and  S_7
REMARK    3  A    between atoms: S_7  and  N_10
REMARK    4  A    between atoms: N_18  and  C_20
REMARK    5  A    between atoms: C_20  and  C_26
REMARK                            x       y       z     vdW  Elec       q    Type
REMARK                         _______ _______ _______ _____ _____    ______ ____
ROOT
ATOM      1  C   UNL     1      35.016 -20.325 -20.854  0.00  0.00    +0.045 C 
ATOM      2  C   UNL     1      33.964 -22.028 -18.876  0.00  0.00    +0.125 C 
ATOM      3  C   UNL     1      33.631 -20.385 -20.617  0.00  0.00    +0.016 C 
ATOM      4  C   UNL     1      35.862 -21.138 -20.078  0.00  0.00    +0.016 C 
ATOM      5  C   UNL     1      33.109 -21.229 -19.636  0.00  0.00    +0.021 C 
ATOM      6  C   UNL     1      35.340 -21.982 -19.098  0.00  0.00    +0.021 C 
ENDROOT
BRANCH   2   7
ATOM      7  S   UNL     1      33.311 -23.085 -17.651  0.00  0.00    +0.075 S 
ATOM      8  O   UNL     1      33.781 -24.437 -17.932  0.00  0.00    -0.150 OA
ATOM      9  O   UNL     1      31.876 -22.848 -17.545  0.00  0.00    -0.150 OA
BRANCH   7  10
ATOM     10  N   UNL     1      34.092 -22.535 -16.216  0.00  0.00    -0.199 N 
ATOM     11  H   UNL     1      34.004 -21.601 -15.918  0.00  0.00    +0.175 HD
ATOM     12  N   UNL     1      35.998 -23.918 -16.074  0.00  0.00    -0.228 NA
ATOM     13  C   UNL     1      34.877 -23.481 -15.469  0.00  0.00    +0.147 C 
ATOM     14  C   UNL     1      34.453 -23.875 -14.215  0.00  0.00    +0.036 C 
ATOM     15  C   UNL     1      35.242 -24.790 -13.528  0.00  0.00    +0.005 C 
ATOM     16  C   UNL     1      36.739 -24.808 -15.377  0.00  0.00    +0.100 C 
ATOM     17  C   UNL     1      36.409 -25.270 -14.113  0.00  0.00    +0.021 C 
ENDBRANCH   7  10
ENDBRANCH   2   7
BRANCH   1  18
ATOM     18  N   UNL     1      35.535 -19.485 -21.827  0.00  0.00    -0.328 N 
ATOM     19  H   UNL     1      36.046 -19.890 -22.566  0.00  0.00    +0.147 HD
BRANCH  18  20
ATOM     20  C   UNL     1      35.373 -18.052 -21.821  0.00  0.00    +0.127 C 
BRANCH  20  26
ATOM     21  S   UNL     1      34.047 -14.717 -21.448  0.00  0.00    -0.104 S 
ATOM     22  O   UNL     1      35.574 -19.617 -24.302  0.00  0.00    -0.210 OA
ATOM     23  N   UNL     1      34.625 -17.842 -25.474  0.00  0.00    -0.333 NA
ATOM     24  N   UNL     1      33.053 -13.093 -23.210  0.00  0.00    -0.262 NA
ATOM     25  C   UNL     1      34.390 -16.475 -23.619  0.00  0.00    +0.033 C 
ATOM     26  C   UNL     1      34.940 -17.598 -23.164  0.00  0.00    +0.092 C 
ATOM     27  C   UNL     1      34.217 -16.687 -25.065  0.00  0.00    +0.142 C 
ATOM     28  C   UNL     1      33.981 -15.253 -23.062  0.00  0.00    +0.114 C 
ATOM     29  C   UNL     1      35.097 -18.492 -24.352  0.00  0.00    +0.202 C 
ATOM     30  C   UNL     1      33.423 -14.252 -23.841  0.00  0.00    +0.069 C 
ATOM     31  C   UNL     1      33.615 -15.587 -25.866  0.00  0.00    +0.034 C 
ATOM     32  C   UNL     1      33.250 -14.446 -25.248  0.00  0.00    +0.018 C 
ATOM     33  C   UNL     1      33.338 -13.225 -21.931  0.00  0.00    +0.183 C 
ENDBRANCH  20  26
ENDBRANCH  18  20
ENDBRANCH   1  18
TORSDOF 5
ENDMDL
MODEL 4
REMARK VINA RESULT:     -13.1      1.613      2.408
REMARK  Name = 1712
REMARK  5 active torsions:
REMARK  status: ('A' for Active; 'I' for Inactive)
REMARK    1  A    between atoms: C_1  and  N_18
REMARK    2  A    between atoms: C_2  and  S_7
REMARK    3  A    between atoms: S_7  and  N_10
REMARK    4  A    between atoms: N_18  and  C_20
REMARK    5  A    between atoms: C_20  and  C_26
REMARK                            x       y       z     vdW  Elec       q    Type
REMARK                         _______ _______ _______ _____ _____    ______ ____
ROOT
ATOM      1  C   UNL     1      35.203 -19.770 -21.163  0.00  0.00    +0.045 C 
ATOM      2  C   UNL     1      34.364 -21.800 -19.405  0.00  0.00    +0.125 C 
ATOM      3  C   UNL     1      36.141 -20.549 -20.462  0.00  0.00    +0.016 C 
ATOM      4  C   UNL     1      33.835 -20.031 -20.963  0.00  0.00    +0.016 C 
ATOM      5  C   UNL     1      35.725 -21.556 -19.591  0.00  0.00    +0.021 C 
ATOM      6  C   UNL     1      33.420 -21.037 -20.092  0.00  0.00    +0.021 C 
ENDROOT
BRANCH   2   7
ATOM      7  S   UNL     1      33.844 -23.059 -18.314  0.00  0.00    +0.075 S 
ATOM      8  O   UNL     1      34.768 -23.080 -17.185  0.00  0.00    -0.150 OA
ATOM      9  O   UNL     1      33.640 -24.284 -19.078  0.00  0.00    -0.150 OA
BRANCH   7  10
ATOM     10  N   UNL     1      32.325 -22.472 -17.750  0.00  0.00    -0.199 N 
ATOM     11  H   UNL     1      31.847 -21.760 -18.232  0.00  0.00    +0.175 HD
ATOM     12  N   UNL     1      32.451 -22.798 -15.417  0.00  0.00    -0.228 NA
ATOM     13  C   UNL     1      31.776 -23.055 -16.555  0.00  0.00    +0.147 C 
ATOM     14  C   UNL     1      30.628 -23.818 -16.636  0.00  0.00    +0.036 C 
ATOM     15  C   UNL     1      30.133 -24.361 -15.455  0.00  0.00    +0.005 C 
ATOM     16  C   UNL     1      31.940 -23.343 -14.290  0.00  0.00    +0.100 C 
ATOM     17  C   UNL     1      30.796 -24.123 -14.256  0.00  0.00    +0.021 C 
ENDBRANCH   7  10
ENDBRANCH   2   7
BRANCH   1  18
ATOM     18  N   UNL     1      35.616 -18.770 -22.031  0.00  0.00    -0.328 N 
ATOM     19  H   UNL     1      36.566 -18.509 -22.019  0.00  0.00    +0.147 HD
BRANCH  18  20
ATOM     20  C   UNL     1      34.736 -18.088 -22.947  0.00  0.00    +0.127 C 
BRANCH  20  26
ATOM     21  S   UNL     1      33.607 -16.285 -25.861  0.00  0.00    -0.104 S 
ATOM     22  O   UNL     1      35.368 -16.971 -20.302  0.00  0.00    -0.210 OA
ATOM     23  N   UNL     1      34.824 -14.848 -21.090  0.00  0.00    -0.333 NA
ATOM     24  N   UNL     1      33.140 -13.757 -26.202  0.00  0.00    -0.262 NA
ATOM     25  C   UNL     1      34.287 -15.557 -23.230  0.00  0.00    +0.033 C 
ATOM     26  C   UNL     1      34.643 -16.657 -22.571  0.00  0.00    +0.092 C 
ATOM     27  C   UNL     1      34.420 -14.462 -22.255  0.00  0.00    +0.142 C 
ATOM     28  C   UNL     1      33.855 -15.255 -24.530  0.00  0.00    +0.114 C 
ATOM     29  C   UNL     1      34.993 -16.215 -21.186  0.00  0.00    +0.202 C 
ATOM     30  C   UNL     1      33.554 -13.957 -24.910  0.00  0.00    +0.069 C 
ATOM     31  C   UNL     1      34.087 -13.083 -22.702  0.00  0.00    +0.034 C 
ATOM     32  C   UNL     1      33.680 -12.883 -23.972  0.00  0.00    +0.018 C 
ATOM     33  C   UNL     1      33.130 -14.927 -26.805  0.00  0.00    +0.183 C 
ENDBRANCH  20  26
ENDBRANCH  18  20
ENDBRANCH   1  18
TORSDOF 5
ENDMDL
MODEL 5
REMARK VINA RESULT:     -12.9      2.352     10.399
REMARK  Name = 1712
REMARK  5 active torsions:
REMARK  status: ('A' for Active; 'I' for Inactive)
REMARK    1  A    between atoms: C_1  and  N_18
REMARK    2  A    between atoms: C_2  and  S_7
REMARK    3  A    between atoms: S_7  and  N_10
REMARK    4  A    between atoms: N_18  and  C_20
REMARK    5  A    between atoms: C_20  and  C_26
REMARK                            x       y       z     vdW  Elec       q    Type
REMARK                         _______ _______ _______ _____ _____    ______ ____
ROOT
ATOM      1  C   UNL     1      34.454 -21.666 -19.651  0.00  0.00    +0.045 C 
ATOM      2  C   UNL     1      35.737 -19.639 -21.123  0.00  0.00    +0.125 C 
ATOM      3  C   UNL     1      35.858 -21.578 -19.686  0.00  0.00    +0.016 C 
ATOM      4  C   UNL     1      33.708 -20.715 -20.371  0.00  0.00    +0.016 C 
ATOM      5  C   UNL     1      36.494 -20.574 -20.415  0.00  0.00    +0.021 C 
ATOM      6  C   UNL     1      34.344 -19.710 -21.100  0.00  0.00    +0.021 C 
ENDROOT
BRANCH   2   7
ATOM      7  S   UNL     1      36.532 -18.383 -22.036  0.00  0.00    +0.075 S 
ATOM      8  O   UNL     1      37.969 -18.515 -21.818  0.00  0.00    -0.150 OA
ATOM      9  O   UNL     1      35.891 -17.109 -21.735  0.00  0.00    -0.150 OA
BRANCH   7  10
ATOM     10  N   UNL     1      36.197 -18.825 -23.668  0.00  0.00    -0.199 N 
ATOM     11  H   UNL     1      36.666 -19.578 -24.095  0.00  0.00    +0.175 HD
ATOM     12  N   UNL     1      35.543 -16.787 -24.658  0.00  0.00    -0.228 NA
ATOM     13  C   UNL     1      35.211 -18.063 -24.386  0.00  0.00    +0.147 C 
ATOM     14  C   UNL     1      34.019 -18.661 -24.745  0.00  0.00    +0.036 C 
ATOM     15  C   UNL     1      33.095 -17.888 -25.439  0.00  0.00    +0.005 C 
ATOM     16  C   UNL     1      34.621 -16.065 -25.333  0.00  0.00    +0.100 C 
ATOM     17  C   UNL     1      33.395 -16.564 -25.742  0.00  0.00    +0.021 C 
ENDBRANCH   7  10
ENDBRANCH   2   7
BRANCH   1  18
ATOM     18  N   UNL     1      33.822 -22.664 -18.925  0.00  0.00    -0.328 N 
ATOM     19  H   UNL     1      34.169 -23.583 -19.000  0.00  0.00    +0.147 HD
BRANCH  18  20
ATOM     20  C   UNL     1      32.684 -22.435 -18.070  0.00  0.00    +0.127 C 
BRANCH  20  26
ATOM     21  S   UNL     1      29.394 -23.429 -16.972  0.00  0.00    -0.104 S 
ATOM     22  O   UNL     1      35.246 -23.006 -16.745  0.00  0.00    -0.210 OA
ATOM     23  N   UNL     1      34.103 -24.154 -15.072  0.00  0.00    -0.333 NA
ATOM     24  N   UNL     1      28.651 -24.789 -14.892  0.00  0.00    -0.262 NA
ATOM     25  C   UNL     1      32.001 -23.795 -15.979  0.00  0.00    +0.033 C 
ATOM     26  C   UNL     1      32.852 -23.198 -16.810  0.00  0.00    +0.092 C 
ATOM     27  C   UNL     1      32.839 -24.372 -14.915  0.00  0.00    +0.142 C 
ATOM     28  C   UNL     1      30.610 -23.970 -15.912  0.00  0.00    +0.114 C 
ATOM     29  C   UNL     1      34.215 -23.422 -16.236  0.00  0.00    +0.202 C 
ATOM     30  C   UNL     1      30.017 -24.670 -14.874  0.00  0.00    +0.069 C 
ATOM     31  C   UNL     1      32.164 -25.117 -13.819  0.00  0.00    +0.034 C 
ATOM     32  C   UNL     1      30.821 -25.236 -13.834  0.00  0.00    +0.018 C 
ATOM     33  C   UNL     1      28.209 -24.166 -15.964  0.00  0.00    +0.183 C 
ENDBRANCH  20  26
ENDBRANCH  18  20
ENDBRANCH   1  18
TORSDOF 5
ENDMDL
MODEL 6
REMARK VINA RESULT:     -12.7      2.451     10.490
REMARK  Name = 1712
REMARK  5 active torsions:
REMARK  status: ('A' for Active; 'I' for Inactive)
REMARK    1  A    between atoms: C_1  and  N_18
REMARK    2  A    between atoms: C_2  and  S_7
REMARK    3  A    between atoms: S_7  and  N_10
REMARK    4  A    between atoms: N_18  and  C_20
REMARK    5  A    between atoms: C_20  and  C_26
REMARK                            x       y       z     vdW  Elec       q    Type
REMARK                         _______ _______ _______ _____ _____    ______ ____
ROOT
ATOM      1  C   UNL     1      33.799 -21.645 -19.630  0.00  0.00    +0.045 C 
ATOM      2  C   UNL     1      35.402 -19.729 -20.924  0.00  0.00    +0.125 C 
ATOM      3  C   UNL     1      35.201 -21.687 -19.523  0.00  0.00    +0.016 C 
ATOM      4  C   UNL     1      33.219 -20.621 -20.401  0.00  0.00    +0.016 C 
ATOM      5  C   UNL     1      35.996 -20.737 -20.164  0.00  0.00    +0.021 C 
ATOM      6  C   UNL     1      34.014 -19.671 -21.042  0.00  0.00    +0.021 C 
ENDROOT
BRANCH   2   7
ATOM      7  S   UNL     1      36.397 -18.541 -21.727  0.00  0.00    +0.075 S 
ATOM      8  O   UNL     1      37.785 -18.800 -21.360  0.00  0.00    -0.150 OA
ATOM      9  O   UNL     1      35.839 -17.218 -21.475  0.00  0.00    -0.150 OA
BRANCH   7  10
ATOM     10  N   UNL     1      36.201 -18.941 -23.392  0.00  0.00    -0.199 N 
ATOM     11  H   UNL     1      36.708 -19.680 -23.798  0.00  0.00    +0.175 HD
ATOM     12  N   UNL     1      35.623 -16.878 -24.380  0.00  0.00    -0.228 NA
ATOM     13  C   UNL     1      35.275 -18.162 -24.170  0.00  0.00    +0.147 C 
ATOM     14  C   UNL     1      34.120 -18.753 -24.643  0.00  0.00    +0.036 C 
ATOM     15  C   UNL     1      33.254 -17.963 -25.391  0.00  0.00    +0.005 C 
ATOM     16  C   UNL     1      34.757 -16.141 -25.110  0.00  0.00    +0.100 C 
ATOM     17  C   UNL     1      33.572 -16.631 -25.634  0.00  0.00    +0.021 C 
ENDBRANCH   7  10
ENDBRANCH   2   7
BRANCH   1  18
ATOM     18  N   UNL     1      33.008 -22.589 -18.991  0.00  0.00    -0.328 N 
ATOM     19  H   UNL     1      32.043 -22.593 -19.186  0.00  0.00    +0.147 HD
BRANCH  18  20
ATOM     20  C   UNL     1      33.517 -23.562 -18.058  0.00  0.00    +0.127 C 
BRANCH  20  26
ATOM     21  S   UNL     1      35.826 -24.654 -15.510  0.00  0.00    -0.104 S 
ATOM     22  O   UNL     1      30.794 -22.527 -17.662  0.00  0.00    -0.210 OA
ATOM     23  N   UNL     1      31.049 -22.792 -15.362  0.00  0.00    -0.333 NA
ATOM     24  N   UNL     1      35.571 -24.741 -12.930  0.00  0.00    -0.262 NA
ATOM     25  C   UNL     1      33.206 -23.628 -15.491  0.00  0.00    +0.033 C 
ATOM     26  C   UNL     1      32.841 -23.393 -16.749  0.00  0.00    +0.092 C 
ATOM     27  C   UNL     1      32.049 -23.234 -14.672  0.00  0.00    +0.142 C 
ATOM     28  C   UNL     1      34.351 -24.123 -14.849  0.00  0.00    +0.114 C 
ATOM     29  C   UNL     1      31.449 -22.853 -16.681  0.00  0.00    +0.202 C 
ATOM     30  C   UNL     1      34.411 -24.247 -13.470  0.00  0.00    +0.069 C 
ATOM     31  C   UNL     1      32.153 -23.381 -13.196  0.00  0.00    +0.034 C 
ATOM     32  C   UNL     1      33.292 -23.867 -12.662  0.00  0.00    +0.018 C 
ATOM     33  C   UNL     1      36.398 -24.994 -13.922  0.00  0.00    +0.183 C 
ENDBRANCH  20  26
ENDBRANCH  18  20
ENDBRANCH   1  18
TORSDOF 5
ENDMDL
MODEL 7
REMARK VINA RESULT:     -12.7      3.882      6.929
REMARK  Name = 1712
REMARK  5 active torsions:
REMARK  status: ('A' for Active; 'I' for Inactive)
REMARK    1  A    between atoms: C_1  and  N_18
REMARK    2  A    between atoms: C_2  and  S_7
REMARK    3  A    between atoms: S_7  and  N_10
REMARK    4  A    between atoms: N_18  and  C_20
REMARK    5  A    between atoms: C_20  and  C_26
REMARK                            x       y       z     vdW  Elec       q    Type
REMARK                         _______ _______ _______ _____ _____    ______ ____
ROOT
ATOM      1  C   UNL     1      34.465 -13.835 -23.369  0.00  0.00    +0.045 C 
ATOM      2  C   UNL     1      34.937 -16.582 -22.984  0.00  0.00    +0.125 C 
ATOM      3  C   UNL     1      34.748 -14.346 -22.089  0.00  0.00    +0.016 C 
ATOM      4  C   UNL     1      34.422 -14.733 -24.452  0.00  0.00    +0.016 C 
ATOM      5  C   UNL     1      34.982 -15.708 -21.899  0.00  0.00    +0.021 C 
ATOM      6  C   UNL     1      34.657 -16.094 -24.261  0.00  0.00    +0.021 C 
ENDROOT
BRANCH   2   7
ATOM      7  S   UNL     1      35.229 -18.286 -22.745  0.00  0.00    +0.075 S 
ATOM      8  O   UNL     1      36.672 -18.497 -22.756  0.00  0.00    -0.150 OA
ATOM      9  O   UNL     1      34.403 -19.037 -23.683  0.00  0.00    -0.150 OA
BRANCH   7  10
ATOM     10  N   UNL     1      34.662 -18.550 -21.139  0.00  0.00    -0.199 N 
ATOM     11  H   UNL     1      34.325 -17.804 -20.593  0.00  0.00    +0.175 HD
ATOM     12  N   UNL     1      35.923 -20.408 -20.418  0.00  0.00    -0.228 NA
ATOM     13  C   UNL     1      34.696 -19.891 -20.621  0.00  0.00    +0.147 C 
ATOM     14  C   UNL     1      33.510 -20.553 -20.369  0.00  0.00    +0.036 C 
ATOM     15  C   UNL     1      33.590 -21.847 -19.869  0.00  0.00    +0.005 C 
ATOM     16  C   UNL     1      35.962 -21.669 -19.932  0.00  0.00    +0.100 C 
ATOM     17  C   UNL     1      34.836 -22.423 -19.643  0.00  0.00    +0.021 C 
ENDBRANCH   7  10
ENDBRANCH   2   7
BRANCH   1  18
ATOM     18  N   UNL     1      34.233 -12.481 -23.559  0.00  0.00    -0.328 N 
ATOM     19  H   UNL     1      35.011 -11.881 -23.618  0.00  0.00    +0.147 HD
BRANCH  18  20
ATOM     20  C   UNL     1      32.918 -11.901 -23.673  0.00  0.00    +0.127 C 
BRANCH  20  26
ATOM     21  S   UNL     1      33.418  -8.329 -23.778  0.00  0.00    -0.104 S 
ATOM     22  O   UNL     1      31.884 -13.484 -21.422  0.00  0.00    -0.210 OA
ATOM     23  N   UNL     1      31.670 -11.530 -20.172  0.00  0.00    -0.333 NA
ATOM     24  N   UNL     1      32.983  -6.513 -21.977  0.00  0.00    -0.262 NA
ATOM     25  C   UNL     1      32.467 -10.133 -21.840  0.00  0.00    +0.033 C 
ATOM     26  C   UNL     1      32.501 -11.359 -22.358  0.00  0.00    +0.092 C 
ATOM     27  C   UNL     1      31.940 -10.304 -20.476  0.00  0.00    +0.142 C 
ATOM     28  C   UNL     1      32.796  -8.842 -22.280  0.00  0.00    +0.114 C 
ATOM     29  C   UNL     1      31.989 -12.273 -21.291  0.00  0.00    +0.202 C 
ATOM     30  C   UNL     1      32.635  -7.735 -21.462  0.00  0.00    +0.069 C 
ATOM     31  C   UNL     1      31.782  -9.091 -19.630  0.00  0.00    +0.034 C 
ATOM     32  C   UNL     1      32.124  -7.888 -20.134  0.00  0.00    +0.018 C 
ATOM     33  C   UNL     1      33.415  -6.705 -23.206  0.00  0.00    +0.183 C 
ENDBRANCH  20  26
ENDBRANCH  18  20
ENDBRANCH   1  18
TORSDOF 5
ENDMDL
MODEL 8
REMARK VINA RESULT:     -12.5      4.801      8.580
REMARK  Name = 1712
REMARK  5 active torsions:
REMARK  status: ('A' for Active; 'I' for Inactive)
REMARK    1  A    between atoms: C_1  and  N_18
REMARK    2  A    between atoms: C_2  and  S_7
REMARK    3  A    between atoms: S_7  and  N_10
REMARK    4  A    between atoms: N_18  and  C_20
REMARK    5  A    between atoms: C_20  and  C_26
REMARK                            x       y       z     vdW  Elec       q    Type
REMARK                         _______ _______ _______ _____ _____    ______ ____
ROOT
ATOM      1  C   UNL     1      33.019 -12.391 -23.136  0.00  0.00    +0.045 C 
ATOM      2  C   UNL     1      34.149 -14.968 -23.186  0.00  0.00    +0.125 C 
ATOM      3  C   UNL     1      32.732 -13.324 -22.123  0.00  0.00    +0.016 C 
ATOM      4  C   UNL     1      33.885 -12.779 -24.175  0.00  0.00    +0.016 C 
ATOM      5  C   UNL     1      33.292 -14.601 -22.147  0.00  0.00    +0.021 C 
ATOM      6  C   UNL     1      34.445 -14.056 -24.199  0.00  0.00    +0.021 C 
ENDROOT
BRANCH   2   7
ATOM      7  S   UNL     1      34.849 -16.566 -23.217  0.00  0.00    +0.075 S 
ATOM      8  O   UNL     1      36.296 -16.417 -23.320  0.00  0.00    -0.150 OA
ATOM      9  O   UNL     1      34.151 -17.362 -24.220  0.00  0.00    -0.150 OA
BRANCH   7  10
ATOM     10  N   UNL     1      34.485 -17.173 -21.646  0.00  0.00    -0.199 N 
ATOM     11  H   UNL     1      33.864 -16.696 -21.050  0.00  0.00    +0.175 HD
ATOM     12  N   UNL     1      36.449 -18.335 -21.046  0.00  0.00    -0.228 NA
ATOM     13  C   UNL     1      35.116 -18.398 -21.231  0.00  0.00    +0.147 C 
ATOM     14  C   UNL     1      34.348 -19.531 -21.050  0.00  0.00    +0.036 C 
ATOM     15  C   UNL     1      35.000 -20.692 -20.649  0.00  0.00    +0.005 C 
ATOM     16  C   UNL     1      37.049 -19.482 -20.657  0.00  0.00    +0.100 C 
ATOM     17  C   UNL     1      36.376 -20.675 -20.446  0.00  0.00    +0.021 C 
ENDBRANCH   7  10
ENDBRANCH   2   7
BRANCH   1  18
ATOM     18  N   UNL     1      32.463 -11.121 -23.111  0.00  0.00    -0.328 N 
ATOM     19  H   UNL     1      32.881 -10.421 -23.664  0.00  0.00    +0.147 HD
BRANCH  18  20
ATOM     20  C   UNL     1      31.311 -10.765 -22.321  0.00  0.00    +0.127 C 
BRANCH  20  26
ATOM     21  S   UNL     1      31.281  -7.612 -24.074  0.00  0.00    -0.104 S 
ATOM     22  O   UNL     1      31.957 -11.215 -19.488  0.00  0.00    -0.210 OA
ATOM     23  N   UNL     1      32.312  -8.928 -19.226  0.00  0.00    -0.333 NA
ATOM     24  N   UNL     1      31.793  -5.212 -23.235  0.00  0.00    -0.262 NA
ATOM     25  C   UNL     1      31.834  -8.394 -21.429  0.00  0.00    +0.033 C 
ATOM     26  C   UNL     1      31.687  -9.714 -21.344  0.00  0.00    +0.092 C 
ATOM     27  C   UNL     1      32.224  -7.961 -20.077  0.00  0.00    +0.142 C 
ATOM     28  C   UNL     1      31.708  -7.427 -22.438  0.00  0.00    +0.114 C 
ATOM     29  C   UNL     1      31.993 -10.074 -19.926  0.00  0.00    +0.202 C 
ATOM     30  C   UNL     1      31.941  -6.085 -22.188  0.00  0.00    +0.069 C 
ATOM     31  C   UNL     1      32.464  -6.511 -19.850  0.00  0.00    +0.034 C 
ATOM     32  C   UNL     1      32.320  -5.650 -20.878  0.00  0.00    +0.018 C 
ATOM     33  C   UNL     1      31.443  -5.912 -24.293  0.00  0.00    +0.183 C 
ENDBRANCH  20  26
ENDBRANCH  18  20
ENDBRANCH   1  18
TORSDOF 5
ENDMDL
MODEL 9
REMARK VINA RESULT:     -12.4      6.069      9.754
REMARK  Name = 1712
REMARK  5 active torsions:
REMARK  status: ('A' for Active; 'I' for Inactive)
REMARK    1  A    between atoms: C_1  and  N_18
REMARK    2  A    between atoms: C_2  and  S_7
REMARK    3  A    between atoms: S_7  and  N_10
REMARK    4  A    between atoms: N_18  and  C_20
REMARK    5  A    between atoms: C_20  and  C_26
REMARK                            x       y       z     vdW  Elec       q    Type
REMARK                         _______ _______ _______ _____ _____    ______ ____
ROOT
ATOM      1  C   UNL     1      32.676 -12.414 -22.764  0.00  0.00    +0.045 C 
ATOM      2  C   UNL     1      33.407 -14.329 -24.691  0.00  0.00    +0.125 C 
ATOM      3  C   UNL     1      32.615 -13.789 -22.473  0.00  0.00    +0.016 C 
ATOM      4  C   UNL     1      33.110 -12.020 -24.042  0.00  0.00    +0.016 C 
ATOM      5  C   UNL     1      32.977 -14.738 -23.429  0.00  0.00    +0.021 C 
ATOM      6  C   UNL     1      33.473 -12.969 -24.998  0.00  0.00    +0.021 C 
ENDROOT
BRANCH   2   7
ATOM      7  S   UNL     1      33.859 -15.517 -25.887  0.00  0.00    +0.075 S 
ATOM      8  O   UNL     1      34.204 -14.805 -27.113  0.00  0.00    -0.150 OA
ATOM      9  O   UNL     1      32.827 -16.544 -25.939  0.00  0.00    -0.150 OA
BRANCH   7  10
ATOM     10  N   UNL     1      35.306 -16.186 -25.233  0.00  0.00    -0.199 N 
ATOM     11  H   UNL     1      36.186 -15.806 -25.456  0.00  0.00    +0.175 HD
ATOM     12  N   UNL     1      34.757 -18.459 -24.919  0.00  0.00    -0.228 NA
ATOM     13  C   UNL     1      35.190 -17.316 -24.351  0.00  0.00    +0.147 C 
ATOM     14  C   UNL     1      35.516 -17.174 -23.017  0.00  0.00    +0.036 C 
ATOM     15  C   UNL     1      35.390 -18.293 -22.201  0.00  0.00    +0.005 C 
ATOM     16  C   UNL     1      34.645 -19.525 -24.095  0.00  0.00    +0.100 C 
ATOM     17  C   UNL     1      34.946 -19.494 -22.743  0.00  0.00    +0.021 C 
ENDBRANCH   7  10
ENDBRANCH   2   7
BRANCH   1  18
ATOM     18  N   UNL     1      32.317 -11.470 -21.813  0.00  0.00    -0.328 N 
ATOM     19  H   UNL     1      32.729 -11.530 -20.921  0.00  0.00    +0.147 HD
BRANCH  18  20
ATOM     20  C   UNL     1      31.373 -10.407 -22.055  0.00  0.00    +0.127 C 
BRANCH  20  26
ATOM     21  S   UNL     1      31.381  -7.422 -24.081  0.00  0.00    -0.104 S 
ATOM     22  O   UNL     1      31.866 -10.592 -19.162  0.00  0.00    -0.210 OA
ATOM     23  N   UNL     1      32.160  -8.283 -19.085  0.00  0.00    -0.333 NA
ATOM     24  N   UNL     1      31.799  -4.945 -23.430  0.00  0.00    -0.262 NA
ATOM     25  C   UNL     1      31.798  -7.956 -21.350  0.00  0.00    +0.033 C 
ATOM     26  C   UNL     1      31.672  -9.266 -21.157  0.00  0.00    +0.092 C 
ATOM     27  C   UNL     1      32.102  -7.397 -20.023  0.00  0.00    +0.142 C 
ATOM     28  C   UNL     1      31.711  -7.084 -22.446  0.00  0.00    +0.114 C 
ATOM     29  C   UNL     1      31.904  -9.493 -19.697  0.00  0.00    +0.202 C 
ATOM     30  C   UNL     1      31.903  -5.719 -22.304  0.00  0.00    +0.069 C 
ATOM     31  C   UNL     1      32.301  -5.926 -19.912  0.00  0.00    +0.034 C 
ATOM     32  C   UNL     1      32.199  -5.163 -21.018  0.00  0.00    +0.018 C 
ATOM     33  C   UNL     1      31.523  -5.744 -24.440  0.00  0.00    +0.183 C 
ENDBRANCH  20  26
ENDBRANCH  18  20
ENDBRANCH   1  18
TORSDOF 5
ENDMDL
