MODEL 1
REMARK VINA RESULT:     -13.5      0.000      0.000
REMARK  Name = 9826451
REMARK  9 active torsions:
REMARK  status: ('A' for Active; 'I' for Inactive)
REMARK    1  A    between atoms: C_1  and  N_2
REMARK    2  A    between atoms: C_1  and  C_19
REMARK    3  A    between atoms: C_8  and  O_10
REMARK    4  A    between atoms: O_10  and  C_11
REMARK    5  A    between atoms: C_14  and  O_17
REMARK    6  A    between atoms: C_19  and  O_20
REMARK    7  A    between atoms: O_20  and  C_24
REMARK    8  A    between atoms: C_21  and  C_27
REMARK    9  A    between atoms: C_27  and  C_32
REMARK                            x       y       z     vdW  Elec       q    Type
REMARK                         _______ _______ _______ _____ _____    ______ ____
ROOT
ATOM      1  C   UNL     1      36.349 -22.022 -17.648  0.00  0.00    +0.139 C 
ENDROOT
BRANCH   1   2
ATOM      2  N   UNL     1      35.169 -22.676 -17.136  0.00  0.00    -0.291 N 
ATOM      3  C   UNL     1      34.024 -22.856 -18.031  0.00  0.00    +0.113 C 
ATOM      4  N   UNL     1      36.167 -22.946 -15.005  0.00  0.00    -0.233 NA
ATOM      5  N   UNL     1      34.928 -24.007 -13.233  0.00  0.00    -0.214 NA
ATOM      6  C   UNL     1      35.098 -23.123 -15.810  0.00  0.00    +0.115 C 
ATOM      7  C   UNL     1      33.925 -23.726 -15.404  0.00  0.00    +0.146 C 
ATOM      8  C   UNL     1      33.897 -24.152 -14.091  0.00  0.00    +0.210 C 
ATOM      9  C   UNL     1      36.015 -23.404 -13.749  0.00  0.00    +0.254 C 
BRANCH   8  10
ATOM     10  O   UNL     1      32.767 -24.761 -13.611  0.00  0.00    -0.440 OA
BRANCH  10  11
ATOM     11  C   UNL     1      31.566 -24.427 -14.204  0.00  0.00    +0.147 C 
ATOM     12  C   UNL     1      31.255 -23.090 -14.449  0.00  0.00    +0.041 C 
ATOM     13  C   UNL     1      30.662 -25.429 -14.559  0.00  0.00    +0.041 C 
ATOM     14  C   UNL     1      29.139 -23.755 -15.404  0.00  0.00    +0.139 C 
ATOM     15  C   UNL     1      30.042 -22.753 -15.049  0.00  0.00    +0.040 C 
ATOM     16  C   UNL     1      29.449 -25.093 -15.160  0.00  0.00    +0.040 C 
BRANCH  14  17
ATOM     17  O   UNL     1      27.955 -23.427 -15.990  0.00  0.00    -0.471 OA
ATOM     18  C   UNL     1      27.997 -23.019 -17.356  0.00  0.00    +0.252 C 
ENDBRANCH  14  17
ENDBRANCH  10  11
ENDBRANCH   8  10
ENDBRANCH   1   2
BRANCH   1  19
ATOM     19  C   UNL     1      36.204 -21.779 -19.141  0.00  0.00    +0.227 C 
BRANCH  19  20
ATOM     20  O   UNL     1      36.787 -20.522 -19.476  0.00  0.00    -0.474 OA
BRANCH  20  24
ATOM     21  C   UNL     1      35.332 -18.605 -22.858  0.00  0.00    -0.021 C 
ATOM     22  C   UNL     1      36.652 -18.402 -22.456  0.00  0.00    -0.001 C 
ATOM     23  C   UNL     1      34.501 -19.452 -22.124  0.00  0.00    -0.001 C 
ATOM     24  C   UNL     1      36.310 -19.892 -20.585  0.00  0.00    +0.139 C 
ATOM     25  C   UNL     1      37.141 -19.046 -21.319  0.00  0.00    +0.037 C 
ATOM     26  C   UNL     1      34.990 -20.094 -20.987  0.00  0.00    +0.037 C 
BRANCH  21  27
ATOM     27  C   UNL     1      34.804 -17.909 -24.086  0.00  0.00    +0.047 C 
BRANCH  27  32
ATOM     28  S   UNL     1      34.576 -15.705 -22.450  0.00  0.00    -0.048 S 
ATOM     29  O   UNL     1      34.307 -15.937 -26.292  0.00  0.00    -0.274 OA
ATOM     30  O   UNL     1      32.852 -13.722 -22.511  0.00  0.00    -0.263 OA
ATOM     31  N   UNL     1      33.473 -14.702 -24.523  0.00  0.00    -0.246 N 
ATOM     32  C   UNL     1      35.071 -16.415 -24.050  0.00  0.00    +0.137 C 
ATOM     33  C   UNL     1      34.258 -15.682 -25.094  0.00  0.00    +0.239 C 
ATOM     34  C   UNL     1      33.486 -14.536 -23.163  0.00  0.00    +0.279 C 
ATOM     35  H   UNL     1      32.908 -14.128 -25.088  0.00  0.00    +0.158 HD
ENDBRANCH  27  32
ENDBRANCH  21  27
ENDBRANCH  20  24
ENDBRANCH  19  20
ENDBRANCH   1  19
TORSDOF 9
ENDMDL
MODEL 2
REMARK VINA RESULT:     -13.1      3.531     11.394
REMARK  Name = 9826451
REMARK  9 active torsions:
REMARK  status: ('A' for Active; 'I' for Inactive)
REMARK    1  A    between atoms: C_1  and  N_2
REMARK    2  A    between atoms: C_1  and  C_19
REMARK    3  A    between atoms: C_8  and  O_10
REMARK    4  A    between atoms: O_10  and  C_11
REMARK    5  A    between atoms: C_14  and  O_17
REMARK    6  A    between atoms: C_19  and  O_20
REMARK    7  A    between atoms: O_20  and  C_24
REMARK    8  A    between atoms: C_21  and  C_27
REMARK    9  A    between atoms: C_27  and  C_32
REMARK                            x       y       z     vdW  Elec       q    Type
REMARK                         _______ _______ _______ _____ _____    ______ ____
ROOT
ATOM      1  C   UNL     1      35.958 -17.924 -23.183  0.00  0.00    +0.139 C 
ENDROOT
BRANCH   1   2
ATOM      2  N   UNL     1      35.025 -16.950 -23.697  0.00  0.00    -0.291 N 
ATOM      3  C   UNL     1      34.612 -17.048 -25.098  0.00  0.00    +0.113 C 
ATOM      4  N   UNL     1      34.921 -15.851 -21.602  0.00  0.00    -0.233 NA
ATOM      5  N   UNL     1      33.532 -13.899 -21.345  0.00  0.00    -0.214 NA
ATOM      6  C   UNL     1      34.525 -15.919 -22.890  0.00  0.00    +0.115 C 
ATOM      7  C   UNL     1      33.648 -15.026 -23.470  0.00  0.00    +0.146 C 
ATOM      8  C   UNL     1      33.179 -14.026 -22.641  0.00  0.00    +0.210 C 
ATOM      9  C   UNL     1      34.394 -14.831 -20.898  0.00  0.00    +0.254 C 
BRANCH   8  10
ATOM     10  O   UNL     1      32.303 -13.099 -23.142  0.00  0.00    -0.440 OA
BRANCH  10  11
ATOM     11  C   UNL     1      32.209 -11.892 -22.480  0.00  0.00    +0.147 C 
ATOM     12  C   UNL     1      32.745 -10.738 -23.051  0.00  0.00    +0.041 C 
ATOM     13  C   UNL     1      31.577 -11.825 -21.237  0.00  0.00    +0.041 C 
ATOM     14  C   UNL     1      32.018  -9.452 -21.140  0.00  0.00    +0.139 C 
ATOM     15  C   UNL     1      32.650  -9.518 -22.382  0.00  0.00    +0.040 C 
ATOM     16  C   UNL     1      31.481 -10.606 -20.568  0.00  0.00    +0.040 C 
BRANCH  14  17
ATOM     17  O   UNL     1      31.924  -8.262 -20.486  0.00  0.00    -0.471 OA
ATOM     18  C   UNL     1      33.069  -7.412 -20.516  0.00  0.00    +0.252 C 
ENDBRANCH  14  17
ENDBRANCH  10  11
ENDBRANCH   8  10
ENDBRANCH   1   2
BRANCH   1  19
ATOM     19  C   UNL     1      35.206 -19.062 -22.514  0.00  0.00    +0.227 C 
BRANCH  19  20
ATOM     20  O   UNL     1      35.876 -19.430 -21.309  0.00  0.00    -0.474 OA
BRANCH  20  24
ATOM     21  C   UNL     1      34.077 -22.338 -18.958  0.00  0.00    -0.021 C 
ATOM     22  C   UNL     1      35.465 -22.199 -18.954  0.00  0.00    -0.001 C 
ATOM     23  C   UNL     1      33.294 -21.500 -19.751  0.00  0.00    -0.001 C 
ATOM     24  C   UNL     1      35.287 -20.384 -20.538  0.00  0.00    +0.139 C 
ATOM     25  C   UNL     1      36.070 -21.222 -19.745  0.00  0.00    +0.037 C 
ATOM     26  C   UNL     1      33.899 -20.524 -20.542  0.00  0.00    +0.037 C 
BRANCH  21  27
ATOM     27  C   UNL     1      33.424 -23.394 -18.103  0.00  0.00    +0.047 C 
BRANCH  27  32
ATOM     28  S   UNL     1      33.936 -23.712 -15.415  0.00  0.00    -0.048 S 
ATOM     29  O   UNL     1      30.657 -22.692 -17.177  0.00  0.00    -0.274 OA
ATOM     30  O   UNL     1      32.498 -24.868 -13.544  0.00  0.00    -0.263 OA
ATOM     31  N   UNL     1      31.387 -23.810 -15.288  0.00  0.00    -0.246 N 
ATOM     32  C   UNL     1      33.028 -22.856 -16.740  0.00  0.00    +0.137 C 
ATOM     33  C   UNL     1      31.563 -23.095 -16.454  0.00  0.00    +0.239 C 
ATOM     34  C   UNL     1      32.485 -24.229 -14.584  0.00  0.00    +0.279 C 
ATOM     35  H   UNL     1      30.481 -24.018 -14.965  0.00  0.00    +0.158 HD
ENDBRANCH  27  32
ENDBRANCH  21  27
ENDBRANCH  20  24
ENDBRANCH  19  20
ENDBRANCH   1  19
TORSDOF 9
ENDMDL
MODEL 3
REMARK VINA RESULT:     -12.9      2.529      4.962
REMARK  Name = 9826451
REMARK  9 active torsions:
REMARK  status: ('A' for Active; 'I' for Inactive)
REMARK    1  A    between atoms: C_1  and  N_2
REMARK    2  A    between atoms: C_1  and  C_19
REMARK    3  A    between atoms: C_8  and  O_10
REMARK    4  A    between atoms: O_10  and  C_11
REMARK    5  A    between atoms: C_14  and  O_17
REMARK    6  A    between atoms: C_19  and  O_20
REMARK    7  A    between atoms: O_20  and  C_24
REMARK    8  A    between atoms: C_21  and  C_27
REMARK    9  A    between atoms: C_27  and  C_32
REMARK                            x       y       z     vdW  Elec       q    Type
REMARK                         _______ _______ _______ _____ _____    ______ ____
ROOT
ATOM      1  C   UNL     1      33.768 -22.021 -19.802  0.00  0.00    +0.139 C 
ENDROOT
BRANCH   1   2
ATOM      2  N   UNL     1      34.498 -22.309 -18.590  0.00  0.00    -0.291 N 
ATOM      3  C   UNL     1      35.936 -22.037 -18.558  0.00  0.00    +0.113 C 
ATOM      4  N   UNL     1      32.535 -23.092 -17.521  0.00  0.00    -0.233 NA
ATOM      5  N   UNL     1      32.654 -23.904 -15.256  0.00  0.00    -0.214 NA
ATOM      6  C   UNL     1      33.862 -22.850 -17.466  0.00  0.00    +0.115 C 
ATOM      7  C   UNL     1      34.641 -23.106 -16.356  0.00  0.00    +0.146 C 
ATOM      8  C   UNL     1      33.976 -23.638 -15.269  0.00  0.00    +0.210 C 
ATOM      9  C   UNL     1      32.004 -23.612 -16.398  0.00  0.00    +0.254 C 
BRANCH   8  10
ATOM     10  O   UNL     1      34.680 -23.920 -14.128  0.00  0.00    -0.440 OA
BRANCH  10  11
ATOM     11  C   UNL     1      35.851 -24.639 -14.266  0.00  0.00    +0.147 C 
ATOM     12  C   UNL     1      37.020 -24.196 -13.647  0.00  0.00    +0.041 C 
ATOM     13  C   UNL     1      35.864 -25.811 -15.024  0.00  0.00    +0.041 C 
ATOM     14  C   UNL     1      38.214 -26.093 -14.544  0.00  0.00    +0.139 C 
ATOM     15  C   UNL     1      38.201 -24.923 -13.786  0.00  0.00    +0.040 C 
ATOM     16  C   UNL     1      37.045 -26.538 -15.162  0.00  0.00    +0.040 C 
BRANCH  14  17
ATOM     17  O   UNL     1      39.368 -26.804 -14.680  0.00  0.00    -0.471 OA
ATOM     18  C   UNL     1      40.589 -26.066 -14.691  0.00  0.00    +0.252 C 
ENDBRANCH  14  17
ENDBRANCH  10  11
ENDBRANCH   8  10
ENDBRANCH   1   2
BRANCH   1  19
ATOM     19  C   UNL     1      34.003 -20.580 -20.221  0.00  0.00    +0.227 C 
BRANCH  19  20
ATOM     20  O   UNL     1      34.846 -20.551 -21.371  0.00  0.00    -0.474 OA
BRANCH  20  24
ATOM     21  C   UNL     1      35.164 -16.942 -23.395  0.00  0.00    -0.021 C 
ATOM     22  C   UNL     1      35.236 -16.968 -22.003  0.00  0.00    -0.001 C 
ATOM     23  C   UNL     1      34.985 -18.128 -24.108  0.00  0.00    -0.001 C 
ATOM     24  C   UNL     1      34.950 -19.367 -22.034  0.00  0.00    +0.139 C 
ATOM     25  C   UNL     1      35.129 -18.181 -21.322  0.00  0.00    +0.037 C 
ATOM     26  C   UNL     1      34.878 -19.340 -23.427  0.00  0.00    +0.037 C 
BRANCH  21  27
ATOM     27  C   UNL     1      35.280 -15.631 -24.130  0.00  0.00    +0.047 C 
BRANCH  27  32
ATOM     28  S   UNL     1      33.426 -15.295 -26.139  0.00  0.00    -0.048 S 
ATOM     29  O   UNL     1      34.279 -12.965 -23.183  0.00  0.00    -0.274 OA
ATOM     30  O   UNL     1      32.846 -13.167 -27.569  0.00  0.00    -0.263 OA
ATOM     31  N   UNL     1      33.538 -12.862 -25.372  0.00  0.00    -0.246 N 
ATOM     32  C   UNL     1      33.921 -15.016 -24.411  0.00  0.00    +0.137 C 
ATOM     33  C   UNL     1      33.944 -13.515 -24.227  0.00  0.00    +0.239 C 
ATOM     34  C   UNL     1      33.217 -13.592 -26.486  0.00  0.00    +0.279 C 
ATOM     35  H   UNL     1      33.481 -11.879 -25.389  0.00  0.00    +0.158 HD
ENDBRANCH  27  32
ENDBRANCH  21  27
ENDBRANCH  20  24
ENDBRANCH  19  20
ENDBRANCH   1  19
TORSDOF 9
ENDMDL
MODEL 4
REMARK VINA RESULT:     -12.9      6.031     11.310
REMARK  Name = 9826451
REMARK  9 active torsions:
REMARK  status: ('A' for Active; 'I' for Inactive)
REMARK    1  A    between atoms: C_1  and  N_2
REMARK    2  A    between atoms: C_1  and  C_19
REMARK    3  A    between atoms: C_8  and  O_10
REMARK    4  A    between atoms: O_10  and  C_11
REMARK    5  A    between atoms: C_14  and  O_17
REMARK    6  A    between atoms: C_19  and  O_20
REMARK    7  A    between atoms: O_20  and  C_24
REMARK    8  A    between atoms: C_21  and  C_27
REMARK    9  A    between atoms: C_27  and  C_32
REMARK                            x       y       z     vdW  Elec       q    Type
REMARK                         _______ _______ _______ _____ _____    ______ ____
ROOT
ATOM      1  C   UNL     1      32.786 -13.013 -22.469  0.00  0.00    +0.139 C 
ENDROOT
BRANCH   1   2
ATOM      2  N   UNL     1      33.583 -14.216 -22.426  0.00  0.00    -0.291 N 
ATOM      3  C   UNL     1      34.144 -14.638 -21.142  0.00  0.00    +0.113 C 
ATOM      4  N   UNL     1      33.305 -14.557 -24.753  0.00  0.00    -0.233 NA
ATOM      5  N   UNL     1      34.343 -16.455 -25.813  0.00  0.00    -0.214 NA
ATOM      6  C   UNL     1      33.834 -14.968 -23.581  0.00  0.00    +0.115 C 
ATOM      7  C   UNL     1      34.618 -16.096 -23.448  0.00  0.00    +0.146 C 
ATOM      8  C   UNL     1      34.841 -16.808 -24.610  0.00  0.00    +0.210 C 
ATOM      9  C   UNL     1      33.596 -15.336 -25.812  0.00  0.00    +0.254 C 
BRANCH   8  10
ATOM     10  O   UNL     1      35.609 -17.942 -24.561  0.00  0.00    -0.440 OA
BRANCH  10  11
ATOM     11  C   UNL     1      35.734 -18.571 -23.338  0.00  0.00    +0.147 C 
ATOM     12  C   UNL     1      36.889 -18.395 -22.577  0.00  0.00    +0.041 C 
ATOM     13  C   UNL     1      34.703 -19.383 -22.864  0.00  0.00    +0.041 C 
ATOM     14  C   UNL     1      35.985 -19.842 -20.868  0.00  0.00    +0.139 C 
ATOM     15  C   UNL     1      37.015 -19.031 -21.343  0.00  0.00    +0.040 C 
ATOM     16  C   UNL     1      34.828 -20.018 -21.629  0.00  0.00    +0.040 C 
BRANCH  14  17
ATOM     17  O   UNL     1      36.106 -20.462 -19.662  0.00  0.00    -0.471 OA
ATOM     18  C   UNL     1      35.281 -21.603 -19.431  0.00  0.00    +0.252 C 
ENDBRANCH  14  17
ENDBRANCH  10  11
ENDBRANCH   8  10
ENDBRANCH   1   2
BRANCH   1  19
ATOM     19  C   UNL     1      32.303 -12.659 -21.073  0.00  0.00    +0.227 C 
BRANCH  19  20
ATOM     20  O   UNL     1      31.258 -11.692 -21.163  0.00  0.00    -0.474 OA
BRANCH  20  24
ATOM     21  C   UNL     1      32.353  -7.807 -22.128  0.00  0.00    -0.021 C 
ATOM     22  C   UNL     1      32.489  -8.264 -20.817  0.00  0.00    -0.001 C 
ATOM     23  C   UNL     1      31.849  -8.655 -23.114  0.00  0.00    -0.001 C 
ATOM     24  C   UNL     1      31.617 -10.418 -21.479  0.00  0.00    +0.139 C 
ATOM     25  C   UNL     1      32.121  -9.570 -20.492  0.00  0.00    +0.037 C 
ATOM     26  C   UNL     1      31.480  -9.960 -22.789  0.00  0.00    +0.037 C 
BRANCH  21  27
ATOM     27  C   UNL     1      32.751  -6.396 -22.477  0.00  0.00    +0.047 C 
BRANCH  27  32
ATOM     28  S   UNL     1      32.370  -4.610 -24.539  0.00  0.00    -0.048 S 
ATOM     29  O   UNL     1      30.285  -5.126 -21.333  0.00  0.00    -0.274 OA
ATOM     30  O   UNL     1      31.725  -2.063 -24.475  0.00  0.00    -0.263 OA
ATOM     31  N   UNL     1      30.889  -3.452 -22.811  0.00  0.00    -0.246 N 
ATOM     32  C   UNL     1      31.659  -5.672 -23.245  0.00  0.00    +0.137 C 
ATOM     33  C   UNL     1      30.868  -4.750 -22.344  0.00  0.00    +0.239 C 
ATOM     34  C   UNL     1      31.605  -3.154 -23.940  0.00  0.00    +0.279 C 
ATOM     35  H   UNL     1      30.394  -2.746 -22.335  0.00  0.00    +0.158 HD
ENDBRANCH  27  32
ENDBRANCH  21  27
ENDBRANCH  20  24
ENDBRANCH  19  20
ENDBRANCH   1  19
TORSDOF 9
ENDMDL
MODEL 5
REMARK VINA RESULT:     -12.7      3.155     11.581
REMARK  Name = 9826451
REMARK  9 active torsions:
REMARK  status: ('A' for Active; 'I' for Inactive)
REMARK    1  A    between atoms: C_1  and  N_2
REMARK    2  A    between atoms: C_1  and  C_19
REMARK    3  A    between atoms: C_8  and  O_10
REMARK    4  A    between atoms: O_10  and  C_11
REMARK    5  A    between atoms: C_14  and  O_17
REMARK    6  A    between atoms: C_19  and  O_20
REMARK    7  A    between atoms: O_20  and  C_24
REMARK    8  A    between atoms: C_21  and  C_27
REMARK    9  A    between atoms: C_27  and  C_32
REMARK                            x       y       z     vdW  Elec       q    Type
REMARK                         _______ _______ _______ _____ _____    ______ ____
ROOT
ATOM      1  C   UNL     1      34.775 -18.625 -23.943  0.00  0.00    +0.139 C 
ENDROOT
BRANCH   1   2
ATOM      2  N   UNL     1      34.921 -17.221 -23.640  0.00  0.00    -0.291 N 
ATOM      3  C   UNL     1      35.682 -16.839 -22.450  0.00  0.00    +0.113 C 
ATOM      4  N   UNL     1      33.645 -16.614 -25.541  0.00  0.00    -0.233 NA
ATOM      5  N   UNL     1      33.227 -14.287 -26.003  0.00  0.00    -0.214 NA
ATOM      6  C   UNL     1      34.342 -16.235 -24.449  0.00  0.00    +0.115 C 
ATOM      7  C   UNL     1      34.522 -14.919 -24.074  0.00  0.00    +0.146 C 
ATOM      8  C   UNL     1      33.936 -13.978 -24.898  0.00  0.00    +0.210 C 
ATOM      9  C   UNL     1      33.123 -15.604 -26.261  0.00  0.00    +0.254 C 
BRANCH   8  10
ATOM     10  O   UNL     1      34.070 -12.649 -24.594  0.00  0.00    -0.440 OA
BRANCH  10  11
ATOM     11  C   UNL     1      33.298 -12.153 -23.562  0.00  0.00    +0.147 C 
ATOM     12  C   UNL     1      33.114 -10.778 -23.426  0.00  0.00    +0.041 C 
ATOM     13  C   UNL     1      32.700 -13.030 -22.655  0.00  0.00    +0.041 C 
ATOM     14  C   UNL     1      31.738 -11.153 -21.478  0.00  0.00    +0.139 C 
ATOM     15  C   UNL     1      32.334 -10.277 -22.384  0.00  0.00    +0.040 C 
ATOM     16  C   UNL     1      31.920 -12.530 -21.614  0.00  0.00    +0.040 C 
BRANCH  14  17
ATOM     17  O   UNL     1      30.975 -10.666 -20.461  0.00  0.00    -0.471 OA
ATOM     18  C   UNL     1      31.555  -9.652 -19.642  0.00  0.00    +0.252 C 
ENDBRANCH  14  17
ENDBRANCH  10  11
ENDBRANCH   8  10
ENDBRANCH   1   2
BRANCH   1  19
ATOM     19  C   UNL     1      35.302 -19.465 -22.792  0.00  0.00    +0.227 C 
BRANCH  19  20
ATOM     20  O   UNL     1      34.576 -19.152 -21.605  0.00  0.00    -0.474 OA
BRANCH  20  24
ATOM     21  C   UNL     1      33.830 -22.271 -18.970  0.00  0.00    -0.021 C 
ATOM     22  C   UNL     1      32.773 -21.504 -19.459  0.00  0.00    -0.001 C 
ATOM     23  C   UNL     1      35.138 -21.990 -19.366  0.00  0.00    -0.001 C 
ATOM     24  C   UNL     1      34.331 -20.175 -20.741  0.00  0.00    +0.139 C 
ATOM     25  C   UNL     1      33.023 -20.456 -20.345  0.00  0.00    +0.037 C 
ATOM     26  C   UNL     1      35.388 -20.941 -20.250  0.00  0.00    +0.037 C 
BRANCH  21  27
ATOM     27  C   UNL     1      33.559 -23.404 -18.013  0.00  0.00    +0.047 C 
BRANCH  27  32
ATOM     28  S   UNL     1      34.010 -23.770 -15.321  0.00  0.00    -0.048 S 
ATOM     29  O   UNL     1      30.758 -22.768 -17.142  0.00  0.00    -0.274 OA
ATOM     30  O   UNL     1      32.546 -24.990 -13.510  0.00  0.00    -0.263 OA
ATOM     31  N   UNL     1      31.461 -23.914 -15.260  0.00  0.00    -0.246 N 
ATOM     32  C   UNL     1      33.120 -22.901 -16.649  0.00  0.00    +0.137 C 
ATOM     33  C   UNL     1      31.652 -23.171 -16.406  0.00  0.00    +0.239 C 
ATOM     34  C   UNL     1      32.548 -24.329 -14.537  0.00  0.00    +0.279 C 
ATOM     35  H   UNL     1      30.550 -24.144 -14.964  0.00  0.00    +0.158 HD
ENDBRANCH  27  32
ENDBRANCH  21  27
ENDBRANCH  20  24
ENDBRANCH  19  20
ENDBRANCH   1  19
TORSDOF 9
ENDMDL
MODEL 6
REMARK VINA RESULT:     -12.7      5.610      9.981
REMARK  Name = 9826451
REMARK  9 active torsions:
REMARK  status: ('A' for Active; 'I' for Inactive)
REMARK    1  A    between atoms: C_1  and  N_2
REMARK    2  A    between atoms: C_1  and  C_19
REMARK    3  A    between atoms: C_8  and  O_10
REMARK    4  A    between atoms: O_10  and  C_11
REMARK    5  A    between atoms: C_14  and  O_17
REMARK    6  A    between atoms: C_19  and  O_20
REMARK    7  A    between atoms: O_20  and  C_24
REMARK    8  A    between atoms: C_21  and  C_27
REMARK    9  A    between atoms: C_27  and  C_32
REMARK                            x       y       z     vdW  Elec       q    Type
REMARK                         _______ _______ _______ _____ _____    ______ ____
ROOT
ATOM      1  C   UNL     1      33.627 -14.297 -23.817  0.00  0.00    +0.139 C 
ENDROOT
BRANCH   1   2
ATOM      2  N   UNL     1      34.233 -15.159 -22.830  0.00  0.00    -0.291 N 
ATOM      3  C   UNL     1      34.427 -14.642 -21.475  0.00  0.00    +0.113 C 
ATOM      4  N   UNL     1      34.453 -16.912 -24.407  0.00  0.00    -0.233 NA
ATOM      5  N   UNL     1      35.456 -18.998 -23.740  0.00  0.00    -0.214 NA
ATOM      6  C   UNL     1      34.644 -16.459 -23.150  0.00  0.00    +0.115 C 
ATOM      7  C   UNL     1      35.226 -17.208 -22.147  0.00  0.00    +0.146 C 
ATOM      8  C   UNL     1      35.616 -18.483 -22.504  0.00  0.00    +0.210 C 
ATOM      9  C   UNL     1      34.876 -18.171 -24.629  0.00  0.00    +0.254 C 
BRANCH   8  10
ATOM     10  O   UNL     1      36.202 -19.289 -21.563  0.00  0.00    -0.440 OA
BRANCH  10  11
ATOM     11  C   UNL     1      35.379 -20.146 -20.860  0.00  0.00    +0.147 C 
ATOM     12  C   UNL     1      33.995 -19.978 -20.904  0.00  0.00    +0.041 C 
ATOM     13  C   UNL     1      35.932 -21.182 -20.106  0.00  0.00    +0.041 C 
ATOM     14  C   UNL     1      33.717 -21.879 -19.440  0.00  0.00    +0.139 C 
ATOM     15  C   UNL     1      33.164 -20.844 -20.194  0.00  0.00    +0.040 C 
ATOM     16  C   UNL     1      35.101 -22.048 -19.397  0.00  0.00    +0.040 C 
BRANCH  14  17
ATOM     17  O   UNL     1      32.906 -22.725 -18.748  0.00  0.00    -0.471 OA
ATOM     18  C   UNL     1      33.367 -23.169 -17.473  0.00  0.00    +0.252 C 
ENDBRANCH  14  17
ENDBRANCH  10  11
ENDBRANCH   8  10
ENDBRANCH   1   2
BRANCH   1  19
ATOM     19  C   UNL     1      33.796 -12.842 -23.412  0.00  0.00    +0.227 C 
BRANCH  19  20
ATOM     20  O   UNL     1      32.556 -12.339 -22.920  0.00  0.00    -0.474 OA
BRANCH  20  24
ATOM     21  C   UNL     1      32.363  -8.281 -22.070  0.00  0.00    -0.021 C 
ATOM     22  C   UNL     1      33.024  -8.722 -23.216  0.00  0.00    -0.001 C 
ATOM     23  C   UNL     1      31.767  -9.203 -21.209  0.00  0.00    -0.001 C 
ATOM     24  C   UNL     1      32.493 -11.008 -22.641  0.00  0.00    +0.139 C 
ATOM     25  C   UNL     1      33.089 -10.086 -23.502  0.00  0.00    +0.037 C 
ATOM     26  C   UNL     1      31.833 -10.566 -21.495  0.00  0.00    +0.037 C 
BRANCH  21  27
ATOM     27  C   UNL     1      32.293  -6.807 -21.763  0.00  0.00    +0.047 C 
BRANCH  27  32
ATOM     28  S   UNL     1      32.436  -5.269 -24.043  0.00  0.00    -0.048 S 
ATOM     29  O   UNL     1      29.899  -5.109 -21.139  0.00  0.00    -0.274 OA
ATOM     30  O   UNL     1      32.147  -2.675 -24.356  0.00  0.00    -0.263 OA
ATOM     31  N   UNL     1      30.917  -3.726 -22.689  0.00  0.00    -0.246 N 
ATOM     32  C   UNL     1      31.421  -6.061 -22.757  0.00  0.00    +0.137 C 
ATOM     33  C   UNL     1      30.656  -4.940 -22.089  0.00  0.00    +0.239 C 
ATOM     34  C   UNL     1      31.808  -3.666 -23.727  0.00  0.00    +0.279 C 
ATOM     35  H   UNL     1      30.467  -2.909 -22.372  0.00  0.00    +0.158 HD
ENDBRANCH  27  32
ENDBRANCH  21  27
ENDBRANCH  20  24
ENDBRANCH  19  20
ENDBRANCH   1  19
TORSDOF 9
ENDMDL
MODEL 7
REMARK VINA RESULT:     -12.7      4.150     11.708
REMARK  Name = 9826451
REMARK  9 active torsions:
REMARK  status: ('A' for Active; 'I' for Inactive)
REMARK    1  A    between atoms: C_1  and  N_2
REMARK    2  A    between atoms: C_1  and  C_19
REMARK    3  A    between atoms: C_8  and  O_10
REMARK    4  A    between atoms: O_10  and  C_11
REMARK    5  A    between atoms: C_14  and  O_17
REMARK    6  A    between atoms: C_19  and  O_20
REMARK    7  A    between atoms: O_20  and  C_24
REMARK    8  A    between atoms: C_21  and  C_27
REMARK    9  A    between atoms: C_27  and  C_32
REMARK                            x       y       z     vdW  Elec       q    Type
REMARK                         _______ _______ _______ _____ _____    ______ ____
ROOT
ATOM      1  C   UNL     1      35.168 -20.131 -21.870  0.00  0.00    +0.139 C 
ENDROOT
BRANCH   1   2
ATOM      2  N   UNL     1      35.416 -18.714 -21.983  0.00  0.00    -0.291 N 
ATOM      3  C   UNL     1      36.073 -18.028 -20.869  0.00  0.00    +0.113 C 
ATOM      4  N   UNL     1      34.429 -18.650 -24.135  0.00  0.00    -0.233 NA
ATOM      5  N   UNL     1      34.298 -16.559 -25.325  0.00  0.00    -0.214 NA
ATOM      6  C   UNL     1      35.033 -17.994 -23.121  0.00  0.00    +0.115 C 
ATOM      7  C   UNL     1      35.298 -16.639 -23.137  0.00  0.00    +0.146 C 
ATOM      8  C   UNL     1      34.905 -15.966 -24.276  0.00  0.00    +0.210 C 
ATOM      9  C   UNL     1      34.093 -17.883 -25.189  0.00  0.00    +0.254 C 
BRANCH   8  10
ATOM     10  O   UNL     1      35.134 -14.619 -24.369  0.00  0.00    -0.440 OA
BRANCH  10  11
ATOM     11  C   UNL     1      34.211 -13.777 -23.780  0.00  0.00    +0.147 C 
ATOM     12  C   UNL     1      34.106 -12.452 -24.204  0.00  0.00    +0.041 C 
ATOM     13  C   UNL     1      33.384 -14.252 -22.762  0.00  0.00    +0.041 C 
ATOM     14  C   UNL     1      32.347 -12.077 -22.591  0.00  0.00    +0.139 C 
ATOM     15  C   UNL     1      33.174 -11.602 -23.610  0.00  0.00    +0.040 C 
ATOM     16  C   UNL     1      32.452 -13.402 -22.168  0.00  0.00    +0.040 C 
BRANCH  14  17
ATOM     17  O   UNL     1      31.436 -11.247 -22.011  0.00  0.00    -0.471 OA
ATOM     18  C   UNL     1      31.879  -9.935 -21.667  0.00  0.00    +0.252 C 
ENDBRANCH  14  17
ENDBRANCH  10  11
ENDBRANCH   8  10
ENDBRANCH   1   2
BRANCH   1  19
ATOM     19  C   UNL     1      34.391 -20.424 -20.598  0.00  0.00    +0.227 C 
BRANCH  19  20
ATOM     20  O   UNL     1      34.550 -21.798 -20.250  0.00  0.00    -0.474 OA
BRANCH  20  24
ATOM     21  C   UNL     1      36.239 -22.630 -16.551  0.00  0.00    -0.021 C 
ATOM     22  C   UNL     1      34.934 -23.036 -16.828  0.00  0.00    -0.001 C 
ATOM     23  C   UNL     1      36.977 -21.945 -17.517  0.00  0.00    -0.001 C 
ATOM     24  C   UNL     1      35.103 -22.071 -19.036  0.00  0.00    +0.139 C 
ATOM     25  C   UNL     1      34.366 -22.756 -18.071  0.00  0.00    +0.037 C 
ATOM     26  C   UNL     1      36.409 -21.665 -18.758  0.00  0.00    +0.037 C 
BRANCH  21  27
ATOM     27  C   UNL     1      36.852 -22.933 -15.208  0.00  0.00    +0.047 C 
BRANCH  27  32
ATOM     28  S   UNL     1      36.007 -25.062 -13.678  0.00  0.00    -0.048 S 
ATOM     29  O   UNL     1      39.479 -24.383 -15.220  0.00  0.00    -0.274 OA
ATOM     30  O   UNL     1      37.201 -26.295 -11.688  0.00  0.00    -0.263 OA
ATOM     31  N   UNL     1      38.520 -25.409 -13.382  0.00  0.00    -0.246 N 
ATOM     32  C   UNL     1      37.072 -24.422 -15.007  0.00  0.00    +0.137 C 
ATOM     33  C   UNL     1      38.491 -24.718 -14.576  0.00  0.00    +0.239 C 
ATOM     34  C   UNL     1      37.343 -25.698 -12.743  0.00  0.00    +0.279 C 
ATOM     35  H   UNL     1      39.379 -25.691 -12.993  0.00  0.00    +0.158 HD
ENDBRANCH  27  32
ENDBRANCH  21  27
ENDBRANCH  20  24
ENDBRANCH  19  20
ENDBRANCH   1  19
TORSDOF 9
ENDMDL
MODEL 8
REMARK VINA RESULT:     -12.7      4.000     11.883
REMARK  Name = 9826451
REMARK  9 active torsions:
REMARK  status: ('A' for Active; 'I' for Inactive)
REMARK    1  A    between atoms: C_1  and  N_2
REMARK    2  A    between atoms: C_1  and  C_19
REMARK    3  A    between atoms: C_8  and  O_10
REMARK    4  A    between atoms: O_10  and  C_11
REMARK    5  A    between atoms: C_14  and  O_17
REMARK    6  A    between atoms: C_19  and  O_20
REMARK    7  A    between atoms: O_20  and  C_24
REMARK    8  A    between atoms: C_21  and  C_27
REMARK    9  A    between atoms: C_27  and  C_32
REMARK                            x       y       z     vdW  Elec       q    Type
REMARK                         _______ _______ _______ _____ _____    ______ ____
ROOT
ATOM      1  C   UNL     1      35.399 -16.479 -22.413  0.00  0.00    +0.139 C 
ENDROOT
BRANCH   1   2
ATOM      2  N   UNL     1      34.337 -15.652 -21.892  0.00  0.00    -0.291 N 
ATOM      3  C   UNL     1      33.727 -16.022 -20.614  0.00  0.00    +0.113 C 
ATOM      4  N   UNL     1      34.462 -14.205 -23.762  0.00  0.00    -0.233 NA
ATOM      5  N   UNL     1      32.968 -12.321 -23.914  0.00  0.00    -0.214 NA
ATOM      6  C   UNL     1      33.881 -14.525 -22.586  0.00  0.00    +0.115 C 
ATOM      7  C   UNL     1      32.853 -13.800 -22.018  0.00  0.00    +0.146 C 
ATOM      8  C   UNL     1      32.433 -12.697 -22.734  0.00  0.00    +0.210 C 
ATOM      9  C   UNL     1      33.963 -13.108 -24.363  0.00  0.00    +0.254 C 
BRANCH   8  10
ATOM     10  O   UNL     1      31.416 -11.925 -22.236  0.00  0.00    -0.440 OA
BRANCH  10  11
ATOM     11  C   UNL     1      31.766 -10.775 -21.558  0.00  0.00    +0.147 C 
ATOM     12  C   UNL     1      31.999  -9.593 -22.261  0.00  0.00    +0.041 C 
ATOM     13  C   UNL     1      31.888 -10.794 -20.167  0.00  0.00    +0.041 C 
ATOM     14  C   UNL     1      32.473  -8.451 -20.187  0.00  0.00    +0.139 C 
ATOM     15  C   UNL     1      32.352  -8.431 -21.576  0.00  0.00    +0.040 C 
ATOM     16  C   UNL     1      32.240  -9.633 -19.482  0.00  0.00    +0.040 C 
BRANCH  14  17
ATOM     17  O   UNL     1      32.817  -7.316 -19.517  0.00  0.00    -0.471 OA
ATOM     18  C   UNL     1      32.288  -6.086 -20.008  0.00  0.00    +0.252 C 
ENDBRANCH  14  17
ENDBRANCH  10  11
ENDBRANCH   8  10
ENDBRANCH   1   2
BRANCH   1  19
ATOM     19  C   UNL     1      35.601 -17.692 -21.521  0.00  0.00    +0.227 C 
BRANCH  19  20
ATOM     20  O   UNL     1      34.871 -18.798 -22.051  0.00  0.00    -0.474 OA
BRANCH  20  24
ATOM     21  C   UNL     1      34.117 -21.971 -19.485  0.00  0.00    -0.021 C 
ATOM     22  C   UNL     1      33.057 -21.230 -20.006  0.00  0.00    -0.001 C 
ATOM     23  C   UNL     1      35.431 -21.647 -19.825  0.00  0.00    -0.001 C 
ATOM     24  C   UNL     1      34.624 -19.838 -21.209  0.00  0.00    +0.139 C 
ATOM     25  C   UNL     1      33.310 -20.163 -20.868  0.00  0.00    +0.037 C 
ATOM     26  C   UNL     1      35.683 -20.580 -20.687  0.00  0.00    +0.037 C 
BRANCH  21  27
ATOM     27  C   UNL     1      33.843 -23.124 -18.553  0.00  0.00    +0.047 C 
BRANCH  27  32
ATOM     28  S   UNL     1      34.576 -23.483 -15.922  0.00  0.00    -0.048 S 
ATOM     29  O   UNL     1      31.115 -22.634 -17.403  0.00  0.00    -0.274 OA
ATOM     30  O   UNL     1      33.361 -24.785 -13.989  0.00  0.00    -0.263 OA
ATOM     31  N   UNL     1      32.056 -23.754 -15.611  0.00  0.00    -0.246 N 
ATOM     32  C   UNL     1      33.518 -22.652 -17.147  0.00  0.00    +0.137 C 
ATOM     33  C   UNL     1      32.096 -22.996 -16.763  0.00  0.00    +0.239 C 
ATOM     34  C   UNL     1      33.228 -24.119 -15.004  0.00  0.00    +0.279 C 
ATOM     35  H   UNL     1      31.191 -24.031 -15.230  0.00  0.00    +0.158 HD
ENDBRANCH  27  32
ENDBRANCH  21  27
ENDBRANCH  20  24
ENDBRANCH  19  20
ENDBRANCH   1  19
TORSDOF 9
ENDMDL
MODEL 9
REMARK VINA RESULT:     -12.6      5.086      9.487
REMARK  Name = 9826451
REMARK  9 active torsions:
REMARK  status: ('A' for Active; 'I' for Inactive)
REMARK    1  A    between atoms: C_1  and  N_2
REMARK    2  A    between atoms: C_1  and  C_19
REMARK    3  A    between atoms: C_8  and  O_10
REMARK    4  A    between atoms: O_10  and  C_11
REMARK    5  A    between atoms: C_14  and  O_17
REMARK    6  A    between atoms: C_19  and  O_20
REMARK    7  A    between atoms: O_20  and  C_24
REMARK    8  A    between atoms: C_21  and  C_27
REMARK    9  A    between atoms: C_27  and  C_32
REMARK                            x       y       z     vdW  Elec       q    Type
REMARK                         _______ _______ _______ _____ _____    ______ ____
ROOT
ATOM      1  C   UNL     1      34.171 -13.963 -24.298  0.00  0.00    +0.139 C 
ENDROOT
BRANCH   1   2
ATOM      2  N   UNL     1      34.519 -15.364 -24.270  0.00  0.00    -0.291 N 
ATOM      3  C   UNL     1      34.557 -16.100 -25.535  0.00  0.00    +0.113 C 
ATOM      4  N   UNL     1      34.764 -15.320 -21.915  0.00  0.00    -0.233 NA
ATOM      5  N   UNL     1      35.368 -17.335 -20.741  0.00  0.00    -0.214 NA
ATOM      6  C   UNL     1      34.805 -16.022 -23.067  0.00  0.00    +0.115 C 
ATOM      7  C   UNL     1      35.115 -17.365 -23.135  0.00  0.00    +0.146 C 
ATOM      8  C   UNL     1      35.391 -17.976 -21.928  0.00  0.00    +0.210 C 
ATOM      9  C   UNL     1      35.051 -16.029 -20.807  0.00  0.00    +0.254 C 
BRANCH   8  10
ATOM     10  O   UNL     1      35.709 -19.309 -21.911  0.00  0.00    -0.440 OA
BRANCH  10  11
ATOM     11  C   UNL     1      34.979 -20.124 -21.069  0.00  0.00    +0.147 C 
ATOM     12  C   UNL     1      35.633 -21.044 -20.249  0.00  0.00    +0.041 C 
ATOM     13  C   UNL     1      33.587 -20.027 -21.037  0.00  0.00    +0.041 C 
ATOM     14  C   UNL     1      33.505 -21.770 -19.367  0.00  0.00    +0.139 C 
ATOM     15  C   UNL     1      34.896 -21.867 -19.398  0.00  0.00    +0.040 C 
ATOM     16  C   UNL     1      32.851 -20.849 -20.185  0.00  0.00    +0.040 C 
BRANCH  14  17
ATOM     17  O   UNL     1      32.785 -22.573 -18.535  0.00  0.00    -0.471 OA
ATOM     18  C   UNL     1      33.519 -23.379 -17.615  0.00  0.00    +0.252 C 
ENDBRANCH  14  17
ENDBRANCH  10  11
ENDBRANCH   8  10
ENDBRANCH   1   2
BRANCH   1  19
ATOM     19  C   UNL     1      32.660 -13.802 -24.273  0.00  0.00    +0.227 C 
BRANCH  19  20
ATOM     20  O   UNL     1      32.250 -13.376 -22.975  0.00  0.00    -0.474 OA
BRANCH  20  24
ATOM     21  C   UNL     1      32.641  -9.339 -22.095  0.00  0.00    -0.021 C 
ATOM     22  C   UNL     1      33.199  -9.855 -23.264  0.00  0.00    -0.001 C 
ATOM     23  C   UNL     1      31.952 -10.180 -21.221  0.00  0.00    -0.001 C 
ATOM     24  C   UNL     1      32.378 -12.052 -22.687  0.00  0.00    +0.139 C 
ATOM     25  C   UNL     1      33.068 -11.211 -23.561  0.00  0.00    +0.037 C 
ATOM     26  C   UNL     1      31.821 -11.536 -21.516  0.00  0.00    +0.037 C 
BRANCH  21  27
ATOM     27  C   UNL     1      32.783  -7.873 -21.776  0.00  0.00    +0.047 C 
BRANCH  27  32
ATOM     28  S   UNL     1      31.402  -6.473 -23.704  0.00  0.00    -0.048 S 
ATOM     29  O   UNL     1      31.456  -5.964 -19.879  0.00  0.00    -0.274 OA
ATOM     30  O   UNL     1      31.038  -3.885 -23.981  0.00  0.00    -0.263 OA
ATOM     31  N   UNL     1      31.211  -4.747 -21.831  0.00  0.00    -0.246 N 
ATOM     32  C   UNL     1      31.488  -7.115 -22.004  0.00  0.00    +0.137 C 
ATOM     33  C   UNL     1      31.389  -5.905 -21.102  0.00  0.00    +0.239 C 
ATOM     34  C   UNL     1      31.183  -4.811 -23.199  0.00  0.00    +0.279 C 
ATOM     35  H   UNL     1      31.106  -3.883 -21.372  0.00  0.00    +0.158 HD
ENDBRANCH  27  32
ENDBRANCH  21  27
ENDBRANCH  20  24
ENDBRANCH  19  20
ENDBRANCH   1  19
TORSDOF 9
ENDMDL
