MODEL 1
REMARK VINA RESULT:     -13.7      0.000      0.000
REMARK  Name = 10156987
REMARK  5 active torsions:
REMARK  status: ('A' for Active; 'I' for Inactive)
REMARK    1  A    between atoms: C_2  and  C_23
REMARK    2  A    between atoms: C_9  and  C_13
REMARK    3  A    between atoms: C_23  and  N_24
REMARK    4  A    between atoms: C_25  and  C_31
REMARK    5  A    between atoms: C_31  and  N_32
REMARK                            x       y       z     vdW  Elec       q    Type
REMARK                         _______ _______ _______ _____ _____    ______ ____
ROOT
ATOM      1  N   UNL     1      36.450 -20.698 -19.641  0.00  0.00    -0.312 N 
ATOM      2  C   UNL     1      35.620 -18.573 -23.063  0.00  0.00    -0.043 C 
ATOM      3  C   UNL     1      34.662 -19.343 -22.402  0.00  0.00    -0.005 C 
ATOM      4  C   UNL     1      36.924 -18.480 -22.593  0.00  0.00    -0.005 C 
ATOM      5  C   UNL     1      35.035 -20.039 -21.234  0.00  0.00    +0.014 C 
ATOM      6  C   UNL     1      36.352 -19.932 -20.781  0.00  0.00    +0.048 C 
ATOM      7  C   UNL     1      37.317 -19.162 -21.439  0.00  0.00    +0.014 C 
ATOM      8  C   UNL     1      34.349 -20.894 -20.328  0.00  0.00    +0.016 C 
ATOM      9  C   UNL     1      35.245 -21.283 -19.359  0.00  0.00    +0.053 C 
ATOM     10  H   UNL     1      37.269 -20.809 -19.106  0.00  0.00    +0.152 HD
ENDROOT
BRANCH   9  13
ATOM     11  O   UNL     1      32.921 -22.803 -18.684  0.00  0.00    -0.270 OA
ATOM     12  N   UNL     1      33.891 -23.692 -16.807  0.00  0.00    -0.280 N 
ATOM     13  C   UNL     1      35.155 -22.122 -18.205  0.00  0.00    +0.067 C 
ATOM     14  C   UNL     1      36.203 -22.220 -17.369  0.00  0.00    +0.007 C 
ATOM     15  C   UNL     1      33.894 -22.893 -17.935  0.00  0.00    +0.251 C 
ATOM     16  C   UNL     1      36.147 -23.074 -16.185  0.00  0.00    +0.014 C 
ATOM     17  C   UNL     1      34.981 -23.801 -15.928  0.00  0.00    +0.051 C 
ATOM     18  C   UNL     1      37.230 -23.183 -15.309  0.00  0.00    +0.001 C 
ATOM     19  C   UNL     1      34.891 -24.631 -14.808  0.00  0.00    +0.015 C 
ATOM     20  C   UNL     1      37.142 -24.012 -14.188  0.00  0.00    +0.000 C 
ATOM     21  C   UNL     1      35.975 -24.733 -13.938  0.00  0.00    +0.001 C 
ATOM     22  H   UNL     1      33.079 -24.213 -16.609  0.00  0.00    +0.155 HD
ENDBRANCH   9  13
BRANCH   2  23
ATOM     23  C   UNL     1      35.230 -17.830 -24.307  0.00  0.00    -0.050 C 
BRANCH  23  24
ATOM     24  N   UNL     1      34.439 -16.637 -24.007  0.00  0.00    +0.390 N 
ATOM     25  C   UNL     1      33.951 -13.749 -23.853  0.00  0.00    -0.026 C 
ATOM     26  C   UNL     1      34.263 -14.598 -22.616  0.00  0.00    -0.025 C 
ATOM     27  C   UNL     1      33.332 -14.631 -24.943  0.00  0.00    -0.025 C 
ATOM     28  C   UNL     1      35.104 -15.823 -22.980  0.00  0.00    -0.077 C 
ATOM     29  C   UNL     1      34.203 -15.856 -25.230  0.00  0.00    -0.077 C 
ATOM     30  H   UNL     1      33.533 -16.928 -23.641  0.00  0.00    -0.079 HD
BRANCH  25  31
ATOM     31  C   UNL     1      33.030 -12.584 -23.502  0.00  0.00    -0.086 C 
BRANCH  31  32
ATOM     32  N   UNL     1      32.012 -12.996 -22.548  0.00  0.00    +0.380 N 
ATOM     33  H   UNL     1      32.413 -13.015 -21.610  0.00  0.00    -0.089 HD
ATOM     34  H   UNL     1      31.676 -13.928 -22.792  0.00  0.00    -0.089 HD
ATOM     35  H   UNL     1      31.235 -12.336 -22.573  0.00  0.00    -0.089 HD
ENDBRANCH  31  32
ENDBRANCH  25  31
ENDBRANCH  23  24
ENDBRANCH   2  23
TORSDOF 5
ENDMDL
MODEL 2
REMARK VINA RESULT:     -13.5      1.482      2.493
REMARK  Name = 10156987
REMARK  5 active torsions:
REMARK  status: ('A' for Active; 'I' for Inactive)
REMARK    1  A    between atoms: C_2  and  C_23
REMARK    2  A    between atoms: C_9  and  C_13
REMARK    3  A    between atoms: C_23  and  N_24
REMARK    4  A    between atoms: C_25  and  C_31
REMARK    5  A    between atoms: C_31  and  N_32
REMARK                            x       y       z     vdW  Elec       q    Type
REMARK                         _______ _______ _______ _____ _____    ______ ____
ROOT
ATOM      1  N   UNL     1      34.681 -22.206 -18.118  0.00  0.00    -0.312 N 
ATOM      2  C   UNL     1      35.372 -19.910 -21.460  0.00  0.00    -0.043 C 
ATOM      3  C   UNL     1      36.390 -20.304 -20.590  0.00  0.00    -0.005 C 
ATOM      4  C   UNL     1      34.051 -20.280 -21.241  0.00  0.00    -0.005 C 
ATOM      5  C   UNL     1      36.062 -21.091 -19.468  0.00  0.00    +0.014 C 
ATOM      6  C   UNL     1      34.727 -21.449 -19.267  0.00  0.00    +0.048 C 
ATOM      7  C   UNL     1      33.702 -21.059 -20.135  0.00  0.00    +0.014 C 
ATOM      8  C   UNL     1      36.812 -21.658 -18.401  0.00  0.00    +0.016 C 
ATOM      9  C   UNL     1      35.936 -22.337 -17.587  0.00  0.00    +0.053 C 
ATOM     10  H   UNL     1      33.862 -22.596 -17.733  0.00  0.00    +0.152 HD
ENDROOT
BRANCH   9  13
ATOM     11  O   UNL     1      33.744 -23.131 -15.934  0.00  0.00    -0.270 OA
ATOM     12  N   UNL     1      35.099 -24.221 -14.440  0.00  0.00    -0.280 N 
ATOM     13  C   UNL     1      36.085 -23.095 -16.384  0.00  0.00    +0.067 C 
ATOM     14  C   UNL     1      37.311 -23.467 -15.979  0.00  0.00    +0.007 C 
ATOM     15  C   UNL     1      34.872 -23.476 -15.582  0.00  0.00    +0.251 C 
ATOM     16  C   UNL     1      37.498 -24.249 -14.759  0.00  0.00    +0.014 C 
ATOM     17  C   UNL     1      36.376 -24.615 -14.009  0.00  0.00    +0.051 C 
ATOM     18  C   UNL     1      38.769 -24.641 -14.328  0.00  0.00    +0.001 C 
ATOM     19  C   UNL     1      36.515 -25.364 -12.838  0.00  0.00    +0.015 C 
ATOM     20  C   UNL     1      38.910 -25.390 -13.157  0.00  0.00    +0.000 C 
ATOM     21  C   UNL     1      37.786 -25.751 -12.415  0.00  0.00    +0.001 C 
ATOM     22  H   UNL     1      34.322 -24.490 -13.899  0.00  0.00    +0.155 HD
ENDBRANCH   9  13
BRANCH   2  23
ATOM     23  C   UNL     1      35.715 -19.071 -22.655  0.00  0.00    -0.050 C 
BRANCH  23  24
ATOM     24  N   UNL     1      34.958 -17.819 -22.681  0.00  0.00    +0.390 N 
ATOM     25  C   UNL     1      34.649 -14.911 -22.903  0.00  0.00    -0.026 C 
ATOM     26  C   UNL     1      34.560 -15.648 -21.563  0.00  0.00    -0.025 C 
ATOM     27  C   UNL     1      34.284 -15.867 -24.044  0.00  0.00    -0.025 C 
ATOM     28  C   UNL     1      35.380 -16.940 -21.582  0.00  0.00    -0.077 C 
ATOM     29  C   UNL     1      35.112 -17.152 -23.981  0.00  0.00    -0.077 C 
ATOM     30  H   UNL     1      33.969 -18.032 -22.552  0.00  0.00    -0.079 HD
BRANCH  25  31
ATOM     31  C   UNL     1      33.751 -13.677 -22.913  0.00  0.00    -0.086 C 
BRANCH  31  32
ATOM     32  N   UNL     1      34.295 -12.647 -23.783  0.00  0.00    +0.380 N 
ATOM     33  H   UNL     1      34.586 -13.066 -24.666  0.00  0.00    -0.089 HD
ATOM     34  H   UNL     1      35.099 -12.210 -23.332  0.00  0.00    -0.089 HD
ATOM     35  H   UNL     1      33.580 -11.940 -23.962  0.00  0.00    -0.089 HD
ENDBRANCH  31  32
ENDBRANCH  25  31
ENDBRANCH  23  24
ENDBRANCH   2  23
TORSDOF 5
ENDMDL
MODEL 3
REMARK VINA RESULT:     -13.5      2.054      2.818
REMARK  Name = 10156987
REMARK  5 active torsions:
REMARK  status: ('A' for Active; 'I' for Inactive)
REMARK    1  A    between atoms: C_2  and  C_23
REMARK    2  A    between atoms: C_9  and  C_13
REMARK    3  A    between atoms: C_23  and  N_24
REMARK    4  A    between atoms: C_25  and  C_31
REMARK    5  A    between atoms: C_31  and  N_32
REMARK                            x       y       z     vdW  Elec       q    Type
REMARK                         _______ _______ _______ _____ _____    ______ ____
ROOT
ATOM      1  N   UNL     1      35.260 -21.609 -18.861  0.00  0.00    -0.312 N 
ATOM      2  C   UNL     1      35.423 -19.437 -22.350  0.00  0.00    -0.043 C 
ATOM      3  C   UNL     1      34.231 -19.944 -21.832  0.00  0.00    -0.005 C 
ATOM      4  C   UNL     1      36.637 -19.641 -21.706  0.00  0.00    -0.005 C 
ATOM      5  C   UNL     1      34.269 -20.678 -20.629  0.00  0.00    +0.014 C 
ATOM      6  C   UNL     1      35.500 -20.871 -19.999  0.00  0.00    +0.048 C 
ATOM      7  C   UNL     1      36.699 -20.366 -20.512  0.00  0.00    +0.014 C 
ATOM      8  C   UNL     1      33.285 -21.325 -19.831  0.00  0.00    +0.016 C 
ATOM      9  C   UNL     1      33.925 -21.888 -18.751  0.00  0.00    +0.053 C 
ATOM     10  H   UNL     1      35.951 -21.895 -18.219  0.00  0.00    +0.152 HD
ENDROOT
BRANCH   9  13
ATOM     11  O   UNL     1      35.700 -23.132 -16.889  0.00  0.00    -0.270 OA
ATOM     12  N   UNL     1      33.985 -23.972 -15.620  0.00  0.00    -0.280 N 
ATOM     13  C   UNL     1      33.484 -22.652 -17.626  0.00  0.00    +0.067 C 
ATOM     14  C   UNL     1      32.168 -22.814 -17.405  0.00  0.00    +0.007 C 
ATOM     15  C   UNL     1      34.491 -23.262 -16.692  0.00  0.00    +0.251 C 
ATOM     16  C   UNL     1      31.684 -23.581 -16.259  0.00  0.00    +0.014 C 
ATOM     17  C   UNL     1      32.613 -24.147 -15.381  0.00  0.00    +0.051 C 
ATOM     18  C   UNL     1      30.318 -23.758 -16.021  0.00  0.00    +0.001 C 
ATOM     19  C   UNL     1      32.188 -24.885 -14.273  0.00  0.00    +0.015 C 
ATOM     20  C   UNL     1      29.891 -24.494 -14.913  0.00  0.00    +0.000 C 
ATOM     21  C   UNL     1      30.824 -25.057 -14.042  0.00  0.00    +0.001 C 
ATOM     22  H   UNL     1      34.623 -24.378 -14.989  0.00  0.00    +0.155 HD
ENDBRANCH   9  13
BRANCH   2  23
ATOM     23  C   UNL     1      35.390 -18.656 -23.631  0.00  0.00    -0.050 C 
BRANCH  23  24
ATOM     24  N   UNL     1      34.710 -17.372 -23.472  0.00  0.00    +0.390 N 
ATOM     25  C   UNL     1      34.513 -14.447 -23.556  0.00  0.00    -0.026 C 
ATOM     26  C   UNL     1      34.658 -15.224 -22.243  0.00  0.00    -0.025 C 
ATOM     27  C   UNL     1      33.876 -15.345 -24.621  0.00  0.00    -0.025 C 
ATOM     28  C   UNL     1      35.389 -16.550 -22.460  0.00  0.00    -0.077 C 
ATOM     29  C   UNL     1      34.632 -16.668 -24.760  0.00  0.00    -0.077 C 
ATOM     30  H   UNL     1      33.757 -17.543 -23.150  0.00  0.00    -0.079 HD
BRANCH  25  31
ATOM     31  C   UNL     1      33.696 -13.173 -23.352  0.00  0.00    -0.086 C 
BRANCH  31  32
ATOM     32  N   UNL     1      34.274 -12.062 -24.092  0.00  0.00    +0.380 N 
ATOM     33  H   UNL     1      33.617 -11.283 -24.103  0.00  0.00    -0.089 HD
ATOM     34  H   UNL     1      34.469 -12.356 -25.049  0.00  0.00    -0.089 HD
ATOM     35  H   UNL     1      35.142 -11.769 -23.643  0.00  0.00    -0.089 HD
ENDBRANCH  31  32
ENDBRANCH  25  31
ENDBRANCH  23  24
ENDBRANCH   2  23
TORSDOF 5
ENDMDL
MODEL 4
REMARK VINA RESULT:     -13.3      5.724      9.866
REMARK  Name = 10156987
REMARK  5 active torsions:
REMARK  status: ('A' for Active; 'I' for Inactive)
REMARK    1  A    between atoms: C_2  and  C_23
REMARK    2  A    between atoms: C_9  and  C_13
REMARK    3  A    between atoms: C_23  and  N_24
REMARK    4  A    between atoms: C_25  and  C_31
REMARK    5  A    between atoms: C_31  and  N_32
REMARK                            x       y       z     vdW  Elec       q    Type
REMARK                         _______ _______ _______ _____ _____    ______ ____
ROOT
ATOM      1  N   UNL     1      32.537 -13.195 -22.556  0.00  0.00    -0.312 N 
ATOM      2  C   UNL     1      32.309  -9.089 -22.488  0.00  0.00    -0.043 C 
ATOM      3  C   UNL     1      33.126  -9.784 -23.380  0.00  0.00    -0.005 C 
ATOM      4  C   UNL     1      31.516  -9.755 -21.562  0.00  0.00    -0.005 C 
ATOM      5  C   UNL     1      33.142 -11.193 -23.333  0.00  0.00    +0.014 C 
ATOM      6  C   UNL     1      32.337 -11.842 -22.393  0.00  0.00    +0.048 C 
ATOM      7  C   UNL     1      31.516 -11.151 -21.496  0.00  0.00    +0.014 C 
ATOM      8  C   UNL     1      33.829 -12.202 -24.062  0.00  0.00    +0.016 C 
ATOM      9  C   UNL     1      33.436 -13.422 -23.562  0.00  0.00    +0.053 C 
ATOM     10  H   UNL     1      32.096 -13.897 -22.025  0.00  0.00    +0.152 HD
ENDROOT
BRANCH   9  13
ATOM     11  O   UNL     1      32.956 -14.622 -26.111  0.00  0.00    -0.270 OA
ATOM     12  N   UNL     1      33.857 -16.632 -25.477  0.00  0.00    -0.280 N 
ATOM     13  C   UNL     1      33.771 -14.776 -23.876  0.00  0.00    +0.067 C 
ATOM     14  C   UNL     1      34.342 -15.555 -22.941  0.00  0.00    +0.007 C 
ATOM     15  C   UNL     1      33.491 -15.319 -25.249  0.00  0.00    +0.251 C 
ATOM     16  C   UNL     1      34.705 -16.940 -23.231  0.00  0.00    +0.014 C 
ATOM     17  C   UNL     1      34.454 -17.453 -24.508  0.00  0.00    +0.051 C 
ATOM     18  C   UNL     1      35.298 -17.760 -22.267  0.00  0.00    +0.001 C 
ATOM     19  C   UNL     1      34.790 -18.773 -24.824  0.00  0.00    +0.015 C 
ATOM     20  C   UNL     1      35.634 -19.079 -22.581  0.00  0.00    +0.000 C 
ATOM     21  C   UNL     1      35.380 -19.584 -23.855  0.00  0.00    +0.001 C 
ATOM     22  H   UNL     1      33.690 -17.012 -26.370  0.00  0.00    +0.155 HD
ENDBRANCH   9  13
BRANCH   2  23
ATOM     23  C   UNL     1      32.289  -7.589 -22.532  0.00  0.00    -0.050 C 
BRANCH  23  24
ATOM     24  N   UNL     1      32.799  -7.071 -23.802  0.00  0.00    +0.390 N 
ATOM     25  C   UNL     1      34.042  -5.063 -25.539  0.00  0.00    -0.026 C 
ATOM     26  C   UNL     1      32.537  -5.349 -25.560  0.00  0.00    -0.025 C 
ATOM     27  C   UNL     1      34.797  -6.298 -25.039  0.00  0.00    -0.025 C 
ATOM     28  C   UNL     1      32.052  -5.872 -24.206  0.00  0.00    -0.077 C 
ATOM     29  C   UNL     1      34.238  -6.790 -23.702  0.00  0.00    -0.077 C 
ATOM     30  H   UNL     1      32.666  -7.782 -24.521  0.00  0.00    -0.079 HD
BRANCH  25  31
ATOM     31  C   UNL     1      34.539  -4.637 -26.918  0.00  0.00    -0.086 C 
BRANCH  31  32
ATOM     32  N   UNL     1      33.427  -4.462 -27.839  0.00  0.00    +0.380 N 
ATOM     33  H   UNL     1      32.796  -5.259 -27.765  0.00  0.00    -0.089 HD
ATOM     34  H   UNL     1      33.783  -4.399 -28.793  0.00  0.00    -0.089 HD
ATOM     35  H   UNL     1      32.923  -3.606 -27.606  0.00  0.00    -0.089 HD
ENDBRANCH  31  32
ENDBRANCH  25  31
ENDBRANCH  23  24
ENDBRANCH   2  23
TORSDOF 5
ENDMDL
MODEL 5
REMARK VINA RESULT:     -13.1      2.122     10.292
REMARK  Name = 10156987
REMARK  5 active torsions:
REMARK  status: ('A' for Active; 'I' for Inactive)
REMARK    1  A    between atoms: C_2  and  C_23
REMARK    2  A    between atoms: C_9  and  C_13
REMARK    3  A    between atoms: C_23  and  N_24
REMARK    4  A    between atoms: C_25  and  C_31
REMARK    5  A    between atoms: C_31  and  N_32
REMARK                            x       y       z     vdW  Elec       q    Type
REMARK                         _______ _______ _______ _____ _____    ______ ____
ROOT
ATOM      1  N   UNL     1      34.180 -19.302 -21.845  0.00  0.00    -0.312 N 
ATOM      2  C   UNL     1      36.245 -21.463 -19.019  0.00  0.00    -0.043 C 
ATOM      3  C   UNL     1      36.833 -20.441 -19.766  0.00  0.00    -0.005 C 
ATOM      4  C   UNL     1      34.911 -21.809 -19.192  0.00  0.00    -0.005 C 
ATOM      5  C   UNL     1      36.050 -19.752 -20.714  0.00  0.00    +0.014 C 
ATOM      6  C   UNL     1      34.711 -20.118 -20.871  0.00  0.00    +0.048 C 
ATOM      7  C   UNL     1      34.115 -21.141 -20.126  0.00  0.00    +0.014 C 
ATOM      8  C   UNL     1      36.302 -18.690 -21.626  0.00  0.00    +0.016 C 
ATOM      9  C   UNL     1      35.134 -18.436 -22.307  0.00  0.00    +0.053 C 
ATOM     10  H   UNL     1      33.249 -19.336 -22.163  0.00  0.00    +0.152 HD
ENDROOT
BRANCH   9  13
ATOM     11  O   UNL     1      34.505 -19.197 -24.988  0.00  0.00    -0.270 OA
ATOM     12  N   UNL     1      34.078 -17.041 -25.637  0.00  0.00    -0.280 N 
ATOM     13  C   UNL     1      34.765 -17.506 -23.329  0.00  0.00    +0.067 C 
ATOM     14  C   UNL     1      34.705 -16.194 -23.045  0.00  0.00    +0.007 C 
ATOM     15  C   UNL     1      34.441 -18.000 -24.710  0.00  0.00    +0.251 C 
ATOM     16  C   UNL     1      34.322 -15.218 -24.063  0.00  0.00    +0.014 C 
ATOM     17  C   UNL     1      34.012 -15.668 -25.350  0.00  0.00    +0.051 C 
ATOM     18  C   UNL     1      34.257 -13.851 -23.780  0.00  0.00    +0.001 C 
ATOM     19  C   UNL     1      33.640 -14.765 -26.350  0.00  0.00    +0.015 C 
ATOM     20  C   UNL     1      33.885 -12.947 -24.778  0.00  0.00    +0.000 C 
ATOM     21  C   UNL     1      33.577 -13.403 -26.059  0.00  0.00    +0.001 C 
ATOM     22  H   UNL     1      33.855 -17.337 -26.549  0.00  0.00    +0.155 HD
ENDBRANCH   9  13
BRANCH   2  23
ATOM     23  C   UNL     1      37.075 -22.200 -18.010  0.00  0.00    -0.050 C 
BRANCH  23  24
ATOM     24  N   UNL     1      36.360 -22.391 -16.748  0.00  0.00    +0.390 N 
ATOM     25  C   UNL     1      35.184 -23.978 -14.580  0.00  0.00    -0.026 C 
ATOM     26  C   UNL     1      34.333 -23.310 -15.666  0.00  0.00    -0.025 C 
ATOM     27  C   UNL     1      36.507 -23.222 -14.422  0.00  0.00    -0.025 C 
ATOM     28  C   UNL     1      35.120 -23.148 -16.968  0.00  0.00    -0.077 C 
ATOM     29  C   UNL     1      37.222 -23.062 -15.765  0.00  0.00    -0.077 C 
ATOM     30  H   UNL     1      36.108 -21.477 -16.373  0.00  0.00    -0.079 HD
BRANCH  25  31
ATOM     31  C   UNL     1      34.429 -24.047 -13.255  0.00  0.00    -0.086 C 
BRANCH  31  32
ATOM     32  N   UNL     1      35.279 -23.628 -12.151  0.00  0.00    +0.380 N 
ATOM     33  H   UNL     1      34.874 -22.807 -11.704  0.00  0.00    -0.089 HD
ATOM     34  H   UNL     1      36.208 -23.400 -12.506  0.00  0.00    -0.089 HD
ATOM     35  H   UNL     1      35.351 -24.385 -11.471  0.00  0.00    -0.089 HD
ENDBRANCH  31  32
ENDBRANCH  25  31
ENDBRANCH  23  24
ENDBRANCH   2  23
TORSDOF 5
ENDMDL
MODEL 6
REMARK VINA RESULT:     -13.0      3.574     11.339
REMARK  Name = 10156987
REMARK  5 active torsions:
REMARK  status: ('A' for Active; 'I' for Inactive)
REMARK    1  A    between atoms: C_2  and  C_23
REMARK    2  A    between atoms: C_9  and  C_13
REMARK    3  A    between atoms: C_23  and  N_24
REMARK    4  A    between atoms: C_25  and  C_31
REMARK    5  A    between atoms: C_31  and  N_32
REMARK                            x       y       z     vdW  Elec       q    Type
REMARK                         _______ _______ _______ _____ _____    ______ ____
ROOT
ATOM      1  N   UNL     1      33.057 -13.057 -24.469  0.00  0.00    -0.312 N 
ATOM      2  C   UNL     1      34.707 -16.823 -24.366  0.00  0.00    -0.043 C 
ATOM      3  C   UNL     1      34.810 -15.925 -23.303  0.00  0.00    -0.005 C 
ATOM      4  C   UNL     1      34.031 -16.490 -25.533  0.00  0.00    -0.005 C 
ATOM      5  C   UNL     1      34.213 -14.654 -23.425  0.00  0.00    +0.014 C 
ATOM      6  C   UNL     1      33.539 -14.340 -24.608  0.00  0.00    +0.048 C 
ATOM      7  C   UNL     1      33.432 -15.235 -25.677  0.00  0.00    +0.014 C 
ATOM      8  C   UNL     1      34.118 -13.517 -22.576  0.00  0.00    +0.016 C 
ATOM      9  C   UNL     1      33.401 -12.552 -23.245  0.00  0.00    +0.053 C 
ATOM     10  H   UNL     1      32.539 -12.573 -25.153  0.00  0.00    +0.152 HD
ENDROOT
BRANCH   9  13
ATOM     11  O   UNL     1      31.273 -11.956 -21.435  0.00  0.00    -0.270 OA
ATOM     12  N   UNL     1      31.529  -9.691 -21.677  0.00  0.00    -0.280 N 
ATOM     13  C   UNL     1      32.986 -11.223 -22.921  0.00  0.00    +0.067 C 
ATOM     14  C   UNL     1      33.609 -10.174 -23.485  0.00  0.00    +0.007 C 
ATOM     15  C   UNL     1      31.861 -11.005 -21.948  0.00  0.00    +0.251 C 
ATOM     16  C   UNL     1      33.215  -8.803 -23.169  0.00  0.00    +0.014 C 
ATOM     17  C   UNL     1      32.174  -8.589 -22.260  0.00  0.00    +0.051 C 
ATOM     18  C   UNL     1      33.855  -7.705 -23.750  0.00  0.00    +0.001 C 
ATOM     19  C   UNL     1      31.771  -7.292 -21.931  0.00  0.00    +0.015 C 
ATOM     20  C   UNL     1      33.454  -6.407 -23.422  0.00  0.00    +0.000 C 
ATOM     21  C   UNL     1      32.414  -6.202 -22.515  0.00  0.00    +0.001 C 
ATOM     22  H   UNL     1      30.799  -9.519 -21.038  0.00  0.00    +0.155 HD
ENDBRANCH   9  13
BRANCH   2  23
ATOM     23  C   UNL     1      35.342 -18.178 -24.243  0.00  0.00    -0.050 C 
BRANCH  23  24
ATOM     24  N   UNL     1      35.563 -18.553 -22.847  0.00  0.00    +0.390 N 
ATOM     25  C   UNL     1      36.458 -20.325 -20.687  0.00  0.00    -0.026 C 
ATOM     26  C   UNL     1      34.978 -20.140 -21.039  0.00  0.00    -0.025 C 
ATOM     27  C   UNL     1      37.251 -19.086 -21.117  0.00  0.00    -0.025 C 
ATOM     28  C   UNL     1      34.799 -19.764 -22.511  0.00  0.00    -0.077 C 
ATOM     29  C   UNL     1      36.997 -18.744 -22.587  0.00  0.00    -0.077 C 
ATOM     30  H   UNL     1      35.233 -17.797 -22.248  0.00  0.00    -0.079 HD
BRANCH  25  31
ATOM     31  C   UNL     1      36.637 -20.601 -19.197  0.00  0.00    -0.086 C 
BRANCH  31  32
ATOM     32  N   UNL     1      36.037 -21.874 -18.829  0.00  0.00    +0.380 N 
ATOM     33  H   UNL     1      35.022 -21.777 -18.808  0.00  0.00    -0.089 HD
ATOM     34  H   UNL     1      36.371 -22.153 -17.906  0.00  0.00    -0.089 HD
ATOM     35  H   UNL     1      36.297 -22.584 -19.514  0.00  0.00    -0.089 HD
ENDBRANCH  31  32
ENDBRANCH  25  31
ENDBRANCH  23  24
ENDBRANCH   2  23
TORSDOF 5
ENDMDL
MODEL 7
REMARK VINA RESULT:     -13.0      3.963     12.008
REMARK  Name = 10156987
REMARK  5 active torsions:
REMARK  status: ('A' for Active; 'I' for Inactive)
REMARK    1  A    between atoms: C_2  and  C_23
REMARK    2  A    between atoms: C_9  and  C_13
REMARK    3  A    between atoms: C_23  and  N_24
REMARK    4  A    between atoms: C_25  and  C_31
REMARK    5  A    between atoms: C_31  and  N_32
REMARK                            x       y       z     vdW  Elec       q    Type
REMARK                         _______ _______ _______ _____ _____    ______ ____
ROOT
ATOM      1  N   UNL     1      33.014 -12.420 -21.790  0.00  0.00    -0.312 N 
ATOM      2  C   UNL     1      34.762 -16.055 -22.594  0.00  0.00    -0.043 C 
ATOM      3  C   UNL     1      34.746 -15.006 -23.513  0.00  0.00    -0.005 C 
ATOM      4  C   UNL     1      34.180 -15.927 -21.338  0.00  0.00    -0.005 C 
ATOM      5  C   UNL     1      34.124 -13.793 -23.153  0.00  0.00    +0.014 C 
ATOM      6  C   UNL     1      33.545 -13.687 -21.887  0.00  0.00    +0.048 C 
ATOM      7  C   UNL     1      33.557 -14.734 -20.960  0.00  0.00    +0.014 C 
ATOM      8  C   UNL     1      33.921 -12.549 -23.811  0.00  0.00    +0.016 C 
ATOM      9  C   UNL     1      33.236 -11.725 -22.949  0.00  0.00    +0.053 C 
ATOM     10  H   UNL     1      32.541 -12.065 -21.002  0.00  0.00    +0.152 HD
ENDROOT
BRANCH   9  13
ATOM     11  O   UNL     1      30.625 -10.927 -22.106  0.00  0.00    -0.270 OA
ATOM     12  N   UNL     1      30.978  -8.731 -22.661  0.00  0.00    -0.280 N 
ATOM     13  C   UNL     1      32.751 -10.383 -23.035  0.00  0.00    +0.067 C 
ATOM     14  C   UNL     1      33.543  -9.420 -23.538  0.00  0.00    +0.007 C 
ATOM     15  C   UNL     1      31.366 -10.053 -22.557  0.00  0.00    +0.251 C 
ATOM     16  C   UNL     1      33.083  -8.037 -23.633  0.00  0.00    +0.014 C 
ATOM     17  C   UNL     1      31.797  -7.718 -23.185  0.00  0.00    +0.051 C 
ATOM     18  C   UNL     1      33.897  -7.028 -24.156  0.00  0.00    +0.001 C 
ATOM     19  C   UNL     1      31.322  -6.406 -23.256  0.00  0.00    +0.015 C 
ATOM     20  C   UNL     1      33.424  -5.715 -24.228  0.00  0.00    +0.000 C 
ATOM     21  C   UNL     1      32.140  -5.406 -23.780  0.00  0.00    +0.001 C 
ATOM     22  H   UNL     1      30.076  -8.485 -22.349  0.00  0.00    +0.155 HD
ENDBRANCH   9  13
BRANCH   2  23
ATOM     23  C   UNL     1      35.421 -17.349 -22.972  0.00  0.00    -0.050 C 
BRANCH  23  24
ATOM     24  N   UNL     1      35.565 -18.246 -21.825  0.00  0.00    +0.390 N 
ATOM     25  C   UNL     1      36.248 -20.775 -20.506  0.00  0.00    -0.026 C 
ATOM     26  C   UNL     1      34.799 -20.346 -20.764  0.00  0.00    -0.025 C 
ATOM     27  C   UNL     1      37.147 -19.537 -20.427  0.00  0.00    -0.025 C 
ATOM     28  C   UNL     1      34.700 -19.424 -21.980  0.00  0.00    -0.077 C 
ATOM     29  C   UNL     1      36.971 -18.640 -21.655  0.00  0.00    -0.077 C 
ATOM     30  H   UNL     1      35.274 -17.750 -20.983  0.00  0.00    -0.079 HD
BRANCH  25  31
ATOM     31  C   UNL     1      36.354 -21.612 -19.234  0.00  0.00    -0.086 C 
BRANCH  31  32
ATOM     32  N   UNL     1      35.049 -22.110 -18.829  0.00  0.00    +0.380 N 
ATOM     33  H   UNL     1      34.329 -21.449 -19.119  0.00  0.00    -0.089 HD
ATOM     34  H   UNL     1      35.025 -22.215 -17.815  0.00  0.00    -0.089 HD
ATOM     35  H   UNL     1      34.878 -23.014 -19.269  0.00  0.00    -0.089 HD
ENDBRANCH  31  32
ENDBRANCH  25  31
ENDBRANCH  23  24
ENDBRANCH   2  23
TORSDOF 5
ENDMDL
MODEL 8
REMARK VINA RESULT:     -12.9      4.933     12.975
REMARK  Name = 10156987
REMARK  5 active torsions:
REMARK  status: ('A' for Active; 'I' for Inactive)
REMARK    1  A    between atoms: C_2  and  C_23
REMARK    2  A    between atoms: C_9  and  C_13
REMARK    3  A    between atoms: C_23  and  N_24
REMARK    4  A    between atoms: C_25  and  C_31
REMARK    5  A    between atoms: C_31  and  N_32
REMARK                            x       y       z     vdW  Elec       q    Type
REMARK                         _______ _______ _______ _____ _____    ______ ____
ROOT
ATOM      1  N   UNL     1      32.219 -10.919 -22.258  0.00  0.00    -0.312 N 
ATOM      2  C   UNL     1      33.903 -14.376 -23.720  0.00  0.00    -0.043 C 
ATOM      3  C   UNL     1      34.204 -13.114 -24.233  0.00  0.00    -0.005 C 
ATOM      4  C   UNL     1      33.006 -14.535 -22.670  0.00  0.00    -0.005 C 
ATOM      5  C   UNL     1      33.580 -11.982 -23.671  0.00  0.00    +0.014 C 
ATOM      6  C   UNL     1      32.681 -12.166 -22.618  0.00  0.00    +0.048 C 
ATOM      7  C   UNL     1      32.374 -13.428 -22.098  0.00  0.00    +0.014 C 
ATOM      8  C   UNL     1      33.640 -10.585 -23.929  0.00  0.00    +0.016 C 
ATOM      9  C   UNL     1      32.793  -9.958 -23.045  0.00  0.00    +0.053 C 
ATOM     10  H   UNL     1      31.569 -10.745 -21.539  0.00  0.00    +0.152 HD
ENDROOT
BRANCH   9  13
ATOM     11  O   UNL     1      32.506  -8.809 -20.444  0.00  0.00    -0.270 OA
ATOM     12  N   UNL     1      31.975  -6.740 -21.276  0.00  0.00    -0.280 N 
ATOM     13  C   UNL     1      32.432  -8.594 -22.817  0.00  0.00    +0.067 C 
ATOM     14  C   UNL     1      32.205  -7.781 -23.863  0.00  0.00    +0.007 C 
ATOM     15  C   UNL     1      32.314  -8.073 -21.412  0.00  0.00    +0.251 C 
ATOM     16  C   UNL     1      31.842  -6.380 -23.666  0.00  0.00    +0.014 C 
ATOM     17  C   UNL     1      31.737  -5.883 -22.363  0.00  0.00    +0.051 C 
ATOM     18  C   UNL     1      31.603  -5.526 -24.747  0.00  0.00    +0.001 C 
ATOM     19  C   UNL     1      31.395  -4.548 -22.134  0.00  0.00    +0.015 C 
ATOM     20  C   UNL     1      31.261  -4.190 -24.520  0.00  0.00    +0.000 C 
ATOM     21  C   UNL     1      31.157  -3.703 -23.218  0.00  0.00    +0.001 C 
ATOM     22  H   UNL     1      31.897  -6.371 -20.367  0.00  0.00    +0.155 HD
ENDBRANCH   9  13
BRANCH   2  23
ATOM     23  C   UNL     1      34.564 -15.584 -24.315  0.00  0.00    -0.050 C 
BRANCH  23  24
ATOM     24  N   UNL     1      34.505 -16.738 -23.418  0.00  0.00    +0.390 N 
ATOM     25  C   UNL     1      35.611 -19.057 -22.003  0.00  0.00    -0.026 C 
ATOM     26  C   UNL     1      34.711 -19.198 -23.235  0.00  0.00    -0.025 C 
ATOM     27  C   UNL     1      35.322 -17.725 -21.302  0.00  0.00    -0.025 C 
ATOM     28  C   UNL     1      34.821 -17.975 -24.148  0.00  0.00    -0.077 C 
ATOM     29  C   UNL     1      35.412 -16.550 -22.278  0.00  0.00    -0.077 C 
ATOM     30  H   UNL     1      33.556 -16.822 -23.054  0.00  0.00    -0.079 HD
BRANCH  25  31
ATOM     31  C   UNL     1      35.423 -20.232 -21.048  0.00  0.00    -0.086 C 
BRANCH  31  32
ATOM     32  N   UNL     1      36.530 -20.321 -20.109  0.00  0.00    +0.380 N 
ATOM     33  H   UNL     1      37.234 -20.962 -20.474  0.00  0.00    -0.089 HD
ATOM     34  H   UNL     1      36.189 -20.666 -19.212  0.00  0.00    -0.089 HD
ATOM     35  H   UNL     1      36.944 -19.397 -19.982  0.00  0.00    -0.089 HD
ENDBRANCH  31  32
ENDBRANCH  25  31
ENDBRANCH  23  24
ENDBRANCH   2  23
TORSDOF 5
ENDMDL
MODEL 9
REMARK VINA RESULT:     -12.7      1.309      2.250
REMARK  Name = 10156987
REMARK  5 active torsions:
REMARK  status: ('A' for Active; 'I' for Inactive)
REMARK    1  A    between atoms: C_2  and  C_23
REMARK    2  A    between atoms: C_9  and  C_13
REMARK    3  A    between atoms: C_23  and  N_24
REMARK    4  A    between atoms: C_25  and  C_31
REMARK    5  A    between atoms: C_31  and  N_32
REMARK                            x       y       z     vdW  Elec       q    Type
REMARK                         _______ _______ _______ _____ _____    ______ ____
ROOT
ATOM      1  N   UNL     1      34.692 -21.883 -18.654  0.00  0.00    -0.312 N 
ATOM      2  C   UNL     1      35.678 -19.458 -21.826  0.00  0.00    -0.043 C 
ATOM      3  C   UNL     1      36.614 -19.884 -20.883  0.00  0.00    -0.005 C 
ATOM      4  C   UNL     1      34.344 -19.836 -21.745  0.00  0.00    -0.005 C 
ATOM      5  C   UNL     1      36.187 -20.715 -19.827  0.00  0.00    +0.014 C 
ATOM      6  C   UNL     1      34.841 -21.082 -19.764  0.00  0.00    +0.048 C 
ATOM      7  C   UNL     1      33.898 -20.659 -20.707  0.00  0.00    +0.014 C 
ATOM      8  C   UNL     1      36.838 -21.323 -18.718  0.00  0.00    +0.016 C 
ATOM      9  C   UNL     1      35.894 -22.034 -18.016  0.00  0.00    +0.053 C 
ATOM     10  H   UNL     1      33.844 -22.289 -18.362  0.00  0.00    +0.152 HD
ENDROOT
BRANCH   9  13
ATOM     11  O   UNL     1      33.571 -23.136 -16.769  0.00  0.00    -0.270 OA
ATOM     12  N   UNL     1      34.786 -24.164 -15.120  0.00  0.00    -0.280 N 
ATOM     13  C   UNL     1      35.934 -22.838 -16.834  0.00  0.00    +0.067 C 
ATOM     14  C   UNL     1      37.116 -23.106 -16.252  0.00  0.00    +0.007 C 
ATOM     15  C   UNL     1      34.661 -23.384 -16.254  0.00  0.00    +0.251 C 
ATOM     16  C   UNL     1      37.194 -23.931 -15.048  0.00  0.00    +0.014 C 
ATOM     17  C   UNL     1      36.016 -24.450 -14.504  0.00  0.00    +0.051 C 
ATOM     18  C   UNL     1      38.417 -24.215 -14.433  0.00  0.00    +0.001 C 
ATOM     19  C   UNL     1      36.050 -25.245 -13.356  0.00  0.00    +0.015 C 
ATOM     20  C   UNL     1      38.454 -25.010 -13.285  0.00  0.00    +0.000 C 
ATOM     21  C   UNL     1      37.274 -25.523 -12.748  0.00  0.00    +0.001 C 
ATOM     22  H   UNL     1      33.968 -24.540 -14.722  0.00  0.00    +0.155 HD
ENDBRANCH   9  13
BRANCH   2  23
ATOM     23  C   UNL     1      36.126 -18.572 -22.952  0.00  0.00    -0.050 C 
BRANCH  23  24
ATOM     24  N   UNL     1      35.711 -17.183 -22.754  0.00  0.00    +0.390 N 
ATOM     25  C   UNL     1      33.764 -15.034 -22.318  0.00  0.00    -0.026 C 
ATOM     26  C   UNL     1      34.424 -15.283 -23.679  0.00  0.00    -0.025 C 
ATOM     27  C   UNL     1      34.669 -15.564 -21.201  0.00  0.00    -0.025 C 
ATOM     28  C   UNL     1      34.824 -16.751 -23.843  0.00  0.00    -0.077 C 
ATOM     29  C   UNL     1      35.061 -17.022 -21.446  0.00  0.00    -0.077 C 
ATOM     30  H   UNL     1      36.540 -16.589 -22.768  0.00  0.00    -0.079 HD
BRANCH  25  31
ATOM     31  C   UNL     1      33.458 -13.552 -22.119  0.00  0.00    -0.086 C 
BRANCH  31  32
ATOM     32  N   UNL     1      32.091 -13.247 -22.512  0.00  0.00    +0.380 N 
ATOM     33  H   UNL     1      31.489 -13.267 -21.690  0.00  0.00    -0.089 HD
ATOM     34  H   UNL     1      31.769 -13.941 -23.187  0.00  0.00    -0.089 HD
ATOM     35  H   UNL     1      32.058 -12.319 -22.936  0.00  0.00    -0.089 HD
ENDBRANCH  31  32
ENDBRANCH  25  31
ENDBRANCH  23  24
ENDBRANCH   2  23
TORSDOF 5
ENDMDL
