MODEL 1
REMARK VINA RESULT:     -13.2      0.000      0.000
REMARK  Name = 448890
REMARK  6 active torsions:
REMARK  status: ('A' for Active; 'I' for Inactive)
REMARK    1  A    between atoms: C_1  and  C_2
REMARK    2  A    between atoms: C_1  and  C_17
REMARK    3  A    between atoms: C_2  and  C_3
REMARK    4  A    between atoms: C_3  and  N_4
REMARK    5  A    between atoms: C_8  and  C_11
REMARK    6  A    between atoms: C_17  and  N_21
REMARK                            x       y       z     vdW  Elec       q    Type
REMARK                         _______ _______ _______ _____ _____    ______ ____
ROOT
ATOM      1  C   UNL     1      32.908 -14.054 -21.006  0.00  0.00    +0.022 C 
ENDROOT
BRANCH   1   2
ATOM      2  C   UNL     1      32.021 -12.921 -21.534  0.00  0.00    -0.021 C 
BRANCH   2   3
ATOM      3  C   UNL     1      32.089 -11.698 -20.621  0.00  0.00    -0.077 C 
BRANCH   3   4
ATOM      4  N   UNL     1      31.884 -10.476 -21.396  0.00  0.00    +0.390 N 
ATOM      5  C   UNL     1      32.390  -9.303 -20.676  0.00  0.00    -0.072 C 
ATOM      6  C   UNL     1      32.518 -10.585 -22.719  0.00  0.00    -0.051 C 
ATOM      7  C   UNL     1      32.013  -8.022 -21.436  0.00  0.00    +0.003 C 
ATOM      8  C   UNL     1      32.331  -8.096 -22.912  0.00  0.00    -0.031 C 
ATOM      9  C   UNL     1      32.563  -9.292 -23.487  0.00  0.00    -0.053 C 
ATOM     10  H   UNL     1      30.880 -10.353 -21.529  0.00  0.00    -0.079 HD
BRANCH   8  11
ATOM     11  C   UNL     1      32.370  -6.833 -23.688  0.00  0.00    -0.004 C 
ATOM     12  C   UNL     1      33.499  -6.508 -24.442  0.00  0.00    -0.000 C 
ATOM     13  C   UNL     1      31.277  -5.964 -23.667  0.00  0.00    -0.000 C 
ATOM     14  C   UNL     1      33.535  -5.320 -25.172  0.00  0.00    -0.000 C 
ATOM     15  C   UNL     1      31.313  -4.776 -24.397  0.00  0.00    -0.000 C 
ATOM     16  C   UNL     1      32.442  -4.453 -25.150  0.00  0.00    -0.000 C 
ENDBRANCH   8  11
ENDBRANCH   3   4
ENDBRANCH   2   3
ENDBRANCH   1   2
BRANCH   1  17
ATOM     17  C   UNL     1      34.312 -14.025 -21.602  0.00  0.00    +0.110 C 
BRANCH  17  21
ATOM     18  F   UNL     1      35.392 -19.341 -24.481  0.00  0.00    -0.204 F 
ATOM     19  O   UNL     1      33.933 -13.228 -24.275  0.00  0.00    -0.246 OA
ATOM     20  O   UNL     1      34.814 -17.382 -25.976  0.00  0.00    -0.267 OA
ATOM     21  N   UNL     1      34.446 -14.916 -22.752  0.00  0.00    -0.281 N 
ATOM     22  N   UNL     1      34.379 -15.311 -25.083  0.00  0.00    -0.274 N 
ATOM     23  C   UNL     1      34.792 -16.286 -22.537  0.00  0.00    +0.071 A 
ATOM     24  C   UNL     1      34.232 -14.402 -24.038  0.00  0.00    +0.330 A 
ATOM     25  C   UNL     1      34.925 -17.155 -23.627  0.00  0.00    +0.099 A 
ATOM     26  C   UNL     1      35.007 -16.807 -21.250  0.00  0.00    +0.018 C 
ATOM     27  C   UNL     1      34.709 -16.653 -24.995  0.00  0.00    +0.265 A 
ATOM     28  C   UNL     1      35.262 -18.503 -23.443  0.00  0.00    +0.146 C 
ATOM     29  C   UNL     1      35.344 -18.150 -21.064  0.00  0.00    +0.004 C 
ATOM     30  C   UNL     1      35.472 -18.998 -22.159  0.00  0.00    +0.030 C 
ATOM     31  H   UNL     1      34.230 -14.959 -25.991  0.00  0.00    +0.173 HD
ENDBRANCH  17  21
ENDBRANCH   1  17
TORSDOF 6
ENDMDL
MODEL 2
REMARK VINA RESULT:     -13.1      4.735     10.825
REMARK  Name = 448890
REMARK  6 active torsions:
REMARK  status: ('A' for Active; 'I' for Inactive)
REMARK    1  A    between atoms: C_1  and  C_2
REMARK    2  A    between atoms: C_1  and  C_17
REMARK    3  A    between atoms: C_2  and  C_3
REMARK    4  A    between atoms: C_3  and  N_4
REMARK    5  A    between atoms: C_8  and  C_11
REMARK    6  A    between atoms: C_17  and  N_21
REMARK                            x       y       z     vdW  Elec       q    Type
REMARK                         _______ _______ _______ _____ _____    ______ ____
ROOT
ATOM      1  C   UNL     1      34.229 -18.335 -25.066  0.00  0.00    +0.022 C 
ENDROOT
BRANCH   1   2
ATOM      2  C   UNL     1      34.988 -19.495 -24.413  0.00  0.00    -0.021 C 
BRANCH   2   3
ATOM      3  C   UNL     1      35.645 -19.055 -23.105  0.00  0.00    -0.077 C 
BRANCH   3   4
ATOM      4  N   UNL     1      35.431 -20.062 -22.067  0.00  0.00    +0.390 N 
ATOM      5  C   UNL     1      36.435 -19.946 -21.005  0.00  0.00    -0.072 C 
ATOM      6  C   UNL     1      34.073 -19.958 -21.512  0.00  0.00    -0.051 C 
ATOM      7  C   UNL     1      36.288 -21.115 -20.019  0.00  0.00    +0.003 C 
ATOM      8  C   UNL     1      34.860 -21.339 -19.577  0.00  0.00    -0.031 C 
ATOM      9  C   UNL     1      33.849 -20.793 -20.281  0.00  0.00    -0.053 C 
ATOM     10  H   UNL     1      35.534 -20.981 -22.497  0.00  0.00    -0.079 HD
BRANCH   8  11
ATOM     11  C   UNL     1      34.618 -22.167 -18.371  0.00  0.00    -0.004 C 
ATOM     12  C   UNL     1      35.634 -22.350 -17.431  0.00  0.00    -0.000 C 
ATOM     13  C   UNL     1      33.372 -22.766 -18.171  0.00  0.00    -0.000 C 
ATOM     14  C   UNL     1      35.406 -23.130 -16.297  0.00  0.00    -0.000 C 
ATOM     15  C   UNL     1      33.144 -23.545 -17.037  0.00  0.00    -0.000 C 
ATOM     16  C   UNL     1      34.161 -23.727 -16.099  0.00  0.00    -0.000 C 
ENDBRANCH   8  11
ENDBRANCH   3   4
ENDBRANCH   2   3
ENDBRANCH   1   2
BRANCH   1  17
ATOM     17  C   UNL     1      35.037 -17.042 -25.086  0.00  0.00    +0.110 C 
BRANCH  17  21
ATOM     18  F   UNL     1      32.721 -13.133 -20.955  0.00  0.00    -0.204 F 
ATOM     19  O   UNL     1      33.578 -15.334 -26.782  0.00  0.00    -0.246 OA
ATOM     20  O   UNL     1      32.088 -12.684 -23.364  0.00  0.00    -0.267 OA
ATOM     21  N   UNL     1      34.261 -15.893 -24.625  0.00  0.00    -0.281 N 
ATOM     22  N   UNL     1      32.856 -14.038 -25.052  0.00  0.00    -0.274 N 
ATOM     23  C   UNL     1      34.220 -15.593 -23.228  0.00  0.00    +0.071 A 
ATOM     24  C   UNL     1      33.574 -15.115 -25.567  0.00  0.00    +0.330 A 
ATOM     25  C   UNL     1      33.481 -14.497 -22.768  0.00  0.00    +0.099 A 
ATOM     26  C   UNL     1      34.907 -16.370 -22.279  0.00  0.00    +0.018 C 
ATOM     27  C   UNL     1      32.745 -13.654 -23.727  0.00  0.00    +0.265 A 
ATOM     28  C   UNL     1      33.426 -14.181 -21.404  0.00  0.00    +0.146 C 
ATOM     29  C   UNL     1      34.853 -16.058 -20.918  0.00  0.00    +0.004 C 
ATOM     30  C   UNL     1      34.113 -14.964 -20.480  0.00  0.00    +0.030 C 
ATOM     31  H   UNL     1      32.371 -13.485 -25.707  0.00  0.00    +0.173 HD
ENDBRANCH  17  21
ENDBRANCH   1  17
TORSDOF 6
ENDMDL
MODEL 3
REMARK VINA RESULT:     -13.1      8.482     12.492
REMARK  Name = 448890
REMARK  6 active torsions:
REMARK  status: ('A' for Active; 'I' for Inactive)
REMARK    1  A    between atoms: C_1  and  C_2
REMARK    2  A    between atoms: C_1  and  C_17
REMARK    3  A    between atoms: C_2  and  C_3
REMARK    4  A    between atoms: C_3  and  N_4
REMARK    5  A    between atoms: C_8  and  C_11
REMARK    6  A    between atoms: C_17  and  N_21
REMARK                            x       y       z     vdW  Elec       q    Type
REMARK                         _______ _______ _______ _____ _____    ______ ____
ROOT
ATOM      1  C   UNL     1      33.931 -23.570 -16.452  0.00  0.00    +0.022 C 
ENDROOT
BRANCH   1   2
ATOM      2  C   UNL     1      33.909 -22.834 -17.796  0.00  0.00    -0.021 C 
BRANCH   2   3
ATOM      3  C   UNL     1      35.318 -22.416 -18.216  0.00  0.00    -0.077 C 
BRANCH   3   4
ATOM      4  N   UNL     1      35.257 -21.274 -19.126  0.00  0.00    +0.390 N 
ATOM      5  C   UNL     1      36.404 -21.264 -20.039  0.00  0.00    -0.072 C 
ATOM      6  C   UNL     1      33.994 -21.275 -19.880  0.00  0.00    -0.051 C 
ATOM      7  C   UNL     1      36.401 -19.969 -20.866  0.00  0.00    +0.003 C 
ATOM      8  C   UNL     1      35.052 -19.660 -21.475  0.00  0.00    -0.031 C 
ATOM      9  C   UNL     1      33.950 -20.277 -21.005  0.00  0.00    -0.053 C 
ATOM     10  H   UNL     1      35.295 -20.423 -18.564  0.00  0.00    -0.079 HD
BRANCH   8  11
ATOM     11  C   UNL     1      34.987 -18.672 -22.577  0.00  0.00    -0.004 C 
ATOM     12  C   UNL     1      35.249 -17.324 -22.327  0.00  0.00    -0.000 C 
ATOM     13  C   UNL     1      34.665 -19.086 -23.872  0.00  0.00    -0.000 C 
ATOM     14  C   UNL     1      35.188 -16.394 -23.365  0.00  0.00    -0.000 C 
ATOM     15  C   UNL     1      34.604 -18.156 -24.910  0.00  0.00    -0.000 C 
ATOM     16  C   UNL     1      34.866 -16.810 -24.657  0.00  0.00    -0.000 C 
ENDBRANCH   8  11
ENDBRANCH   3   4
ENDBRANCH   2   3
ENDBRANCH   1   2
BRANCH   1  17
ATOM     17  C   UNL     1      34.726 -22.823 -15.386  0.00  0.00    +0.110 C 
BRANCH  17  21
ATOM     18  F   UNL     1      39.345 -26.104 -13.017  0.00  0.00    -0.204 F 
ATOM     19  O   UNL     1      33.429 -23.979 -13.172  0.00  0.00    -0.246 OA
ATOM     20  O   UNL     1      37.145 -26.251 -11.774  0.00  0.00    -0.267 OA
ATOM     21  N   UNL     1      35.370 -23.727 -14.437  0.00  0.00    -0.281 N 
ATOM     22  N   UNL     1      35.302 -25.095 -12.508  0.00  0.00    -0.274 N 
ATOM     23  C   UNL     1      36.747 -24.065 -14.618  0.00  0.00    +0.071 A 
ATOM     24  C   UNL     1      34.619 -24.240 -13.371  0.00  0.00    +0.330 A 
ATOM     25  C   UNL     1      37.381 -24.930 -13.718  0.00  0.00    +0.099 A 
ATOM     26  C   UNL     1      37.505 -23.553 -15.685  0.00  0.00    +0.018 C 
ATOM     27  C   UNL     1      36.626 -25.491 -12.584  0.00  0.00    +0.265 A 
ATOM     28  C   UNL     1      38.730 -25.276 -13.874  0.00  0.00    +0.146 C 
ATOM     29  C   UNL     1      38.850 -23.897 -15.843  0.00  0.00    +0.004 C 
ATOM     30  C   UNL     1      39.463 -24.758 -14.938  0.00  0.00    +0.030 C 
ATOM     31  H   UNL     1      34.782 -25.461 -11.756  0.00  0.00    +0.173 HD
ENDBRANCH  17  21
ENDBRANCH   1  17
TORSDOF 6
ENDMDL
MODEL 4
REMARK VINA RESULT:     -13.0      5.323     12.089
REMARK  Name = 448890
REMARK  6 active torsions:
REMARK  status: ('A' for Active; 'I' for Inactive)
REMARK    1  A    between atoms: C_1  and  C_2
REMARK    2  A    between atoms: C_1  and  C_17
REMARK    3  A    between atoms: C_2  and  C_3
REMARK    4  A    between atoms: C_3  and  N_4
REMARK    5  A    between atoms: C_8  and  C_11
REMARK    6  A    between atoms: C_17  and  N_21
REMARK                            x       y       z     vdW  Elec       q    Type
REMARK                         _______ _______ _______ _____ _____    ______ ____
ROOT
ATOM      1  C   UNL     1      36.621 -19.300 -21.305  0.00  0.00    +0.022 C 
ENDROOT
BRANCH   1   2
ATOM      2  C   UNL     1      36.817 -20.169 -20.057  0.00  0.00    -0.021 C 
BRANCH   2   3
ATOM      3  C   UNL     1      36.112 -21.516 -20.210  0.00  0.00    -0.077 C 
BRANCH   3   4
ATOM      4  N   UNL     1      35.205 -21.743 -19.086  0.00  0.00    +0.390 N 
ATOM      5  C   UNL     1      34.094 -22.618 -19.472  0.00  0.00    -0.072 C 
ATOM      6  C   UNL     1      35.931 -22.304 -17.936  0.00  0.00    -0.051 C 
ATOM      7  C   UNL     1      33.074 -22.702 -18.326  0.00  0.00    +0.003 C 
ATOM      8  C   UNL     1      33.715 -22.979 -16.985  0.00  0.00    -0.031 C 
ATOM      9  C   UNL     1      35.039 -22.790 -16.825  0.00  0.00    -0.053 C 
ATOM     10  H   UNL     1      34.814 -20.842 -18.811  0.00  0.00    -0.079 HD
BRANCH   8  11
ATOM     11  C   UNL     1      32.851 -23.449 -15.876  0.00  0.00    -0.004 C 
ATOM     12  C   UNL     1      31.484 -23.165 -15.883  0.00  0.00    -0.000 C 
ATOM     13  C   UNL     1      33.402 -24.179 -14.819  0.00  0.00    -0.000 C 
ATOM     14  C   UNL     1      30.672 -23.607 -14.839  0.00  0.00    -0.000 C 
ATOM     15  C   UNL     1      32.589 -24.621 -13.775  0.00  0.00    -0.000 C 
ATOM     16  C   UNL     1      31.224 -24.335 -13.785  0.00  0.00    -0.000 C 
ENDBRANCH   8  11
ENDBRANCH   3   4
ENDBRANCH   2   3
ENDBRANCH   1   2
BRANCH   1  17
ATOM     17  C   UNL     1      35.152 -19.140 -21.684  0.00  0.00    +0.110 C 
BRANCH  17  21
ATOM     18  F   UNL     1      34.267 -13.815 -24.612  0.00  0.00    -0.204 F 
ATOM     19  O   UNL     1      35.120 -20.040 -24.351  0.00  0.00    -0.246 OA
ATOM     20  O   UNL     1      34.458 -15.861 -26.090  0.00  0.00    -0.267 OA
ATOM     21  N   UNL     1      34.969 -18.270 -22.842  0.00  0.00    -0.281 N 
ATOM     22  N   UNL     1      34.790 -17.942 -25.178  0.00  0.00    -0.274 N 
ATOM     23  C   UNL     1      34.790 -16.866 -22.640  0.00  0.00    +0.071 A 
ATOM     24  C   UNL     1      34.971 -18.836 -24.125  0.00  0.00    +0.330 A 
ATOM     25  C   UNL     1      34.613 -16.016 -23.738  0.00  0.00    +0.099 A 
ATOM     26  C   UNL     1      34.787 -16.294 -21.356  0.00  0.00    +0.018 C 
ATOM     27  C   UNL     1      34.610 -16.572 -25.102  0.00  0.00    +0.265 A 
ATOM     28  C   UNL     1      34.438 -14.636 -23.566  0.00  0.00    +0.146 C 
ATOM     29  C   UNL     1      34.612 -14.918 -21.182  0.00  0.00    +0.004 C 
ATOM     30  C   UNL     1      34.437 -14.090 -22.285  0.00  0.00    +0.030 C 
ATOM     31  H   UNL     1      34.791 -18.331 -26.083  0.00  0.00    +0.173 HD
ENDBRANCH  17  21
ENDBRANCH   1  17
TORSDOF 6
ENDMDL
MODEL 5
REMARK VINA RESULT:     -12.9      5.665     12.647
REMARK  Name = 448890
REMARK  6 active torsions:
REMARK  status: ('A' for Active; 'I' for Inactive)
REMARK    1  A    between atoms: C_1  and  C_2
REMARK    2  A    between atoms: C_1  and  C_17
REMARK    3  A    between atoms: C_2  and  C_3
REMARK    4  A    between atoms: C_3  and  N_4
REMARK    5  A    between atoms: C_8  and  C_11
REMARK    6  A    between atoms: C_17  and  N_21
REMARK                            x       y       z     vdW  Elec       q    Type
REMARK                         _______ _______ _______ _____ _____    ______ ____
ROOT
ATOM      1  C   UNL     1      34.038 -19.818 -21.087  0.00  0.00    +0.022 C 
ENDROOT
BRANCH   1   2
ATOM      2  C   UNL     1      34.323 -20.977 -20.126  0.00  0.00    -0.021 C 
BRANCH   2   3
ATOM      3  C   UNL     1      35.826 -21.169 -19.926  0.00  0.00    -0.077 C 
BRANCH   3   4
ATOM      4  N   UNL     1      36.078 -22.010 -18.758  0.00  0.00    +0.390 N 
ATOM      5  C   UNL     1      36.978 -21.343 -17.811  0.00  0.00    -0.072 C 
ATOM      6  C   UNL     1      34.816 -22.381 -18.100  0.00  0.00    -0.051 C 
ATOM      7  C   UNL     1      37.356 -22.312 -16.680  0.00  0.00    +0.003 C 
ATOM      8  C   UNL     1      36.161 -23.023 -16.088  0.00  0.00    -0.031 C 
ATOM      9  C   UNL     1      34.993 -23.042 -16.760  0.00  0.00    -0.053 C 
ATOM     10  H   UNL     1      36.537 -22.863 -19.079  0.00  0.00    -0.079 HD
BRANCH   8  11
ATOM     11  C   UNL     1      36.319 -23.690 -14.773  0.00  0.00    -0.004 C 
ATOM     12  C   UNL     1      35.224 -23.818 -13.916  0.00  0.00    -0.000 C 
ATOM     13  C   UNL     1      37.564 -24.192 -14.387  0.00  0.00    -0.000 C 
ATOM     14  C   UNL     1      35.373 -24.446 -12.679  0.00  0.00    -0.000 C 
ATOM     15  C   UNL     1      37.713 -24.820 -13.150  0.00  0.00    -0.000 C 
ATOM     16  C   UNL     1      36.617 -24.946 -12.296  0.00  0.00    -0.000 C 
ENDBRANCH   8  11
ENDBRANCH   3   4
ENDBRANCH   2   3
ENDBRANCH   1   2
BRANCH   1  17
ATOM     17  C   UNL     1      35.312 -19.168 -21.616  0.00  0.00    +0.110 C 
BRANCH  17  21
ATOM     18  F   UNL     1      34.174 -13.941 -24.632  0.00  0.00    -0.204 F 
ATOM     19  O   UNL     1      35.217 -20.130 -24.260  0.00  0.00    -0.246 OA
ATOM     20  O   UNL     1      34.375 -16.015 -26.070  0.00  0.00    -0.267 OA
ATOM     21  N   UNL     1      35.064 -18.331 -22.787  0.00  0.00    -0.281 N 
ATOM     22  N   UNL     1      34.799 -18.063 -25.122  0.00  0.00    -0.274 N 
ATOM     23  C   UNL     1      34.852 -16.928 -22.610  0.00  0.00    +0.071 A 
ATOM     24  C   UNL     1      35.041 -18.926 -24.056  0.00  0.00    +0.330 A 
ATOM     25  C   UNL     1      34.613 -16.110 -23.721  0.00  0.00    +0.099 A 
ATOM     26  C   UNL     1      34.875 -16.326 -21.341  0.00  0.00    +0.018 C 
ATOM     27  C   UNL     1      34.581 -16.698 -25.071  0.00  0.00    +0.265 A 
ATOM     28  C   UNL     1      34.403 -14.732 -23.574  0.00  0.00    +0.146 C 
ATOM     29  C   UNL     1      34.665 -14.952 -21.192  0.00  0.00    +0.004 C 
ATOM     30  C   UNL     1      34.429 -14.156 -22.307  0.00  0.00    +0.030 C 
ATOM     31  H   UNL     1      34.781 -18.473 -26.018  0.00  0.00    +0.173 HD
ENDBRANCH  17  21
ENDBRANCH   1  17
TORSDOF 6
ENDMDL
MODEL 6
REMARK VINA RESULT:     -12.9      8.198     12.258
REMARK  Name = 448890
REMARK  6 active torsions:
REMARK  status: ('A' for Active; 'I' for Inactive)
REMARK    1  A    between atoms: C_1  and  C_2
REMARK    2  A    between atoms: C_1  and  C_17
REMARK    3  A    between atoms: C_2  and  C_3
REMARK    4  A    between atoms: C_3  and  N_4
REMARK    5  A    between atoms: C_8  and  C_11
REMARK    6  A    between atoms: C_17  and  N_21
REMARK                            x       y       z     vdW  Elec       q    Type
REMARK                         _______ _______ _______ _____ _____    ______ ____
ROOT
ATOM      1  C   UNL     1      33.961 -23.703 -15.804  0.00  0.00    +0.022 C 
ENDROOT
BRANCH   1   2
ATOM      2  C   UNL     1      33.187 -22.992 -16.919  0.00  0.00    -0.021 C 
BRANCH   2   3
ATOM      3  C   UNL     1      33.803 -23.282 -18.287  0.00  0.00    -0.077 C 
BRANCH   3   4
ATOM      4  N   UNL     1      34.129 -22.033 -18.971  0.00  0.00    +0.390 N 
ATOM      5  C   UNL     1      35.257 -22.212 -19.891  0.00  0.00    -0.072 C 
ATOM      6  C   UNL     1      32.956 -21.509 -19.686  0.00  0.00    -0.051 C 
ATOM      7  C   UNL     1      35.682 -20.853 -20.466  0.00  0.00    +0.003 C 
ATOM      8  C   UNL     1      34.516 -20.039 -20.981  0.00  0.00    -0.031 C 
ATOM      9  C   UNL     1      33.261 -20.360 -20.609  0.00  0.00    -0.053 C 
ATOM     10  H   UNL     1      34.406 -21.351 -18.264  0.00  0.00    -0.079 HD
BRANCH   8  11
ATOM     11  C   UNL     1      34.798 -18.897 -21.882  0.00  0.00    -0.004 C 
ATOM     12  C   UNL     1      35.029 -17.625 -21.353  0.00  0.00    -0.000 C 
ATOM     13  C   UNL     1      34.836 -19.089 -23.266  0.00  0.00    -0.000 C 
ATOM     14  C   UNL     1      35.294 -16.551 -22.202  0.00  0.00    -0.000 C 
ATOM     15  C   UNL     1      35.102 -18.014 -24.114  0.00  0.00    -0.000 C 
ATOM     16  C   UNL     1      35.331 -16.745 -23.583  0.00  0.00    -0.000 C 
ENDBRANCH   8  11
ENDBRANCH   3   4
ENDBRANCH   2   3
ENDBRANCH   1   2
BRANCH   1  17
ATOM     17  C   UNL     1      34.945 -22.780 -15.093  0.00  0.00    +0.110 C 
BRANCH  17  21
ATOM     18  F   UNL     1      39.907 -25.978 -13.401  0.00  0.00    -0.204 F 
ATOM     19  O   UNL     1      36.743 -22.017 -17.120  0.00  0.00    -0.246 OA
ATOM     20  O   UNL     1      40.171 -24.567 -15.485  0.00  0.00    -0.267 OA
ATOM     21  N   UNL     1      36.323 -23.255 -15.191  0.00  0.00    -0.281 N 
ATOM     22  N   UNL     1      38.426 -23.299 -16.274  0.00  0.00    -0.274 N 
ATOM     23  C   UNL     1      36.819 -24.166 -14.207  0.00  0.00    +0.071 A 
ATOM     24  C   UNL     1      37.124 -22.803 -16.248  0.00  0.00    +0.330 A 
ATOM     25  C   UNL     1      38.137 -24.633 -14.285  0.00  0.00    +0.099 A 
ATOM     26  C   UNL     1      36.020 -24.623 -13.145  0.00  0.00    +0.018 C 
ATOM     27  C   UNL     1      39.011 -24.181 -15.381  0.00  0.00    +0.265 A 
ATOM     28  C   UNL     1      38.646 -25.528 -13.334  0.00  0.00    +0.146 C 
ATOM     29  C   UNL     1      36.526 -25.515 -12.196  0.00  0.00    +0.004 C 
ATOM     30  C   UNL     1      37.838 -25.967 -12.289  0.00  0.00    +0.030 C 
ATOM     31  H   UNL     1      38.996 -22.987 -17.014  0.00  0.00    +0.173 HD
ENDBRANCH  17  21
ENDBRANCH   1  17
TORSDOF 6
ENDMDL
MODEL 7
REMARK VINA RESULT:     -12.9      3.279     10.367
REMARK  Name = 448890
REMARK  6 active torsions:
REMARK  status: ('A' for Active; 'I' for Inactive)
REMARK    1  A    between atoms: C_1  and  C_2
REMARK    2  A    between atoms: C_1  and  C_17
REMARK    3  A    between atoms: C_2  and  C_3
REMARK    4  A    between atoms: C_3  and  N_4
REMARK    5  A    between atoms: C_8  and  C_11
REMARK    6  A    between atoms: C_17  and  N_21
REMARK                            x       y       z     vdW  Elec       q    Type
REMARK                         _______ _______ _______ _____ _____    ______ ____
ROOT
ATOM      1  C   UNL     1      33.751 -12.695 -24.041  0.00  0.00    +0.022 C 
ENDROOT
BRANCH   1   2
ATOM      2  C   UNL     1      34.572 -13.831 -23.421  0.00  0.00    -0.021 C 
BRANCH   2   3
ATOM      3  C   UNL     1      34.539 -15.077 -24.304  0.00  0.00    -0.077 C 
BRANCH   3   4
ATOM      4  N   UNL     1      34.399 -16.277 -23.481  0.00  0.00    +0.390 N 
ATOM      5  C   UNL     1      35.057 -17.428 -24.107  0.00  0.00    -0.072 C 
ATOM      6  C   UNL     1      34.931 -16.047 -22.130  0.00  0.00    -0.051 C 
ATOM      7  C   UNL     1      34.751 -18.703 -23.307  0.00  0.00    +0.003 C 
ATOM      8  C   UNL     1      34.963 -18.532 -21.820  0.00  0.00    -0.031 C 
ATOM      9  C   UNL     1      35.045 -17.294 -21.295  0.00  0.00    -0.053 C 
ATOM     10  H   UNL     1      33.404 -16.489 -23.403  0.00  0.00    -0.079 HD
BRANCH   8  11
ATOM     11  C   UNL     1      35.068 -19.749 -20.980  0.00  0.00    -0.004 C 
ATOM     12  C   UNL     1      36.321 -20.230 -20.596  0.00  0.00    -0.000 C 
ATOM     13  C   UNL     1      33.913 -20.417 -20.568  0.00  0.00    -0.000 C 
ATOM     14  C   UNL     1      36.420 -21.374 -19.805  0.00  0.00    -0.000 C 
ATOM     15  C   UNL     1      34.011 -21.562 -19.777  0.00  0.00    -0.000 C 
ATOM     16  C   UNL     1      35.265 -22.041 -19.395  0.00  0.00    -0.000 C 
ENDBRANCH   8  11
ENDBRANCH   3   4
ENDBRANCH   2   3
ENDBRANCH   1   2
BRANCH   1  17
ATOM     17  C   UNL     1      32.328 -12.632 -23.492  0.00  0.00    +0.110 C 
BRANCH  17  21
ATOM     18  F   UNL     1      31.996  -7.558 -20.050  0.00  0.00    -0.204 F 
ATOM     19  O   UNL     1      32.243 -13.780 -20.923  0.00  0.00    -0.246 OA
ATOM     20  O   UNL     1      32.006  -9.746 -18.779  0.00  0.00    -0.267 OA
ATOM     21  N   UNL     1      32.244 -11.865 -22.252  0.00  0.00    -0.281 N 
ATOM     22  N   UNL     1      32.127 -11.751 -19.892  0.00  0.00    -0.274 N 
ATOM     23  C   UNL     1      32.201 -10.438 -22.316  0.00  0.00    +0.071 A 
ATOM     24  C   UNL     1      32.207 -12.551 -21.030  0.00  0.00    +0.330 A 
ATOM     25  C   UNL     1      32.119  -9.686 -21.138  0.00  0.00    +0.099 A 
ATOM     26  C   UNL     1      32.236  -9.746 -23.539  0.00  0.00    +0.018 C 
ATOM     27  C   UNL     1      32.079 -10.369 -19.833  0.00  0.00    +0.265 A 
ATOM     28  C   UNL     1      32.074  -8.285 -21.174  0.00  0.00    +0.146 C 
ATOM     29  C   UNL     1      32.192  -8.349 -23.577  0.00  0.00    +0.004 C 
ATOM     30  C   UNL     1      32.112  -7.619 -22.396  0.00  0.00    +0.030 C 
ATOM     31  H   UNL     1      32.100 -12.224 -19.029  0.00  0.00    +0.173 HD
ENDBRANCH  17  21
ENDBRANCH   1  17
TORSDOF 6
ENDMDL
MODEL 8
REMARK VINA RESULT:     -12.7      3.717     10.591
REMARK  Name = 448890
REMARK  6 active torsions:
REMARK  status: ('A' for Active; 'I' for Inactive)
REMARK    1  A    between atoms: C_1  and  C_2
REMARK    2  A    between atoms: C_1  and  C_17
REMARK    3  A    between atoms: C_2  and  C_3
REMARK    4  A    between atoms: C_3  and  N_4
REMARK    5  A    between atoms: C_8  and  C_11
REMARK    6  A    between atoms: C_17  and  N_21
REMARK                            x       y       z     vdW  Elec       q    Type
REMARK                         _______ _______ _______ _____ _____    ______ ____
ROOT
ATOM      1  C   UNL     1      32.715 -11.355 -23.038  0.00  0.00    +0.022 C 
ENDROOT
BRANCH   1   2
ATOM      2  C   UNL     1      32.915 -12.850 -22.769  0.00  0.00    -0.021 C 
BRANCH   2   3
ATOM      3  C   UNL     1      34.011 -13.428 -23.665  0.00  0.00    -0.077 C 
BRANCH   3   4
ATOM      4  N   UNL     1      34.616 -14.598 -23.033  0.00  0.00    +0.390 N 
ATOM      5  C   UNL     1      33.913 -14.954 -21.797  0.00  0.00    -0.072 C 
ATOM      6  C   UNL     1      34.641 -15.738 -23.962  0.00  0.00    -0.051 C 
ATOM      7  C   UNL     1      34.669 -16.078 -21.071  0.00  0.00    +0.003 C 
ATOM      8  C   UNL     1      35.046 -17.222 -21.986  0.00  0.00    -0.031 C 
ATOM      9  C   UNL     1      35.025 -17.044 -23.321  0.00  0.00    -0.053 C 
ATOM     10  H   UNL     1      35.578 -14.361 -22.789  0.00  0.00    -0.079 HD
BRANCH   8  11
ATOM     11  C   UNL     1      35.437 -18.513 -21.373  0.00  0.00    -0.004 C 
ATOM     12  C   UNL     1      34.470 -19.484 -21.105  0.00  0.00    -0.000 C 
ATOM     13  C   UNL     1      36.776 -18.764 -21.062  0.00  0.00    -0.000 C 
ATOM     14  C   UNL     1      34.839 -20.700 -20.529  0.00  0.00    -0.000 C 
ATOM     15  C   UNL     1      37.145 -19.980 -20.486  0.00  0.00    -0.000 C 
ATOM     16  C   UNL     1      36.176 -20.948 -20.219  0.00  0.00    -0.000 C 
ENDBRANCH   8  11
ENDBRANCH   3   4
ENDBRANCH   2   3
ENDBRANCH   1   2
BRANCH   1  17
ATOM     17  C   UNL     1      31.519 -10.779 -22.285  0.00  0.00    +0.110 C 
BRANCH  17  21
ATOM     18  F   UNL     1      32.474  -4.772 -21.439  0.00  0.00    -0.204 F 
ATOM     19  O   UNL     1      32.235 -10.768 -19.562  0.00  0.00    -0.246 OA
ATOM     20  O   UNL     1      32.828  -6.235 -19.405  0.00  0.00    -0.267 OA
ATOM     21  N   UNL     1      31.864  -9.576 -21.531  0.00  0.00    -0.281 N 
ATOM     22  N   UNL     1      32.521  -8.508 -19.525  0.00  0.00    -0.274 N 
ATOM     23  C   UNL     1      31.846  -8.309 -22.191  0.00  0.00    +0.071 A 
ATOM     24  C   UNL     1      32.204  -9.698 -20.176  0.00  0.00    +0.330 A 
ATOM     25  C   UNL     1      32.173  -7.145 -21.484  0.00  0.00    +0.099 A 
ATOM     26  C   UNL     1      31.505  -8.181 -23.549  0.00  0.00    +0.018 C 
ATOM     27  C   UNL     1      32.536  -7.231 -20.059  0.00  0.00    +0.265 A 
ATOM     28  C   UNL     1      32.161  -5.891 -22.109  0.00  0.00    +0.146 C 
ATOM     29  C   UNL     1      31.493  -6.931 -24.174  0.00  0.00    +0.004 C 
ATOM     30  C   UNL     1      31.822  -5.787 -23.455  0.00  0.00    +0.030 C 
ATOM     31  H   UNL     1      32.761  -8.583 -18.573  0.00  0.00    +0.173 HD
ENDBRANCH  17  21
ENDBRANCH   1  17
TORSDOF 6
ENDMDL
MODEL 9
REMARK VINA RESULT:     -12.7      3.536      6.300
REMARK  Name = 448890
REMARK  6 active torsions:
REMARK  status: ('A' for Active; 'I' for Inactive)
REMARK    1  A    between atoms: C_1  and  C_2
REMARK    2  A    between atoms: C_1  and  C_17
REMARK    3  A    between atoms: C_2  and  C_3
REMARK    4  A    between atoms: C_3  and  N_4
REMARK    5  A    between atoms: C_8  and  C_11
REMARK    6  A    between atoms: C_17  and  N_21
REMARK                            x       y       z     vdW  Elec       q    Type
REMARK                         _______ _______ _______ _____ _____    ______ ____
ROOT
ATOM      1  C   UNL     1      35.277 -19.215 -23.737  0.00  0.00    +0.022 C 
ENDROOT
BRANCH   1   2
ATOM      2  C   UNL     1      34.345 -18.532 -24.744  0.00  0.00    -0.021 C 
BRANCH   2   3
ATOM      3  C   UNL     1      34.882 -17.159 -25.146  0.00  0.00    -0.077 C 
BRANCH   3   4
ATOM      4  N   UNL     1      34.168 -16.106 -24.428  0.00  0.00    +0.390 N 
ATOM      5  C   UNL     1      35.049 -15.427 -23.472  0.00  0.00    -0.072 C 
ATOM      6  C   UNL     1      33.581 -15.140 -25.368  0.00  0.00    -0.051 C 
ATOM      7  C   UNL     1      34.233 -14.444 -22.618  0.00  0.00    +0.003 C 
ATOM      8  C   UNL     1      33.324 -13.561 -23.442  0.00  0.00    -0.031 C 
ATOM      9  C   UNL     1      33.035 -13.899 -24.714  0.00  0.00    -0.053 C 
ATOM     10  H   UNL     1      33.411 -16.543 -23.901  0.00  0.00    -0.079 HD
BRANCH   8  11
ATOM     11  C   UNL     1      32.768 -12.340 -22.811  0.00  0.00    -0.004 C 
ATOM     12  C   UNL     1      32.076 -12.428 -21.601  0.00  0.00    -0.000 C 
ATOM     13  C   UNL     1      32.937 -11.096 -23.423  0.00  0.00    -0.000 C 
ATOM     14  C   UNL     1      31.554 -11.279 -21.008  0.00  0.00    -0.000 C 
ATOM     15  C   UNL     1      32.414  -9.947 -22.830  0.00  0.00    -0.000 C 
ATOM     16  C   UNL     1      31.723 -10.038 -21.621  0.00  0.00    -0.000 C 
ENDBRANCH   8  11
ENDBRANCH   3   4
ENDBRANCH   2   3
ENDBRANCH   1   2
BRANCH   1  17
ATOM     17  C   UNL     1      35.241 -18.553 -22.363  0.00  0.00    +0.110 C 
BRANCH  17  21
ATOM     18  F   UNL     1      34.750 -22.781 -17.936  0.00  0.00    -0.204 F 
ATOM     19  O   UNL     1      37.932 -18.748 -21.561  0.00  0.00    -0.246 OA
ATOM     20  O   UNL     1      37.086 -21.905 -18.361  0.00  0.00    -0.267 OA
ATOM     21  N   UNL     1      35.722 -19.440 -21.306  0.00  0.00    -0.281 N 
ATOM     22  N   UNL     1      37.470 -20.319 -19.977  0.00  0.00    -0.274 N 
ATOM     23  C   UNL     1      34.788 -20.274 -20.616  0.00  0.00    +0.071 A 
ATOM     24  C   UNL     1      37.088 -19.448 -20.996  0.00  0.00    +0.330 A 
ATOM     25  C   UNL     1      35.230 -21.130 -19.601  0.00  0.00    +0.099 A 
ATOM     26  C   UNL     1      33.417 -20.269 -20.924  0.00  0.00    +0.018 C 
ATOM     27  C   UNL     1      36.659 -21.169 -19.244  0.00  0.00    +0.265 A 
ATOM     28  C   UNL     1      34.335 -21.958 -18.910  0.00  0.00    +0.146 C 
ATOM     29  C   UNL     1      32.522 -21.094 -20.236  0.00  0.00    +0.004 C 
ATOM     30  C   UNL     1      32.980 -21.938 -19.230  0.00  0.00    +0.030 C 
ATOM     31  H   UNL     1      38.429 -20.332 -19.752  0.00  0.00    +0.173 HD
ENDBRANCH  17  21
ENDBRANCH   1  17
TORSDOF 6
ENDMDL
