MODEL 1
REMARK VINA RESULT:     -12.5      0.000      0.000
REMARK  Name = 5326929
REMARK  3 active torsions:
REMARK  status: ('A' for Active; 'I' for Inactive)
REMARK    1  A    between atoms: C_7  and  C_21
REMARK    2  A    between atoms: C_21  and  C_22
REMARK    3  A    between atoms: C_22  and  C_23
REMARK                            x       y       z     vdW  Elec       q    Type
REMARK                         _______ _______ _______ _____ _____    ______ ____
ROOT
ATOM      1  O   UNL     1      34.819 -24.910 -12.182  0.00  0.00    -0.209 OA
ATOM      2  N   UNL     1      34.796 -22.964 -15.682  0.00  0.00    -0.275 N 
ATOM      3  N   UNL     1      29.996 -25.235 -14.242  0.00  0.00    -0.315 N 
ATOM      4  N   UNL     1      30.015 -24.146 -16.179  0.00  0.00    -0.316 N 
ATOM      5  N   UNL     1      35.967 -23.689 -13.742  0.00  0.00    -0.302 NA
ATOM      6  N   UNL     1      37.011 -22.432 -15.421  0.00  0.00    -0.320 N 
ATOM      7  C   UNL     1      32.441 -23.473 -16.060  0.00  0.00    +0.007 C 
ATOM      8  C   UNL     1      33.599 -23.559 -15.271  0.00  0.00    +0.060 C 
ATOM      9  C   UNL     1      31.263 -24.089 -15.601  0.00  0.00    +0.056 C 
ATOM     10  C   UNL     1      31.277 -24.763 -14.385  0.00  0.00    +0.060 C 
ATOM     11  C   UNL     1      33.574 -24.249 -14.049  0.00  0.00    +0.109 C 
ATOM     12  C   UNL     1      32.408 -24.871 -13.575  0.00  0.00    +0.029 C 
ATOM     13  C   UNL     1      34.833 -24.310 -13.252  0.00  0.00    +0.208 C 
ATOM     14  C   UNL     1      29.282 -24.840 -15.339  0.00  0.00    +0.182 C 
ATOM     15  C   UNL     1      35.915 -23.065 -14.889  0.00  0.00    +0.248 C 
ATOM     16  H   UNL     1      34.837 -22.476 -16.536  0.00  0.00    +0.156 HD
ATOM     17  H   UNL     1      29.653 -25.762 -13.485  0.00  0.00    +0.148 HD
ATOM     18  H   UNL     1      29.734 -23.753 -17.036  0.00  0.00    +0.148 HD
ATOM     19  H   UNL     1      36.940 -21.970 -16.288  0.00  0.00    +0.146 HD
ATOM     20  H   UNL     1      37.868 -22.441 -14.937  0.00  0.00    +0.146 HD
ENDROOT
BRANCH   7  21
ATOM     21  C   UNL     1      32.461 -22.739 -17.363  0.00  0.00    +0.034 C 
BRANCH  21  22
ATOM     22  C   UNL     1      33.535 -23.242 -18.346  0.00  0.00    +0.031 C 
BRANCH  22  23
ATOM     23  C   UNL     1      34.104 -22.150 -19.217  0.00  0.00    -0.022 C 
ATOM     24  C   UNL     1      33.241 -21.296 -19.889  0.00  0.00    -0.005 C 
ATOM     25  C   UNL     1      35.478 -22.017 -19.330  0.00  0.00    -0.005 C 
ATOM     26  C   UNL     1      35.150 -20.143 -20.819  0.00  0.00    -0.022 C 
ATOM     27  C   UNL     1      33.768 -20.287 -20.695  0.00  0.00    -0.005 C 
ATOM     28  C   UNL     1      36.005 -21.008 -20.136  0.00  0.00    -0.005 C 
ATOM     29  C   UNL     1      35.713 -19.063 -21.679  0.00  0.00    +0.031 C 
ENDBRANCH  22  23
ENDBRANCH  21  22
ENDBRANCH   7  21
TORSDOF 3
ENDMDL
MODEL 2
REMARK VINA RESULT:     -12.3      1.854      4.356
REMARK  Name = 5326929
REMARK  3 active torsions:
REMARK  status: ('A' for Active; 'I' for Inactive)
REMARK    1  A    between atoms: C_7  and  C_21
REMARK    2  A    between atoms: C_21  and  C_22
REMARK    3  A    between atoms: C_22  and  C_23
REMARK                            x       y       z     vdW  Elec       q    Type
REMARK                         _______ _______ _______ _____ _____    ______ ____
ROOT
ATOM      1  O   UNL     1      28.567 -25.577 -14.375  0.00  0.00    -0.209 OA
ATOM      2  N   UNL     1      29.780 -23.024 -17.212  0.00  0.00    -0.275 N 
ATOM      3  N   UNL     1      33.774 -24.996 -13.984  0.00  0.00    -0.315 N 
ATOM      4  N   UNL     1      34.416 -23.578 -15.570  0.00  0.00    -0.316 N 
ATOM      5  N   UNL     1      28.025 -24.217 -16.135  0.00  0.00    -0.302 NA
ATOM      6  N   UNL     1      27.621 -22.790 -17.949  0.00  0.00    -0.320 N 
ATOM      7  C   UNL     1      32.109 -23.199 -16.510  0.00  0.00    +0.007 C 
ATOM      8  C   UNL     1      30.758 -23.553 -16.365  0.00  0.00    +0.060 C 
ATOM      9  C   UNL     1      33.054 -23.760 -15.633  0.00  0.00    +0.056 C 
ATOM     10  C   UNL     1      32.627 -24.646 -14.649  0.00  0.00    +0.060 C 
ATOM     11  C   UNL     1      30.366 -24.451 -15.360  0.00  0.00    +0.109 C 
ATOM     12  C   UNL     1      31.294 -25.021 -14.474  0.00  0.00    +0.029 C 
ATOM     13  C   UNL     1      28.918 -24.792 -15.250  0.00  0.00    +0.208 C 
ATOM     14  C   UNL     1      34.816 -24.331 -14.572  0.00  0.00    +0.182 C 
ATOM     15  C   UNL     1      28.464 -23.389 -17.046  0.00  0.00    +0.248 C 
ATOM     16  H   UNL     1      30.032 -22.392 -17.923  0.00  0.00    +0.156 HD
ATOM     17  H   UNL     1      33.837 -25.614 -13.221  0.00  0.00    +0.148 HD
ATOM     18  H   UNL     1      34.971 -23.005 -16.147  0.00  0.00    +0.148 HD
ATOM     19  H   UNL     1      27.982 -22.170 -18.624  0.00  0.00    +0.146 HD
ATOM     20  H   UNL     1      26.656 -22.979 -17.922  0.00  0.00    +0.146 HD
ENDROOT
BRANCH   7  21
ATOM     21  C   UNL     1      32.534 -22.243 -17.580  0.00  0.00    +0.034 C 
BRANCH  21  22
ATOM     22  C   UNL     1      33.477 -22.862 -18.629  0.00  0.00    +0.031 C 
BRANCH  22  23
ATOM     23  C   UNL     1      34.215 -21.832 -19.448  0.00  0.00    -0.022 C 
ATOM     24  C   UNL     1      35.602 -21.816 -19.431  0.00  0.00    -0.005 C 
ATOM     25  C   UNL     1      33.495 -20.920 -20.202  0.00  0.00    -0.005 C 
ATOM     26  C   UNL     1      35.572 -19.939 -20.952  0.00  0.00    -0.022 C 
ATOM     27  C   UNL     1      36.284 -20.863 -20.188  0.00  0.00    -0.005 C 
ATOM     28  C   UNL     1      34.177 -19.967 -20.959  0.00  0.00    -0.005 C 
ATOM     29  C   UNL     1      36.300 -18.922 -21.762  0.00  0.00    +0.031 C 
ENDBRANCH  22  23
ENDBRANCH  21  22
ENDBRANCH   7  21
TORSDOF 3
ENDMDL
MODEL 3
REMARK VINA RESULT:     -12.2      8.269     11.726
REMARK  Name = 5326929
REMARK  3 active torsions:
REMARK  status: ('A' for Active; 'I' for Inactive)
REMARK    1  A    between atoms: C_7  and  C_21
REMARK    2  A    between atoms: C_21  and  C_22
REMARK    3  A    between atoms: C_22  and  C_23
REMARK                            x       y       z     vdW  Elec       q    Type
REMARK                         _______ _______ _______ _____ _____    ______ ____
ROOT
ATOM      1  O   UNL     1      35.023 -19.797 -24.892  0.00  0.00    -0.209 OA
ATOM      2  N   UNL     1      35.297 -17.002 -22.037  0.00  0.00    -0.275 N 
ATOM      3  N   UNL     1      33.004 -15.314 -26.744  0.00  0.00    -0.315 N 
ATOM      4  N   UNL     1      33.169 -13.786 -25.139  0.00  0.00    -0.316 N 
ATOM      5  N   UNL     1      35.671 -19.235 -22.768  0.00  0.00    -0.302 NA
ATOM      6  N   UNL     1      36.280 -18.517 -20.623  0.00  0.00    -0.320 N 
ATOM      7  C   UNL     1      34.260 -15.312 -23.457  0.00  0.00    +0.007 C 
ATOM      8  C   UNL     1      34.722 -16.622 -23.253  0.00  0.00    +0.060 C 
ATOM      9  C   UNL     1      33.688 -14.981 -24.698  0.00  0.00    +0.056 C 
ATOM     10  C   UNL     1      33.596 -15.956 -25.686  0.00  0.00    +0.060 C 
ATOM     11  C   UNL     1      34.611 -17.579 -24.275  0.00  0.00    +0.109 C 
ATOM     12  C   UNL     1      34.044 -17.268 -25.520  0.00  0.00    +0.029 C 
ATOM     13  C   UNL     1      35.117 -18.955 -24.004  0.00  0.00    +0.208 C 
ATOM     14  C   UNL     1      32.769 -14.020 -26.367  0.00  0.00    +0.182 C 
ATOM     15  C   UNL     1      35.741 -18.293 -21.865  0.00  0.00    +0.248 C 
ATOM     16  H   UNL     1      35.386 -16.348 -21.307  0.00  0.00    +0.156 HD
ATOM     17  H   UNL     1      32.788 -15.713 -27.617  0.00  0.00    +0.148 HD
ATOM     18  H   UNL     1      33.111 -12.939 -24.642  0.00  0.00    +0.148 HD
ATOM     19  H   UNL     1      36.319 -17.786 -19.964  0.00  0.00    +0.146 HD
ATOM     20  H   UNL     1      36.630 -19.407 -20.391  0.00  0.00    +0.146 HD
ENDROOT
BRANCH   7  21
ATOM     21  C   UNL     1      34.374 -14.288 -22.372  0.00  0.00    +0.034 C 
BRANCH  21  22
ATOM     22  C   UNL     1      33.044 -13.989 -21.655  0.00  0.00    +0.031 C 
BRANCH  22  23
ATOM     23  C   UNL     1      32.651 -12.533 -21.712  0.00  0.00    -0.022 C 
ATOM     24  C   UNL     1      32.959 -11.788 -22.840  0.00  0.00    -0.005 C 
ATOM     25  C   UNL     1      31.988 -11.966 -20.636  0.00  0.00    -0.005 C 
ATOM     26  C   UNL     1      31.929  -9.858 -21.815  0.00  0.00    -0.022 C 
ATOM     27  C   UNL     1      32.596 -10.443 -22.892  0.00  0.00    -0.005 C 
ATOM     28  C   UNL     1      31.625 -10.620 -20.687  0.00  0.00    -0.005 C 
ATOM     29  C   UNL     1      31.539  -8.421 -21.871  0.00  0.00    +0.031 C 
ENDBRANCH  22  23
ENDBRANCH  21  22
ENDBRANCH   7  21
TORSDOF 3
ENDMDL
MODEL 4
REMARK VINA RESULT:     -12.1      1.852      2.515
REMARK  Name = 5326929
REMARK  3 active torsions:
REMARK  status: ('A' for Active; 'I' for Inactive)
REMARK    1  A    between atoms: C_7  and  C_21
REMARK    2  A    between atoms: C_21  and  C_22
REMARK    3  A    between atoms: C_22  and  C_23
REMARK                            x       y       z     vdW  Elec       q    Type
REMARK                         _______ _______ _______ _____ _____    ______ ____
ROOT
ATOM      1  O   UNL     1      36.938 -26.166 -11.968  0.00  0.00    -0.209 OA
ATOM      2  N   UNL     1      37.598 -24.324 -15.463  0.00  0.00    -0.275 N 
ATOM      3  N   UNL     1      32.539 -23.678 -13.403  0.00  0.00    -0.315 N 
ATOM      4  N   UNL     1      32.936 -22.666 -15.341  0.00  0.00    -0.316 N 
ATOM      5  N   UNL     1      38.386 -25.684 -13.676  0.00  0.00    -0.302 NA
ATOM      6  N   UNL     1      39.754 -25.108 -15.489  0.00  0.00    -0.320 N 
ATOM      7  C   UNL     1      35.327 -23.439 -15.536  0.00  0.00    +0.007 C 
ATOM      8  C   UNL     1      36.327 -24.191 -14.898  0.00  0.00    +0.060 C 
ATOM      9  C   UNL     1      34.065 -23.335 -14.925  0.00  0.00    +0.056 C 
ATOM     10  C   UNL     1      33.841 -23.976 -13.711  0.00  0.00    +0.060 C 
ATOM     11  C   UNL     1      36.063 -24.824 -13.673  0.00  0.00    +0.109 C 
ATOM     12  C   UNL     1      34.809 -24.733 -13.048  0.00  0.00    +0.029 C 
ATOM     13  C   UNL     1      37.160 -25.610 -13.040  0.00  0.00    +0.208 C 
ATOM     14  C   UNL     1      32.042 -22.893 -14.407  0.00  0.00    +0.182 C 
ATOM     15  C   UNL     1      38.558 -25.067 -14.816  0.00  0.00    +0.248 C 
ATOM     16  H   UNL     1      37.805 -23.889 -16.321  0.00  0.00    +0.156 HD
ATOM     17  H   UNL     1      32.049 -23.975 -12.603  0.00  0.00    +0.148 HD
ATOM     18  H   UNL     1      32.824 -22.134 -16.161  0.00  0.00    +0.148 HD
ATOM     19  H   UNL     1      39.852 -24.632 -16.346  0.00  0.00    +0.146 HD
ATOM     20  H   UNL     1      40.512 -25.612 -15.116  0.00  0.00    +0.146 HD
ENDROOT
BRANCH   7  21
ATOM     21  C   UNL     1      35.602 -22.760 -16.841  0.00  0.00    +0.034 C 
BRANCH  21  22
ATOM     22  C   UNL     1      34.489 -22.950 -17.888  0.00  0.00    +0.031 C 
BRANCH  22  23
ATOM     23  C   UNL     1      34.560 -21.955 -19.020  0.00  0.00    -0.022 C 
ATOM     24  C   UNL     1      33.388 -21.412 -19.524  0.00  0.00    -0.005 C 
ATOM     25  C   UNL     1      35.796 -21.601 -19.537  0.00  0.00    -0.005 C 
ATOM     26  C   UNL     1      34.692 -20.128 -21.101  0.00  0.00    -0.022 C 
ATOM     27  C   UNL     1      33.455 -20.493 -20.571  0.00  0.00    -0.005 C 
ATOM     28  C   UNL     1      35.863 -20.682 -20.584  0.00  0.00    -0.005 C 
ATOM     29  C   UNL     1      34.764 -19.145 -22.219  0.00  0.00    +0.031 C 
ENDBRANCH  22  23
ENDBRANCH  21  22
ENDBRANCH   7  21
TORSDOF 3
ENDMDL
MODEL 5
REMARK VINA RESULT:     -11.9      1.202      4.030
REMARK  Name = 5326929
REMARK  3 active torsions:
REMARK  status: ('A' for Active; 'I' for Inactive)
REMARK    1  A    between atoms: C_7  and  C_21
REMARK    2  A    between atoms: C_21  and  C_22
REMARK    3  A    between atoms: C_22  and  C_23
REMARK                            x       y       z     vdW  Elec       q    Type
REMARK                         _______ _______ _______ _____ _____    ______ ____
ROOT
ATOM      1  O   UNL     1      31.415 -25.413 -12.964  0.00  0.00    -0.209 OA
ATOM      2  N   UNL     1      30.843 -23.604 -16.492  0.00  0.00    -0.275 N 
ATOM      3  N   UNL     1      36.056 -23.705 -14.739  0.00  0.00    -0.315 N 
ATOM      4  N   UNL     1      35.707 -22.709 -16.694  0.00  0.00    -0.316 N 
ATOM      5  N   UNL     1      29.961 -24.761 -14.608  0.00  0.00    -0.302 NA
ATOM      6  N   UNL     1      28.594 -24.036 -16.367  0.00  0.00    -0.320 N 
ATOM      7  C   UNL     1      33.216 -23.094 -16.725  0.00  0.00    +0.007 C 
ATOM      8  C   UNL     1      32.151 -23.656 -16.002  0.00  0.00    +0.060 C 
ATOM      9  C   UNL     1      34.514 -23.174 -16.189  0.00  0.00    +0.056 C 
ATOM     10  C   UNL     1      34.707 -23.803 -14.964  0.00  0.00    +0.060 C 
ATOM     11  C   UNL     1      32.386 -24.283 -14.768  0.00  0.00    +0.109 C 
ATOM     12  C   UNL     1      33.674 -24.371 -14.217  0.00  0.00    +0.029 C 
ATOM     13  C   UNL     1      31.219 -24.862 -14.043  0.00  0.00    +0.208 C 
ATOM     14  C   UNL     1      36.609 -23.044 -15.801  0.00  0.00    +0.182 C 
ATOM     15  C   UNL     1      29.819 -24.163 -15.762  0.00  0.00    +0.248 C 
ATOM     16  H   UNL     1      30.655 -23.169 -17.354  0.00  0.00    +0.156 HD
ATOM     17  H   UNL     1      36.541 -24.049 -13.955  0.00  0.00    +0.148 HD
ATOM     18  H   UNL     1      35.851 -22.230 -17.542  0.00  0.00    +0.148 HD
ATOM     19  H   UNL     1      28.519 -23.579 -17.237  0.00  0.00    +0.146 HD
ATOM     20  H   UNL     1      27.790 -24.400 -15.933  0.00  0.00    +0.146 HD
ENDROOT
BRANCH   7  21
ATOM     21  C   UNL     1      32.973 -22.425 -18.041  0.00  0.00    +0.034 C 
BRANCH  21  22
ATOM     22  C   UNL     1      33.969 -22.836 -19.141  0.00  0.00    +0.031 C 
BRANCH  22  23
ATOM     23  C   UNL     1      34.577 -21.660 -19.864  0.00  0.00    -0.022 C 
ATOM     24  C   UNL     1      35.957 -21.545 -19.937  0.00  0.00    -0.005 C 
ATOM     25  C   UNL     1      33.746 -20.714 -20.443  0.00  0.00    -0.005 C 
ATOM     26  C   UNL     1      35.694 -19.497 -21.192  0.00  0.00    -0.022 C 
ATOM     27  C   UNL     1      36.518 -20.457 -20.605  0.00  0.00    -0.005 C 
ATOM     28  C   UNL     1      34.307 -19.626 -21.111  0.00  0.00    -0.005 C 
ATOM     29  C   UNL     1      36.294 -18.335 -21.907  0.00  0.00    +0.031 C 
ENDBRANCH  22  23
ENDBRANCH  21  22
ENDBRANCH   7  21
TORSDOF 3
ENDMDL
MODEL 6
REMARK VINA RESULT:     -11.3      7.886     11.265
REMARK  Name = 5326929
REMARK  3 active torsions:
REMARK  status: ('A' for Active; 'I' for Inactive)
REMARK    1  A    between atoms: C_7  and  C_21
REMARK    2  A    between atoms: C_21  and  C_22
REMARK    3  A    between atoms: C_22  and  C_23
REMARK                            x       y       z     vdW  Elec       q    Type
REMARK                         _______ _______ _______ _____ _____    ______ ____
ROOT
ATOM      1  O   UNL     1      32.925 -14.023 -26.809  0.00  0.00    -0.209 OA
ATOM      2  N   UNL     1      34.455 -16.447 -24.011  0.00  0.00    -0.275 N 
ATOM      3  N   UNL     1      31.859 -11.998 -22.079  0.00  0.00    -0.315 N 
ATOM      4  N   UNL     1      32.718 -13.364 -20.551  0.00  0.00    -0.316 N 
ATOM      5  N   UNL     1      34.081 -15.934 -26.305  0.00  0.00    -0.302 NA
ATOM      6  N   UNL     1      35.245 -17.855 -25.640  0.00  0.00    -0.320 N 
ATOM      7  C   UNL     1      33.659 -15.020 -22.201  0.00  0.00    +0.007 C 
ATOM      8  C   UNL     1      33.785 -15.301 -23.571  0.00  0.00    +0.060 C 
ATOM      9  C   UNL     1      32.975 -13.855 -21.810  0.00  0.00    +0.056 C 
ATOM     10  C   UNL     1      32.445 -13.017 -22.786  0.00  0.00    +0.060 C 
ATOM     11  C   UNL     1      33.237 -14.431 -24.526  0.00  0.00    +0.109 C 
ATOM     12  C   UNL     1      32.552 -13.263 -24.156  0.00  0.00    +0.029 C 
ATOM     13  C   UNL     1      33.401 -14.778 -25.967  0.00  0.00    +0.208 C 
ATOM     14  C   UNL     1      32.049 -12.251 -20.748  0.00  0.00    +0.182 C 
ATOM     15  C   UNL     1      34.564 -16.697 -25.360  0.00  0.00    +0.248 C 
ATOM     16  H   UNL     1      34.848 -17.071 -23.360  0.00  0.00    +0.156 HD
ATOM     17  H   UNL     1      31.387 -11.224 -22.460  0.00  0.00    +0.148 HD
ATOM     18  H   UNL     1      32.980 -13.760 -19.689  0.00  0.00    +0.148 HD
ATOM     19  H   UNL     1      35.598 -18.409 -24.905  0.00  0.00    +0.146 HD
ATOM     20  H   UNL     1      35.383 -18.132 -26.574  0.00  0.00    +0.146 HD
ENDROOT
BRANCH   7  21
ATOM     21  C   UNL     1      34.239 -15.944 -21.178  0.00  0.00    +0.034 C 
BRANCH  21  22
ATOM     22  C   UNL     1      35.509 -16.677 -21.650  0.00  0.00    +0.031 C 
BRANCH  22  23
ATOM     23  C   UNL     1      35.566 -18.117 -21.204  0.00  0.00    -0.022 C 
ATOM     24  C   UNL     1      36.785 -18.671 -20.845  0.00  0.00    -0.005 C 
ATOM     25  C   UNL     1      34.398 -18.862 -21.160  0.00  0.00    -0.005 C 
ATOM     26  C   UNL     1      35.669 -20.764 -20.385  0.00  0.00    -0.022 C 
ATOM     27  C   UNL     1      36.837 -20.003 -20.433  0.00  0.00    -0.005 C 
ATOM     28  C   UNL     1      34.449 -20.193 -20.748  0.00  0.00    -0.005 C 
ATOM     29  C   UNL     1      35.725 -22.187 -19.943  0.00  0.00    +0.031 C 
ENDBRANCH  22  23
ENDBRANCH  21  22
ENDBRANCH   7  21
TORSDOF 3
ENDMDL
MODEL 7
REMARK VINA RESULT:     -11.0      2.873      6.106
REMARK  Name = 5326929
REMARK  3 active torsions:
REMARK  status: ('A' for Active; 'I' for Inactive)
REMARK    1  A    between atoms: C_7  and  C_21
REMARK    2  A    between atoms: C_21  and  C_22
REMARK    3  A    between atoms: C_22  and  C_23
REMARK                            x       y       z     vdW  Elec       q    Type
REMARK                         _______ _______ _______ _____ _____    ______ ____
ROOT
ATOM      1  O   UNL     1      37.309 -21.573 -17.524  0.00  0.00    -0.209 OA
ATOM      2  N   UNL     1      33.885 -23.562 -16.924  0.00  0.00    -0.275 N 
ATOM      3  N   UNL     1      37.578 -23.997 -12.870  0.00  0.00    -0.315 N 
ATOM      4  N   UNL     1      35.667 -25.089 -12.566  0.00  0.00    -0.316 N 
ATOM      5  N   UNL     1      35.233 -22.158 -18.293  0.00  0.00    -0.302 NA
ATOM      6  N   UNL     1      33.089 -22.836 -18.949  0.00  0.00    -0.320 N 
ATOM      7  C   UNL     1      34.633 -24.390 -14.756  0.00  0.00    +0.007 C 
ATOM      8  C   UNL     1      34.857 -23.641 -15.922  0.00  0.00    +0.060 C 
ATOM      9  C   UNL     1      35.642 -24.437 -13.778  0.00  0.00    +0.056 C 
ATOM     10  C   UNL     1      36.829 -23.744 -13.991  0.00  0.00    +0.060 C 
ATOM     11  C   UNL     1      36.068 -22.956 -16.101  0.00  0.00    +0.109 C 
ATOM     12  C   UNL     1      37.088 -22.991 -15.138  0.00  0.00    +0.029 C 
ATOM     13  C   UNL     1      36.253 -22.176 -17.359  0.00  0.00    +0.208 C 
ATOM     14  C   UNL     1      36.840 -24.805 -12.049  0.00  0.00    +0.182 C 
ATOM     15  C   UNL     1      34.132 -22.821 -18.057  0.00  0.00    +0.248 C 
ATOM     16  H   UNL     1      33.029 -24.036 -16.820  0.00  0.00    +0.156 HD
ATOM     17  H   UNL     1      38.484 -23.658 -12.688  0.00  0.00    +0.148 HD
ATOM     18  H   UNL     1      34.958 -25.648 -12.173  0.00  0.00    +0.148 HD
ATOM     19  H   UNL     1      32.271 -23.346 -18.742  0.00  0.00    +0.146 HD
ATOM     20  H   UNL     1      33.157 -22.339 -19.795  0.00  0.00    +0.146 HD
ENDROOT
BRANCH   7  21
ATOM     21  C   UNL     1      33.343 -25.123 -14.558  0.00  0.00    +0.034 C 
BRANCH  21  22
ATOM     22  C   UNL     1      32.318 -24.358 -13.701  0.00  0.00    +0.031 C 
BRANCH  22  23
ATOM     23  C   UNL     1      31.068 -23.985 -14.459  0.00  0.00    -0.022 C 
ATOM     24  C   UNL     1      30.114 -24.957 -14.719  0.00  0.00    -0.005 C 
ATOM     25  C   UNL     1      30.894 -22.676 -14.882  0.00  0.00    -0.005 C 
ATOM     26  C   UNL     1      28.771 -23.298 -15.853  0.00  0.00    -0.022 C 
ATOM     27  C   UNL     1      28.959 -24.611 -15.421  0.00  0.00    -0.005 C 
ATOM     28  C   UNL     1      29.739 -22.331 -15.583  0.00  0.00    -0.005 C 
ATOM     29  C   UNL     1      27.536 -22.929 -16.601  0.00  0.00    +0.031 C 
ENDBRANCH  22  23
ENDBRANCH  21  22
ENDBRANCH   7  21
TORSDOF 3
ENDMDL
MODEL 8
REMARK VINA RESULT:     -11.0     12.079     15.287
REMARK  Name = 5326929
REMARK  3 active torsions:
REMARK  status: ('A' for Active; 'I' for Inactive)
REMARK    1  A    between atoms: C_7  and  C_21
REMARK    2  A    between atoms: C_21  and  C_22
REMARK    3  A    between atoms: C_22  and  C_23
REMARK                            x       y       z     vdW  Elec       q    Type
REMARK                         _______ _______ _______ _____ _____    ______ ____
ROOT
ATOM      1  O   UNL     1      32.300 -14.511 -20.809  0.00  0.00    -0.209 OA
ATOM      2  N   UNL     1      33.045 -11.992 -23.833  0.00  0.00    -0.275 N 
ATOM      3  N   UNL     1      31.592  -9.593 -19.101  0.00  0.00    -0.315 N 
ATOM      4  N   UNL     1      32.014  -8.222 -20.797  0.00  0.00    -0.316 N 
ATOM      5  N   UNL     1      32.908 -14.216 -22.997  0.00  0.00    -0.302 NA
ATOM      6  N   UNL     1      33.518 -13.762 -25.213  0.00  0.00    -0.320 N 
ATOM      7  C   UNL     1      32.565 -10.040 -22.453  0.00  0.00    +0.007 C 
ATOM      8  C   UNL     1      32.672 -11.431 -22.608  0.00  0.00    +0.060 C 
ATOM      9  C   UNL     1      32.186  -9.526 -21.200  0.00  0.00    +0.056 C 
ATOM     10  C   UNL     1      31.928 -10.405 -20.154  0.00  0.00    +0.060 C 
ATOM     11  C   UNL     1      32.403 -12.287 -21.528  0.00  0.00    +0.109 C 
ATOM     12  C   UNL     1      32.023 -11.793 -20.271  0.00  0.00    +0.029 C 
ATOM     13  C   UNL     1      32.532 -13.756 -21.748  0.00  0.00    +0.208 C 
ATOM     14  C   UNL     1      31.658  -8.298 -19.536  0.00  0.00    +0.182 C 
ATOM     15  C   UNL     1      33.142 -13.359 -23.956  0.00  0.00    +0.248 C 
ATOM     16  H   UNL     1      33.238 -11.412 -24.604  0.00  0.00    +0.156 HD
ATOM     17  H   UNL     1      31.347  -9.888 -18.195  0.00  0.00    +0.148 HD
ATOM     18  H   UNL     1      32.131  -7.408 -21.339  0.00  0.00    +0.148 HD
ATOM     19  H   UNL     1      33.687 -13.092 -25.915  0.00  0.00    +0.146 HD
ATOM     20  H   UNL     1      33.618 -14.720 -25.414  0.00  0.00    +0.146 HD
ENDROOT
BRANCH   7  21
ATOM     21  C   UNL     1      32.850  -9.123 -23.600  0.00  0.00    +0.034 C 
BRANCH  21  22
ATOM     22  C   UNL     1      33.901  -8.042 -23.286  0.00  0.00    +0.031 C 
BRANCH  22  23
ATOM     23  C   UNL     1      33.891  -6.897 -24.269  0.00  0.00    -0.022 C 
ATOM     24  C   UNL     1      32.737  -6.145 -24.426  0.00  0.00    -0.005 C 
ATOM     25  C   UNL     1      35.036  -6.617 -24.998  0.00  0.00    -0.005 C 
ATOM     26  C   UNL     1      33.873  -4.794 -26.076  0.00  0.00    -0.022 C 
ATOM     27  C   UNL     1      32.728  -5.087 -25.335  0.00  0.00    -0.005 C 
ATOM     28  C   UNL     1      35.028  -5.559 -25.907  0.00  0.00    -0.005 C 
ATOM     29  C   UNL     1      33.864  -3.663 -27.046  0.00  0.00    +0.031 C 
ENDBRANCH  22  23
ENDBRANCH  21  22
ENDBRANCH   7  21
TORSDOF 3
ENDMDL
MODEL 9
REMARK VINA RESULT:     -11.0      1.977      4.562
REMARK  Name = 5326929
REMARK  3 active torsions:
REMARK  status: ('A' for Active; 'I' for Inactive)
REMARK    1  A    between atoms: C_7  and  C_21
REMARK    2  A    between atoms: C_21  and  C_22
REMARK    3  A    between atoms: C_22  and  C_23
REMARK                            x       y       z     vdW  Elec       q    Type
REMARK                         _______ _______ _______ _____ _____    ______ ____
ROOT
ATOM      1  O   UNL     1      34.612 -25.258 -11.791  0.00  0.00    -0.209 OA
ATOM      2  N   UNL     1      34.260 -22.907 -15.014  0.00  0.00    -0.275 N 
ATOM      3  N   UNL     1      39.242 -25.119 -14.271  0.00  0.00    -0.315 N 
ATOM      4  N   UNL     1      39.014 -23.811 -16.053  0.00  0.00    -0.316 N 
ATOM      5  N   UNL     1      33.290 -23.910 -13.086  0.00  0.00    -0.302 NA
ATOM      6  N   UNL     1      32.060 -22.510 -14.505  0.00  0.00    -0.320 N 
ATOM      7  C   UNL     1      36.588 -23.262 -15.647  0.00  0.00    +0.007 C 
ATOM      8  C   UNL     1      35.508 -23.493 -14.781  0.00  0.00    +0.060 C 
ATOM      9  C   UNL     1      37.822 -23.876 -15.368  0.00  0.00    +0.056 C 
ATOM     10  C   UNL     1      37.939 -24.692 -14.248  0.00  0.00    +0.060 C 
ATOM     11  C   UNL     1      35.665 -24.323 -13.660  0.00  0.00    +0.109 C 
ATOM     12  C   UNL     1      36.888 -24.944 -13.364  0.00  0.00    +0.029 C 
ATOM     13  C   UNL     1      34.484 -24.534 -12.773  0.00  0.00    +0.208 C 
ATOM     14  C   UNL     1      39.843 -24.565 -15.368  0.00  0.00    +0.182 C 
ATOM     15  C   UNL     1      33.219 -23.151 -14.148  0.00  0.00    +0.248 C 
ATOM     16  H   UNL     1      34.128 -22.321 -15.794  0.00  0.00    +0.156 HD
ATOM     17  H   UNL     1      39.668 -25.717 -13.617  0.00  0.00    +0.148 HD
ATOM     18  H   UNL     1      39.205 -23.306 -16.876  0.00  0.00    +0.148 HD
ATOM     19  H   UNL     1      32.038 -21.944 -15.312  0.00  0.00    +0.146 HD
ATOM     20  H   UNL     1      31.250 -22.613 -13.956  0.00  0.00    +0.146 HD
ENDROOT
BRANCH   7  21
ATOM     21  C   UNL     1      36.428 -22.380 -16.845  0.00  0.00    +0.034 C 
BRANCH  21  22
ATOM     22  C   UNL     1      35.240 -22.763 -17.746  0.00  0.00    +0.031 C 
BRANCH  22  23
ATOM     23  C   UNL     1      35.081 -21.856 -18.941  0.00  0.00    -0.022 C 
ATOM     24  C   UNL     1      36.209 -21.316 -19.541  0.00  0.00    -0.005 C 
ATOM     25  C   UNL     1      33.811 -21.577 -19.419  0.00  0.00    -0.005 C 
ATOM     26  C   UNL     1      34.788 -20.188 -21.137  0.00  0.00    -0.022 C 
ATOM     27  C   UNL     1      36.061 -20.477 -20.645  0.00  0.00    -0.005 C 
ATOM     28  C   UNL     1      33.663 -20.738 -20.524  0.00  0.00    -0.005 C 
ATOM     29  C   UNL     1      34.631 -19.292 -22.318  0.00  0.00    +0.031 C 
ENDBRANCH  22  23
ENDBRANCH  21  22
ENDBRANCH   7  21
TORSDOF 3
ENDMDL
