MODEL 1
REMARK VINA RESULT:     -13.5      0.000      0.000
REMARK  Name = 25151352
REMARK  5 active torsions:
REMARK  status: ('A' for Active; 'I' for Inactive)
REMARK    1  A    between atoms: N_1  and  C_21
REMARK    2  A    between atoms: C_3  and  C_9
REMARK    3  A    between atoms: C_9  and  C_13
REMARK    4  A    between atoms: C_21  and  C_23
REMARK    5  A    between atoms: C_27  and  C_31
REMARK                            x       y       z     vdW  Elec       q    Type
REMARK                         _______ _______ _______ _____ _____    ______ ____
ROOT
ATOM      1  N   UNL     1      35.053 -22.213 -19.314  0.00  0.00    -0.314 N 
ATOM      2  N   UNL     1      36.553 -20.535 -20.097  0.00  0.00    -0.230 NA
ATOM      3  C   UNL     1      35.693 -18.685 -21.394  0.00  0.00    +0.002 C 
ATOM      4  C   UNL     1      34.406 -19.202 -21.293  0.00  0.00    +0.000 C 
ATOM      5  C   UNL     1      36.723 -19.382 -20.784  0.00  0.00    +0.096 C 
ATOM      6  C   UNL     1      35.289 -21.008 -20.022  0.00  0.00    +0.129 C 
ATOM      7  C   UNL     1      34.192 -20.386 -20.596  0.00  0.00    +0.034 C 
ATOM      8  H   UNL     1      35.817 -22.673 -18.898  0.00  0.00    +0.149 HD
ENDROOT
BRANCH   3   9
ATOM      9  C   UNL     1      35.960 -17.391 -22.149  0.00  0.00    +0.056 C 
BRANCH   9  13
ATOM     10 CL   UNL     1      33.714 -12.321 -24.278  0.00  0.00    -0.081 Cl
ATOM     11  N   UNL     1      34.551 -17.901 -25.484  0.00  0.00    -0.297 N 
ATOM     12  N   UNL     1      33.670 -15.796 -26.255  0.00  0.00    -0.228 NA
ATOM     13  C   UNL     1      35.328 -17.320 -23.483  0.00  0.00    -0.000 C 
ATOM     14  C   UNL     1      34.761 -16.170 -24.090  0.00  0.00    +0.030 C 
ATOM     15  C   UNL     1      34.285 -16.566 -25.337  0.00  0.00    +0.132 C 
ATOM     16  C   UNL     1      35.184 -18.371 -24.363  0.00  0.00    +0.059 C 
ATOM     17  C   UNL     1      34.590 -14.823 -23.731  0.00  0.00    +0.015 C 
ATOM     18  C   UNL     1      33.959 -13.981 -24.645  0.00  0.00    +0.077 C 
ATOM     19  C   UNL     1      33.532 -14.510 -25.856  0.00  0.00    +0.112 C 
ATOM     20  H   UNL     1      34.322 -18.442 -26.274  0.00  0.00    +0.154 HD
ENDBRANCH   9  13
ENDBRANCH   3   9
BRANCH   1  21
ATOM     21  C   UNL     1      33.754 -22.786 -19.181  0.00  0.00    +0.117 C 
BRANCH  21  23
ATOM     22  N   UNL     1      34.265 -23.684 -15.541  0.00  0.00    -0.240 NA
ATOM     23  C   UNL     1      33.454 -23.083 -17.738  0.00  0.00    +0.017 C 
ATOM     24  C   UNL     1      32.151 -23.042 -17.253  0.00  0.00    +0.000 C 
ATOM     25  C   UNL     1      34.466 -23.406 -16.849  0.00  0.00    +0.096 C 
ATOM     26  C   UNL     1      31.905 -23.322 -15.914  0.00  0.00    +0.023 C 
ATOM     27  C   UNL     1      32.986 -23.634 -15.106  0.00  0.00    +0.153 C 
BRANCH  27  31
ATOM     28  F   UNL     1      31.880 -23.087 -13.057  0.00  0.00    -0.164 F 
ATOM     29  F   UNL     1      32.253 -25.188 -13.442  0.00  0.00    -0.164 F 
ATOM     30  F   UNL     1      33.904 -23.871 -12.925  0.00  0.00    -0.164 F 
ATOM     31  C   UNL     1      32.758 -23.939 -13.664  0.00  0.00    +0.435 C 
ENDBRANCH  27  31
ENDBRANCH  21  23
ENDBRANCH   1  21
TORSDOF 5
ENDMDL
MODEL 2
REMARK VINA RESULT:     -12.9      3.731      5.988
REMARK  Name = 25151352
REMARK  5 active torsions:
REMARK  status: ('A' for Active; 'I' for Inactive)
REMARK    1  A    between atoms: N_1  and  C_21
REMARK    2  A    between atoms: C_3  and  C_9
REMARK    3  A    between atoms: C_9  and  C_13
REMARK    4  A    between atoms: C_21  and  C_23
REMARK    5  A    between atoms: C_27  and  C_31
REMARK                            x       y       z     vdW  Elec       q    Type
REMARK                         _______ _______ _______ _____ _____    ______ ____
ROOT
ATOM      1  N   UNL     1      35.548 -18.173 -23.432  0.00  0.00    -0.314 N 
ATOM      2  N   UNL     1      34.252 -16.672 -24.754  0.00  0.00    -0.230 NA
ATOM      3  C   UNL     1      34.015 -14.371 -24.051  0.00  0.00    +0.002 C 
ATOM      4  C   UNL     1      34.807 -14.622 -22.936  0.00  0.00    +0.000 C 
ATOM      5  C   UNL     1      33.770 -15.420 -24.922  0.00  0.00    +0.096 C 
ATOM      6  C   UNL     1      35.016 -16.878 -23.658  0.00  0.00    +0.129 C 
ATOM      7  C   UNL     1      35.320 -15.897 -22.728  0.00  0.00    +0.034 C 
ATOM      8  H   UNL     1      35.345 -18.886 -24.079  0.00  0.00    +0.149 HD
ENDROOT
BRANCH   3   9
ATOM      9  C   UNL     1      33.440 -12.986 -24.307  0.00  0.00    +0.056 C 
BRANCH   9  13
ATOM     10 CL   UNL     1      33.382  -7.113 -23.421  0.00  0.00    -0.081 Cl
ATOM     11  N   UNL     1      31.596 -12.157 -21.260  0.00  0.00    -0.297 N 
ATOM     12  N   UNL     1      31.631  -9.763 -20.992  0.00  0.00    -0.228 NA
ATOM     13  C   UNL     1      32.759 -12.382 -23.143  0.00  0.00    -0.000 C 
ATOM     14  C   UNL     1      32.681 -11.000 -22.831  0.00  0.00    +0.030 C 
ATOM     15  C   UNL     1      31.949 -10.893 -21.652  0.00  0.00    +0.132 C 
ATOM     16  C   UNL     1      32.082 -13.070 -22.158  0.00  0.00    +0.059 C 
ATOM     17  C   UNL     1      33.148  -9.810 -23.413  0.00  0.00    +0.015 C 
ATOM     18  C   UNL     1      32.846  -8.610 -22.771  0.00  0.00    +0.077 C 
ATOM     19  C   UNL     1      32.106  -8.649 -21.596  0.00  0.00    +0.112 C 
ATOM     20  H   UNL     1      31.072 -12.375 -20.456  0.00  0.00    +0.154 HD
ENDBRANCH   9  13
ENDBRANCH   3   9
BRANCH   1  21
ATOM     21  C   UNL     1      36.365 -18.483 -22.305  0.00  0.00    +0.117 C 
BRANCH  21  23
ATOM     22  N   UNL     1      35.856 -21.253 -19.778  0.00  0.00    -0.240 NA
ATOM     23  C   UNL     1      35.680 -19.486 -21.419  0.00  0.00    +0.017 C 
ATOM     24  C   UNL     1      34.293 -19.595 -21.398  0.00  0.00    +0.000 C 
ATOM     25  C   UNL     1      36.408 -20.330 -20.597  0.00  0.00    +0.096 C 
ATOM     26  C   UNL     1      33.688 -20.533 -20.568  0.00  0.00    +0.023 C 
ATOM     27  C   UNL     1      34.506 -21.330 -19.785  0.00  0.00    +0.153 C 
BRANCH  27  31
ATOM     28  F   UNL     1      34.606 -22.571 -17.742  0.00  0.00    -0.164 F 
ATOM     29  F   UNL     1      32.636 -22.012 -18.456  0.00  0.00    -0.164 F 
ATOM     30  F   UNL     1      33.760 -23.568 -19.479  0.00  0.00    -0.164 F 
ATOM     31  C   UNL     1      33.890 -22.347 -18.882  0.00  0.00    +0.435 C 
ENDBRANCH  27  31
ENDBRANCH  21  23
ENDBRANCH   1  21
TORSDOF 5
ENDMDL
MODEL 3
REMARK VINA RESULT:     -12.9      1.972      2.481
REMARK  Name = 25151352
REMARK  5 active torsions:
REMARK  status: ('A' for Active; 'I' for Inactive)
REMARK    1  A    between atoms: N_1  and  C_21
REMARK    2  A    between atoms: C_3  and  C_9
REMARK    3  A    between atoms: C_9  and  C_13
REMARK    4  A    between atoms: C_21  and  C_23
REMARK    5  A    between atoms: C_27  and  C_31
REMARK                            x       y       z     vdW  Elec       q    Type
REMARK                         _______ _______ _______ _____ _____    ______ ____
ROOT
ATOM      1  N   UNL     1      33.226 -22.212 -19.076  0.00  0.00    -0.314 N 
ATOM      2  N   UNL     1      32.886 -20.593 -20.791  0.00  0.00    -0.230 NA
ATOM      3  C   UNL     1      34.785 -19.393 -21.685  0.00  0.00    +0.002 C 
ATOM      4  C   UNL     1      35.635 -20.085 -20.830  0.00  0.00    +0.000 C 
ATOM      5  C   UNL     1      33.431 -19.681 -21.628  0.00  0.00    +0.096 C 
ATOM      6  C   UNL     1      33.743 -21.244 -19.974  0.00  0.00    +0.129 C 
ATOM      7  C   UNL     1      35.112 -21.030 -19.954  0.00  0.00    +0.034 C 
ATOM      8  H   UNL     1      32.256 -22.381 -19.072  0.00  0.00    +0.149 HD
ENDROOT
BRANCH   3   9
ATOM      9  C   UNL     1      35.327 -18.354 -22.656  0.00  0.00    +0.056 C 
BRANCH   9  13
ATOM     10 CL   UNL     1      33.573 -14.447 -26.771  0.00  0.00    -0.081 Cl
ATOM     11  N   UNL     1      34.654 -15.095 -21.140  0.00  0.00    -0.297 N 
ATOM     12  N   UNL     1      33.953 -13.589 -22.884  0.00  0.00    -0.228 NA
ATOM     13  C   UNL     1      34.990 -16.958 -22.308  0.00  0.00    -0.000 C 
ATOM     14  C   UNL     1      34.563 -15.943 -23.203  0.00  0.00    +0.030 C 
ATOM     15  C   UNL     1      34.361 -14.794 -22.444  0.00  0.00    +0.132 C 
ATOM     16  C   UNL     1      35.038 -16.408 -21.045  0.00  0.00    +0.059 C 
ATOM     17  C   UNL     1      34.318 -15.857 -24.584  0.00  0.00    +0.015 C 
ATOM     18  C   UNL     1      33.893 -14.631 -25.093  0.00  0.00    +0.077 C 
ATOM     19  C   UNL     1      33.733 -13.564 -24.220  0.00  0.00    +0.112 C 
ATOM     20  H   UNL     1      34.597 -14.465 -20.386  0.00  0.00    +0.154 HD
ENDBRANCH   9  13
ENDBRANCH   3   9
BRANCH   1  21
ATOM     21  C   UNL     1      34.053 -22.948 -18.178  0.00  0.00    +0.117 C 
BRANCH  21  23
ATOM     22  N   UNL     1      31.115 -23.746 -15.931  0.00  0.00    -0.240 NA
ATOM     23  C   UNL     1      33.267 -23.382 -16.972  0.00  0.00    +0.017 C 
ATOM     24  C   UNL     1      33.908 -23.809 -15.813  0.00  0.00    +0.000 C 
ATOM     25  C   UNL     1      31.882 -23.370 -16.979  0.00  0.00    +0.096 C 
ATOM     26  C   UNL     1      33.153 -24.203 -14.714  0.00  0.00    +0.023 C 
ATOM     27  C   UNL     1      31.773 -24.155 -14.823  0.00  0.00    +0.153 C 
BRANCH  27  31
ATOM     28  F   UNL     1      30.709 -23.570 -12.762  0.00  0.00    -0.164 F 
ATOM     29  F   UNL     1      29.691 -25.016 -14.017  0.00  0.00    -0.164 F 
ATOM     30  F   UNL     1      31.495 -25.589 -12.946  0.00  0.00    -0.164 F 
ATOM     31  C   UNL     1      30.933 -24.572 -13.662  0.00  0.00    +0.435 C 
ENDBRANCH  27  31
ENDBRANCH  21  23
ENDBRANCH   1  21
TORSDOF 5
ENDMDL
MODEL 4
REMARK VINA RESULT:     -12.9      2.348      3.039
REMARK  Name = 25151352
REMARK  5 active torsions:
REMARK  status: ('A' for Active; 'I' for Inactive)
REMARK    1  A    between atoms: N_1  and  C_21
REMARK    2  A    between atoms: C_3  and  C_9
REMARK    3  A    between atoms: C_9  and  C_13
REMARK    4  A    between atoms: C_21  and  C_23
REMARK    5  A    between atoms: C_27  and  C_31
REMARK                            x       y       z     vdW  Elec       q    Type
REMARK                         _______ _______ _______ _____ _____    ______ ____
ROOT
ATOM      1  N   UNL     1      36.411 -21.191 -19.159  0.00  0.00    -0.314 N 
ATOM      2  N   UNL     1      37.061 -19.469 -20.673  0.00  0.00    -0.230 NA
ATOM      3  C   UNL     1      35.448 -18.604 -22.252  0.00  0.00    +0.002 C 
ATOM      4  C   UNL     1      34.484 -19.473 -21.754  0.00  0.00    +0.000 C 
ATOM      5  C   UNL     1      36.710 -18.640 -21.682  0.00  0.00    +0.096 C 
ATOM      6  C   UNL     1      36.098 -20.301 -20.216  0.00  0.00    +0.129 C 
ATOM      7  C   UNL     1      34.806 -20.341 -20.718  0.00  0.00    +0.034 C 
ATOM      8  H   UNL     1      37.322 -21.180 -18.787  0.00  0.00    +0.149 HD
ENDROOT
BRANCH   3   9
ATOM      9  C   UNL     1      35.125 -17.641 -23.385  0.00  0.00    +0.056 C 
BRANCH   9  13
ATOM     10 CL   UNL     1      33.435 -13.447 -27.236  0.00  0.00    -0.081 Cl
ATOM     11  N   UNL     1      34.494 -14.480 -21.658  0.00  0.00    -0.297 N 
ATOM     12  N   UNL     1      33.817 -12.852 -23.300  0.00  0.00    -0.228 NA
ATOM     13  C   UNL     1      34.806 -16.266 -22.946  0.00  0.00    -0.000 C 
ATOM     14  C   UNL     1      34.395 -15.188 -23.773  0.00  0.00    +0.030 C 
ATOM     15  C   UNL     1      34.208 -14.090 -22.940  0.00  0.00    +0.132 C 
ATOM     16  C   UNL     1      34.859 -15.801 -21.650  0.00  0.00    +0.059 C 
ATOM     17  C   UNL     1      34.155 -15.008 -25.145  0.00  0.00    +0.015 C 
ATOM     18  C   UNL     1      33.748 -13.745 -25.573  0.00  0.00    +0.077 C 
ATOM     19  C   UNL     1      33.601 -12.736 -24.632  0.00  0.00    +0.112 C 
ATOM     20  H   UNL     1      34.444 -13.900 -20.864  0.00  0.00    +0.154 HD
ENDBRANCH   9  13
ENDBRANCH   3   9
BRANCH   1  21
ATOM     21  C   UNL     1      35.459 -22.102 -18.613  0.00  0.00    +0.117 C 
BRANCH  21  23
ATOM     22  N   UNL     1      35.258 -23.501 -15.103  0.00  0.00    -0.240 NA
ATOM     23  C   UNL     1      35.868 -22.526 -17.230  0.00  0.00    +0.017 C 
ATOM     24  C   UNL     1      37.175 -22.354 -16.784  0.00  0.00    +0.000 C 
ATOM     25  C   UNL     1      34.957 -23.099 -16.358  0.00  0.00    +0.096 C 
ATOM     26  C   UNL     1      37.523 -22.755 -15.499  0.00  0.00    +0.023 C 
ATOM     27  C   UNL     1      36.537 -23.318 -14.706  0.00  0.00    +0.153 C 
BRANCH  27  31
ATOM     28  F   UNL     1      36.131 -24.818 -12.887  0.00  0.00    -0.164 F 
ATOM     29  F   UNL     1      38.176 -24.156 -13.177  0.00  0.00    -0.164 F 
ATOM     30  F   UNL     1      36.689 -22.775 -12.395  0.00  0.00    -0.164 F 
ATOM     31  C   UNL     1      36.877 -23.760 -13.321  0.00  0.00    +0.435 C 
ENDBRANCH  27  31
ENDBRANCH  21  23
ENDBRANCH   1  21
TORSDOF 5
ENDMDL
MODEL 5
REMARK VINA RESULT:     -12.7      7.133     11.000
REMARK  Name = 25151352
REMARK  5 active torsions:
REMARK  status: ('A' for Active; 'I' for Inactive)
REMARK    1  A    between atoms: N_1  and  C_21
REMARK    2  A    between atoms: C_3  and  C_9
REMARK    3  A    between atoms: C_9  and  C_13
REMARK    4  A    between atoms: C_21  and  C_23
REMARK    5  A    between atoms: C_27  and  C_31
REMARK                            x       y       z     vdW  Elec       q    Type
REMARK                         _______ _______ _______ _____ _____    ______ ____
ROOT
ATOM      1  N   UNL     1      32.412 -13.282 -22.468  0.00  0.00    -0.314 N 
ATOM      2  N   UNL     1      33.385 -14.708 -24.111  0.00  0.00    -0.230 NA
ATOM      3  C   UNL     1      34.769 -16.561 -23.406  0.00  0.00    +0.002 C 
ATOM      4  C   UNL     1      34.570 -16.212 -22.074  0.00  0.00    +0.000 C 
ATOM      5  C   UNL     1      34.160 -15.784 -24.378  0.00  0.00    +0.096 C 
ATOM      6  C   UNL     1      33.216 -14.400 -22.805  0.00  0.00    +0.129 C 
ATOM      7  C   UNL     1      33.781 -15.112 -21.760  0.00  0.00    +0.034 C 
ATOM      8  H   UNL     1      32.001 -12.760 -23.194  0.00  0.00    +0.149 HD
ENDROOT
BRANCH   3   9
ATOM      9  C   UNL     1      35.627 -17.760 -23.782  0.00  0.00    +0.056 C 
BRANCH   9  13
ATOM     10 CL   UNL     1      32.708 -21.442 -20.150  0.00  0.00    -0.081 Cl
ATOM     11  N   UNL     1      37.850 -19.032 -21.172  0.00  0.00    -0.297 N 
ATOM     12  N   UNL     1      36.576 -20.509 -19.759  0.00  0.00    -0.228 NA
ATOM     13  C   UNL     1      36.296 -18.415 -22.639  0.00  0.00    -0.000 C 
ATOM     14  C   UNL     1      35.701 -19.308 -21.710  0.00  0.00    +0.030 C 
ATOM     15  C   UNL     1      36.697 -19.675 -20.809  0.00  0.00    +0.132 C 
ATOM     16  C   UNL     1      37.619 -18.264 -22.283  0.00  0.00    +0.059 C 
ATOM     17  C   UNL     1      34.423 -19.858 -21.520  0.00  0.00    +0.015 C 
ATOM     18  C   UNL     1      34.243 -20.729 -20.447  0.00  0.00    +0.077 C 
ATOM     19  C   UNL     1      35.325 -21.008 -19.623  0.00  0.00    +0.112 C 
ATOM     20  H   UNL     1      38.714 -19.111 -20.707  0.00  0.00    +0.154 HD
ENDBRANCH   9  13
ENDBRANCH   3   9
BRANCH   1  21
ATOM     21  C   UNL     1      32.177 -12.882 -21.119  0.00  0.00    +0.117 C 
BRANCH  21  23
ATOM     22  N   UNL     1      32.160  -9.234 -22.124  0.00  0.00    -0.240 NA
ATOM     23  C   UNL     1      32.112 -11.383 -21.018  0.00  0.00    +0.017 C 
ATOM     24  C   UNL     1      31.952 -10.754 -19.787  0.00  0.00    +0.000 C 
ATOM     25  C   UNL     1      32.210 -10.585 -22.146  0.00  0.00    +0.096 C 
ATOM     26  C   UNL     1      31.896  -9.366 -19.725  0.00  0.00    +0.023 C 
ATOM     27  C   UNL     1      32.003  -8.659 -20.911  0.00  0.00    +0.153 C 
BRANCH  27  31
ATOM     28  F   UNL     1      31.017  -6.638 -21.729  0.00  0.00    -0.164 F 
ATOM     29  F   UNL     1      31.640  -6.657 -19.652  0.00  0.00    -0.164 F 
ATOM     30  F   UNL     1      33.133  -6.591 -21.231  0.00  0.00    -0.164 F 
ATOM     31  C   UNL     1      31.947  -7.168 -20.881  0.00  0.00    +0.435 C 
ENDBRANCH  27  31
ENDBRANCH  21  23
ENDBRANCH   1  21
TORSDOF 5
ENDMDL
MODEL 6
REMARK VINA RESULT:     -12.6      6.388     11.253
REMARK  Name = 25151352
REMARK  5 active torsions:
REMARK  status: ('A' for Active; 'I' for Inactive)
REMARK    1  A    between atoms: N_1  and  C_21
REMARK    2  A    between atoms: C_3  and  C_9
REMARK    3  A    between atoms: C_9  and  C_13
REMARK    4  A    between atoms: C_21  and  C_23
REMARK    5  A    between atoms: C_27  and  C_31
REMARK                            x       y       z     vdW  Elec       q    Type
REMARK                         _______ _______ _______ _____ _____    ______ ____
ROOT
ATOM      1  N   UNL     1      34.554 -18.916 -22.602  0.00  0.00    -0.314 N 
ATOM      2  N   UNL     1      33.730 -20.429 -20.955  0.00  0.00    -0.230 NA
ATOM      3  C   UNL     1      35.276 -21.462 -19.411  0.00  0.00    +0.002 C 
ATOM      4  C   UNL     1      36.335 -20.787 -20.007  0.00  0.00    +0.000 C 
ATOM      5  C   UNL     1      34.004 -21.251 -19.917  0.00  0.00    +0.096 C 
ATOM      6  C   UNL     1      34.784 -19.791 -21.510  0.00  0.00    +0.129 C 
ATOM      7  C   UNL     1      36.093 -19.934 -21.078  0.00  0.00    +0.034 C 
ATOM      8  H   UNL     1      33.632 -18.799 -22.926  0.00  0.00    +0.149 HD
ENDROOT
BRANCH   3   9
ATOM      9  C   UNL     1      35.508 -22.402 -18.237  0.00  0.00    +0.056 C 
BRANCH   9  13
ATOM     10 CL   UNL     1      35.663 -24.432 -12.657  0.00  0.00    -0.081 Cl
ATOM     11  N   UNL     1      32.140 -23.209 -17.061  0.00  0.00    -0.297 N 
ATOM     12  N   UNL     1      32.312 -24.020 -14.799  0.00  0.00    -0.228 NA
ATOM     13  C   UNL     1      34.278 -22.801 -17.521  0.00  0.00    -0.000 C 
ATOM     14  C   UNL     1      34.196 -23.298 -16.194  0.00  0.00    +0.030 C 
ATOM     15  C   UNL     1      32.850 -23.541 -15.937  0.00  0.00    +0.132 C 
ATOM     16  C   UNL     1      32.998 -22.757 -18.030  0.00  0.00    +0.059 C 
ATOM     17  C   UNL     1      35.110 -23.574 -15.164  0.00  0.00    +0.015 C 
ATOM     18  C   UNL     1      34.606 -24.070 -13.963  0.00  0.00    +0.077 C 
ATOM     19  C   UNL     1      33.238 -24.268 -13.844  0.00  0.00    +0.112 C 
ATOM     20  H   UNL     1      31.164 -23.282 -17.158  0.00  0.00    +0.154 HD
ENDBRANCH   9  13
ENDBRANCH   3   9
BRANCH   1  21
ATOM     21  C   UNL     1      35.604 -18.200 -23.249  0.00  0.00    +0.117 C 
BRANCH  21  23
ATOM     22  N   UNL     1      34.202 -16.162 -26.111  0.00  0.00    -0.240 NA
ATOM     23  C   UNL     1      35.050 -17.037 -24.023  0.00  0.00    +0.017 C 
ATOM     24  C   UNL     1      34.867 -15.796 -23.421  0.00  0.00    +0.000 C 
ATOM     25  C   UNL     1      34.704 -17.166 -25.358  0.00  0.00    +0.096 C 
ATOM     26  C   UNL     1      34.353 -14.739 -24.163  0.00  0.00    +0.023 C 
ATOM     27  C   UNL     1      34.038 -14.971 -25.492  0.00  0.00    +0.153 C 
BRANCH  27  31
ATOM     28  F   UNL     1      34.154 -13.661 -27.490  0.00  0.00    -0.164 F 
ATOM     29  F   UNL     1      32.179 -14.043 -26.679  0.00  0.00    -0.164 F 
ATOM     30  F   UNL     1      33.518 -12.657 -25.670  0.00  0.00    -0.164 F 
ATOM     31  C   UNL     1      33.484 -13.859 -26.317  0.00  0.00    +0.435 C 
ENDBRANCH  27  31
ENDBRANCH  21  23
ENDBRANCH   1  21
TORSDOF 5
ENDMDL
MODEL 7
REMARK VINA RESULT:     -12.5      7.035     10.679
REMARK  Name = 25151352
REMARK  5 active torsions:
REMARK  status: ('A' for Active; 'I' for Inactive)
REMARK    1  A    between atoms: N_1  and  C_21
REMARK    2  A    between atoms: C_3  and  C_9
REMARK    3  A    between atoms: C_9  and  C_13
REMARK    4  A    between atoms: C_21  and  C_23
REMARK    5  A    between atoms: C_27  and  C_31
REMARK                            x       y       z     vdW  Elec       q    Type
REMARK                         _______ _______ _______ _____ _____    ______ ____
ROOT
ATOM      1  N   UNL     1      32.548 -13.132 -23.442  0.00  0.00    -0.314 N 
ATOM      2  N   UNL     1      31.987 -11.422 -21.880  0.00  0.00    -0.230 NA
ATOM      3  C   UNL     1      32.879  -9.196 -22.183  0.00  0.00    +0.002 C 
ATOM      4  C   UNL     1      33.547  -9.612 -23.330  0.00  0.00    +0.000 C 
ATOM      5  C   UNL     1      32.118 -10.131 -21.500  0.00  0.00    +0.096 C 
ATOM      6  C   UNL     1      32.651 -11.790 -22.998  0.00  0.00    +0.129 C 
ATOM      7  C   UNL     1      33.437 -10.932 -23.751  0.00  0.00    +0.034 C 
ATOM      8  H   UNL     1      31.996 -13.760 -22.923  0.00  0.00    +0.149 HD
ENDROOT
BRANCH   3   9
ATOM      9  C   UNL     1      32.979  -7.758 -21.697  0.00  0.00    +0.056 C 
BRANCH   9  13
ATOM     10 CL   UNL     1      35.605  -5.511 -26.527  0.00  0.00    -0.081 Cl
ATOM     11  N   UNL     1      30.768  -5.383 -23.384  0.00  0.00    -0.297 N 
ATOM     12  N   UNL     1      31.921  -4.533 -25.321  0.00  0.00    -0.228 NA
ATOM     13  C   UNL     1      32.300  -6.772 -22.563  0.00  0.00    -0.000 C 
ATOM     14  C   UNL     1      32.828  -6.170 -23.735  0.00  0.00    +0.030 C 
ATOM     15  C   UNL     1      31.848  -5.310 -24.223  0.00  0.00    +0.132 C 
ATOM     16  C   UNL     1      31.031  -6.268 -22.371  0.00  0.00    +0.059 C 
ATOM     17  C   UNL     1      34.033  -6.250 -24.452  0.00  0.00    +0.015 C 
ATOM     18  C   UNL     1      34.162  -5.467 -25.597  0.00  0.00    +0.077 C 
ATOM     19  C   UNL     1      33.103  -4.650 -25.971  0.00  0.00    +0.112 C 
ATOM     20  H   UNL     1      29.930  -4.878 -23.492  0.00  0.00    +0.154 HD
ENDBRANCH   9  13
ENDBRANCH   3   9
BRANCH   1  21
ATOM     21  C   UNL     1      33.213 -13.609 -24.610  0.00  0.00    +0.117 C 
BRANCH  21  23
ATOM     22  N   UNL     1      34.810 -16.544 -22.835  0.00  0.00    -0.240 NA
ATOM     23  C   UNL     1      33.789 -14.976 -24.366  0.00  0.00    +0.017 C 
ATOM     24  C   UNL     1      33.848 -15.922 -25.385  0.00  0.00    +0.000 C 
ATOM     25  C   UNL     1      34.279 -15.335 -23.121  0.00  0.00    +0.096 C 
ATOM     26  C   UNL     1      34.388 -17.178 -25.129  0.00  0.00    +0.023 C 
ATOM     27  C   UNL     1      34.850 -17.437 -23.849  0.00  0.00    +0.153 C 
BRANCH  27  31
ATOM     28  F   UNL     1      36.792 -18.757 -23.391  0.00  0.00    -0.164 F 
ATOM     29  F   UNL     1      34.956 -19.328 -22.386  0.00  0.00    -0.164 F 
ATOM     30  F   UNL     1      35.186 -19.695 -24.517  0.00  0.00    -0.164 F 
ATOM     31  C   UNL     1      35.435 -18.775 -23.540  0.00  0.00    +0.435 C 
ENDBRANCH  27  31
ENDBRANCH  21  23
ENDBRANCH   1  21
TORSDOF 5
ENDMDL
MODEL 8
REMARK VINA RESULT:     -12.4      6.085     10.968
REMARK  Name = 25151352
REMARK  5 active torsions:
REMARK  status: ('A' for Active; 'I' for Inactive)
REMARK    1  A    between atoms: N_1  and  C_21
REMARK    2  A    between atoms: C_3  and  C_9
REMARK    3  A    between atoms: C_9  and  C_13
REMARK    4  A    between atoms: C_21  and  C_23
REMARK    5  A    between atoms: C_27  and  C_31
REMARK                            x       y       z     vdW  Elec       q    Type
REMARK                         _______ _______ _______ _____ _____    ______ ____
ROOT
ATOM      1  N   UNL     1      34.027 -18.920 -21.516  0.00  0.00    -0.314 N 
ATOM      2  N   UNL     1      32.919 -20.523 -20.144  0.00  0.00    -0.230 NA
ATOM      3  C   UNL     1      34.188 -22.338 -19.174  0.00  0.00    +0.002 C 
ATOM      4  C   UNL     1      35.347 -21.857 -19.775  0.00  0.00    +0.000 C 
ATOM      5  C   UNL     1      33.010 -21.640 -19.388  0.00  0.00    +0.096 C 
ATOM      6  C   UNL     1      34.065 -20.088 -20.713  0.00  0.00    +0.129 C 
ATOM      7  C   UNL     1      35.293 -20.712 -20.560  0.00  0.00    +0.034 C 
ATOM      8  H   UNL     1      33.166 -18.460 -21.639  0.00  0.00    +0.149 HD
ENDROOT
BRANCH   3   9
ATOM      9  C   UNL     1      34.215 -23.588 -18.307  0.00  0.00    +0.056 C 
BRANCH   9  13
ATOM     10 CL   UNL     1      28.702 -23.838 -16.113  0.00  0.00    -0.081 Cl
ATOM     11  N   UNL     1      34.220 -22.890 -14.717  0.00  0.00    -0.297 N 
ATOM     12  N   UNL     1      31.947 -23.016 -13.928  0.00  0.00    -0.228 NA
ATOM     13  C   UNL     1      33.936 -23.345 -16.876  0.00  0.00    -0.000 C 
ATOM     14  C   UNL     1      32.666 -23.377 -16.245  0.00  0.00    +0.030 C 
ATOM     15  C   UNL     1      32.877 -23.091 -14.899  0.00  0.00    +0.132 C 
ATOM     16  C   UNL     1      34.874 -23.042 -15.912  0.00  0.00    +0.059 C 
ATOM     17  C   UNL     1      31.344 -23.619 -16.655  0.00  0.00    +0.015 C 
ATOM     18  C   UNL     1      30.342 -23.555 -15.688  0.00  0.00    +0.077 C 
ATOM     19  C   UNL     1      30.694 -23.256 -14.379  0.00  0.00    +0.112 C 
ATOM     20  H   UNL     1      34.650 -22.672 -13.860  0.00  0.00    +0.154 HD
ENDBRANCH   9  13
ENDBRANCH   3   9
BRANCH   1  21
ATOM     21  C   UNL     1      35.186 -18.387 -22.154  0.00  0.00    +0.117 C 
BRANCH  21  23
ATOM     22  N   UNL     1      34.245 -14.970 -23.479  0.00  0.00    -0.240 NA
ATOM     23  C   UNL     1      34.803 -17.294 -23.112  0.00  0.00    +0.017 C 
ATOM     24  C   UNL     1      34.652 -17.552 -24.471  0.00  0.00    +0.000 C 
ATOM     25  C   UNL     1      34.591 -15.998 -22.671  0.00  0.00    +0.096 C 
ATOM     26  C   UNL     1      34.297 -16.520 -25.333  0.00  0.00    +0.023 C 
ATOM     27  C   UNL     1      34.108 -15.259 -24.792  0.00  0.00    +0.153 C 
BRANCH  27  31
ATOM     28  F   UNL     1      34.309 -12.941 -25.349  0.00  0.00    -0.164 F 
ATOM     29  F   UNL     1      34.064 -14.330 -26.997  0.00  0.00    -0.164 F 
ATOM     30  F   UNL     1      32.383 -13.890 -25.691  0.00  0.00    -0.164 F 
ATOM     31  C   UNL     1      33.727 -14.128 -25.689  0.00  0.00    +0.435 C 
ENDBRANCH  27  31
ENDBRANCH  21  23
ENDBRANCH   1  21
TORSDOF 5
ENDMDL
MODEL 9
REMARK VINA RESULT:     -11.9      6.101     11.284
REMARK  Name = 25151352
REMARK  5 active torsions:
REMARK  status: ('A' for Active; 'I' for Inactive)
REMARK    1  A    between atoms: N_1  and  C_21
REMARK    2  A    between atoms: C_3  and  C_9
REMARK    3  A    between atoms: C_9  and  C_13
REMARK    4  A    between atoms: C_21  and  C_23
REMARK    5  A    between atoms: C_27  and  C_31
REMARK                            x       y       z     vdW  Elec       q    Type
REMARK                         _______ _______ _______ _____ _____    ______ ____
ROOT
ATOM      1  N   UNL     1      34.449 -21.064 -20.283  0.00  0.00    -0.314 N 
ATOM      2  N   UNL     1      33.117 -22.386 -18.814  0.00  0.00    -0.230 NA
ATOM      3  C   UNL     1      34.116 -23.320 -16.820  0.00  0.00    +0.002 C 
ATOM      4  C   UNL     1      35.335 -22.739 -17.151  0.00  0.00    +0.000 C 
ATOM      5  C   UNL     1      33.046 -23.115 -17.677  0.00  0.00    +0.096 C 
ATOM      6  C   UNL     1      34.319 -21.839 -19.103  0.00  0.00    +0.129 C 
ATOM      7  C   UNL     1      35.448 -21.984 -18.312  0.00  0.00    +0.034 C 
ATOM      8  H   UNL     1      33.661 -20.948 -20.860  0.00  0.00    +0.149 HD
ENDROOT
BRANCH   3   9
ATOM      9  C   UNL     1      33.961 -24.151 -15.555  0.00  0.00    +0.056 C 
BRANCH   9  13
ATOM     10 CL   UNL     1      36.977 -22.728 -10.641  0.00  0.00    -0.081 Cl
ATOM     11  N   UNL     1      36.862 -26.339 -15.140  0.00  0.00    -0.297 N 
ATOM     12  N   UNL     1      38.012 -25.682 -13.128  0.00  0.00    -0.228 NA
ATOM     13  C   UNL     1      35.180 -24.883 -15.153  0.00  0.00    -0.000 C 
ATOM     14  C   UNL     1      35.977 -24.631 -14.006  0.00  0.00    +0.030 C 
ATOM     15  C   UNL     1      37.017 -25.556 -14.027  0.00  0.00    +0.132 C 
ATOM     16  C   UNL     1      35.749 -25.939 -15.832  0.00  0.00    +0.059 C 
ATOM     17  C   UNL     1      35.944 -23.721 -12.937  0.00  0.00    +0.015 C 
ATOM     18  C   UNL     1      36.951 -23.807 -11.977  0.00  0.00    +0.077 C 
ATOM     19  C   UNL     1      37.930 -24.780 -12.123  0.00  0.00    +0.112 C 
ATOM     20  H   UNL     1      37.458 -27.076 -15.403  0.00  0.00    +0.154 HD
ENDBRANCH   9  13
ENDBRANCH   3   9
BRANCH   1  21
ATOM     21  C   UNL     1      35.677 -20.449 -20.667  0.00  0.00    +0.117 C 
BRANCH  21  23
ATOM     22  N   UNL     1      35.368 -17.008 -22.211  0.00  0.00    -0.240 NA
ATOM     23  C   UNL     1      35.428 -19.366 -21.681  0.00  0.00    +0.017 C 
ATOM     24  C   UNL     1      35.043 -19.676 -22.981  0.00  0.00    +0.000 C 
ATOM     25  C   UNL     1      35.576 -18.029 -21.350  0.00  0.00    +0.096 C 
ATOM     26  C   UNL     1      34.819 -18.652 -23.896  0.00  0.00    +0.023 C 
ATOM     27  C   UNL     1      34.995 -17.347 -23.465  0.00  0.00    +0.153 C 
BRANCH  27  31
ATOM     28  F   UNL     1      35.298 -16.442 -25.659  0.00  0.00    -0.164 F 
ATOM     29  F   UNL     1      33.444 -15.959 -24.644  0.00  0.00    -0.164 F 
ATOM     30  F   UNL     1      35.307 -15.049 -23.990  0.00  0.00    -0.164 F 
ATOM     31  C   UNL     1      34.765 -16.225 -24.421  0.00  0.00    +0.435 C 
ENDBRANCH  27  31
ENDBRANCH  21  23
ENDBRANCH   1  21
TORSDOF 5
ENDMDL
