MODEL 1
REMARK VINA RESULT:     -13.4      0.000      0.000
REMARK  Name = 11507920
REMARK  4 active torsions:
REMARK  status: ('A' for Active; 'I' for Inactive)
REMARK    1  A    between atoms: C_1  and  C_8
REMARK    2  A    between atoms: C_2  and  C_17
REMARK    3  A    between atoms: C_17  and  N_18
REMARK    4  A    between atoms: N_18  and  C_21
REMARK                            x       y       z     vdW  Elec       q    Type
REMARK                         _______ _______ _______ _____ _____    ______ ____
ROOT
ATOM      1  C   UNL     1      34.920 -19.144 -22.226  0.00  0.00    -0.000 C 
ATOM      2  C   UNL     1      34.941 -16.860 -23.014  0.00  0.00    -0.003 C 
ATOM      3  C   UNL     1      34.918 -17.775 -21.961  0.00  0.00    -0.003 C 
ATOM      4  C   UNL     1      34.945 -19.600 -23.543  0.00  0.00    -0.000 C 
ATOM      5  C   UNL     1      34.966 -17.316 -24.332  0.00  0.00    -0.003 C 
ATOM      6  C   UNL     1      34.967 -18.686 -24.597  0.00  0.00    -0.000 C 
ENDROOT
BRANCH   1   8
ATOM      7  N   UNL     1      32.647 -22.067 -18.916  0.00  0.00    -0.312 N 
ATOM      8  C   UNL     1      34.894 -20.093 -21.133  0.00  0.00    +0.001 C 
ATOM      9  C   UNL     1      33.685 -21.461 -19.587  0.00  0.00    +0.048 C 
ATOM     10  C   UNL     1      34.872 -21.927 -19.017  0.00  0.00    +0.015 C 
ATOM     11  C   UNL     1      33.665 -20.544 -20.645  0.00  0.00    +0.015 C 
ATOM     12  C   UNL     1      36.095 -20.541 -20.583  0.00  0.00    +0.000 C 
ATOM     13  C   UNL     1      36.099 -21.457 -19.525  0.00  0.00    +0.001 C 
ATOM     14  C   UNL     1      34.508 -22.834 -17.983  0.00  0.00    +0.017 C 
ATOM     15  C   UNL     1      33.135 -22.898 -17.945  0.00  0.00    +0.062 C 
ATOM     16  H   UNL     1      31.692 -21.924 -19.108  0.00  0.00    +0.152 HD
ENDBRANCH   1   8
BRANCH   2  17
ATOM     17  C   UNL     1      34.939 -15.396 -22.732  0.00  0.00    +0.114 C 
BRANCH  17  18
ATOM     18  N   UNL     1      33.818 -14.725 -23.338  0.00  0.00    -0.327 N 
ATOM     19  H   UNL     1      33.466 -15.081 -24.185  0.00  0.00    +0.147 HD
BRANCH  18  21
ATOM     20  N   UNL     1      32.658 -11.233 -22.912  0.00  0.00    -0.228 NA
ATOM     21  C   UNL     1      33.205 -13.603 -22.796  0.00  0.00    +0.077 C 
ATOM     22  C   UNL     1      33.242 -12.347 -23.406  0.00  0.00    +0.139 C 
ATOM     23  C   UNL     1      32.505 -13.689 -21.586  0.00  0.00    +0.019 C 
ATOM     24  C   UNL     1      31.891 -12.565 -21.045  0.00  0.00    +0.022 C 
ATOM     25  C   UNL     1      31.996 -11.371 -21.741  0.00  0.00    +0.100 C 
ATOM     26  N   UNL     1      33.946 -12.234 -24.632  0.00  0.00    -0.342 N 
ATOM     27  H   UNL     1      33.995 -11.365 -25.092  0.00  0.00    +0.144 HD
ATOM     28  H   UNL     1      34.385 -13.023 -25.023  0.00  0.00    +0.144 HD
ENDBRANCH  18  21
ENDBRANCH  17  18
ENDBRANCH   2  17
TORSDOF 4
ENDMDL
MODEL 2
REMARK VINA RESULT:     -12.9      1.522      8.362
REMARK  Name = 11507920
REMARK  4 active torsions:
REMARK  status: ('A' for Active; 'I' for Inactive)
REMARK    1  A    between atoms: C_1  and  C_8
REMARK    2  A    between atoms: C_2  and  C_17
REMARK    3  A    between atoms: C_17  and  N_18
REMARK    4  A    between atoms: N_18  and  C_21
REMARK                            x       y       z     vdW  Elec       q    Type
REMARK                         _______ _______ _______ _____ _____    ______ ____
ROOT
ATOM      1  C   UNL     1      33.880 -15.213 -23.387  0.00  0.00    -0.000 C 
ATOM      2  C   UNL     1      35.041 -17.331 -23.384  0.00  0.00    -0.003 C 
ATOM      3  C   UNL     1      34.445 -16.279 -22.688  0.00  0.00    -0.003 C 
ATOM      4  C   UNL     1      33.912 -15.196 -24.780  0.00  0.00    -0.000 C 
ATOM      5  C   UNL     1      35.074 -17.314 -24.778  0.00  0.00    -0.003 C 
ATOM      6  C   UNL     1      34.510 -16.246 -25.477  0.00  0.00    -0.000 C 
ENDROOT
BRANCH   1   8
ATOM      7  N   UNL     1      32.280 -10.537 -22.893  0.00  0.00    -0.312 N 
ATOM      8  C   UNL     1      33.262 -14.120 -22.664  0.00  0.00    +0.001 C 
ATOM      9  C   UNL     1      32.534 -11.845 -22.548  0.00  0.00    +0.048 C 
ATOM     10  C   UNL     1      32.063 -12.025 -21.246  0.00  0.00    +0.015 C 
ATOM     11  C   UNL     1      33.137 -12.873 -23.281  0.00  0.00    +0.015 C 
ATOM     12  C   UNL     1      32.802 -14.329 -21.365  0.00  0.00    +0.000 C 
ATOM     13  C   UNL     1      32.201 -13.291 -20.643  0.00  0.00    +0.001 C 
ATOM     14  C   UNL     1      31.519 -10.780 -20.823  0.00  0.00    +0.017 C 
ATOM     15  C   UNL     1      31.668  -9.886 -21.858  0.00  0.00    +0.062 C 
ATOM     16  H   UNL     1      32.507 -10.129 -23.761  0.00  0.00    +0.152 HD
ENDBRANCH   1   8
BRANCH   2  17
ATOM     17  C   UNL     1      35.646 -18.472 -22.638  0.00  0.00    +0.114 C 
BRANCH  17  18
ATOM     18  N   UNL     1      34.659 -19.248 -21.933  0.00  0.00    -0.327 N 
ATOM     19  H   UNL     1      33.712 -19.126 -22.175  0.00  0.00    +0.147 HD
BRANCH  18  21
ATOM     20  N   UNL     1      34.248 -21.775 -19.256  0.00  0.00    -0.228 NA
ATOM     21  C   UNL     1      34.965 -20.159 -20.930  0.00  0.00    +0.077 C 
ATOM     22  C   UNL     1      33.991 -20.880 -20.235  0.00  0.00    +0.139 C 
ATOM     23  C   UNL     1      36.297 -20.399 -20.569  0.00  0.00    +0.019 C 
ATOM     24  C   UNL     1      36.601 -21.312 -19.566  0.00  0.00    +0.022 C 
ATOM     25  C   UNL     1      35.550 -21.968 -18.945  0.00  0.00    +0.100 C 
ATOM     26  N   UNL     1      32.635 -20.654 -20.582  0.00  0.00    -0.342 N 
ATOM     27  H   UNL     1      31.920 -21.143 -20.115  0.00  0.00    +0.144 HD
ATOM     28  H   UNL     1      32.408 -20.009 -21.290  0.00  0.00    +0.144 HD
ENDBRANCH  18  21
ENDBRANCH  17  18
ENDBRANCH   2  17
TORSDOF 4
ENDMDL
MODEL 3
REMARK VINA RESULT:     -12.7      2.330      9.003
REMARK  Name = 11507920
REMARK  4 active torsions:
REMARK  status: ('A' for Active; 'I' for Inactive)
REMARK    1  A    between atoms: C_1  and  C_8
REMARK    2  A    between atoms: C_2  and  C_17
REMARK    3  A    between atoms: C_17  and  N_18
REMARK    4  A    between atoms: N_18  and  C_21
REMARK                            x       y       z     vdW  Elec       q    Type
REMARK                         _______ _______ _______ _____ _____    ______ ____
ROOT
ATOM      1  C   UNL     1      35.272 -20.171 -20.815  0.00  0.00    -0.000 C 
ATOM      2  C   UNL     1      34.289 -21.738 -19.263  0.00  0.00    -0.003 C 
ATOM      3  C   UNL     1      34.146 -20.794 -20.280  0.00  0.00    -0.003 C 
ATOM      4  C   UNL     1      36.542 -20.489 -20.335  0.00  0.00    -0.000 C 
ATOM      5  C   UNL     1      35.559 -22.058 -18.782  0.00  0.00    -0.003 C 
ATOM      6  C   UNL     1      36.685 -21.433 -19.317  0.00  0.00    -0.000 C 
ENDROOT
BRANCH   1   8
ATOM      7  N   UNL     1      34.953 -15.539 -22.579  0.00  0.00    -0.312 N 
ATOM      8  C   UNL     1      35.123 -19.189 -21.870  0.00  0.00    +0.001 C 
ATOM      9  C   UNL     1      34.983 -16.915 -22.596  0.00  0.00    +0.048 C 
ATOM     10  C   UNL     1      34.833 -17.312 -23.927  0.00  0.00    +0.015 C 
ATOM     11  C   UNL     1      35.129 -17.830 -21.548  0.00  0.00    +0.015 C 
ATOM     12  C   UNL     1      34.975 -19.615 -23.189  0.00  0.00    +0.000 C 
ATOM     13  C   UNL     1      34.829 -18.689 -24.228  0.00  0.00    +0.001 C 
ATOM     14  C   UNL     1      34.713 -16.127 -24.705  0.00  0.00    +0.017 C 
ATOM     15  C   UNL     1      34.790 -15.054 -23.848  0.00  0.00    +0.062 C 
ATOM     16  H   UNL     1      35.037 -14.984 -21.770  0.00  0.00    +0.152 HD
ENDBRANCH   1   8
BRANCH   2  17
ATOM     17  C   UNL     1      33.085 -22.406 -18.689  0.00  0.00    +0.114 C 
BRANCH  17  18
ATOM     18  N   UNL     1      33.381 -23.109 -17.467  0.00  0.00    -0.327 N 
ATOM     19  H   UNL     1      34.252 -23.560 -17.390  0.00  0.00    +0.147 HD
BRANCH  18  21
ATOM     20  N   UNL     1      32.120 -23.337 -13.991  0.00  0.00    -0.228 NA
ATOM     21  C   UNL     1      32.507 -23.188 -16.391  0.00  0.00    +0.077 C 
ATOM     22  C   UNL     1      32.939 -23.260 -15.065  0.00  0.00    +0.139 C 
ATOM     23  C   UNL     1      31.121 -23.197 -16.599  0.00  0.00    +0.019 C 
ATOM     24  C   UNL     1      30.248 -23.275 -15.520  0.00  0.00    +0.022 C 
ATOM     25  C   UNL     1      30.793 -23.342 -14.247  0.00  0.00    +0.100 C 
ATOM     26  N   UNL     1      34.336 -23.255 -14.829  0.00  0.00    -0.342 N 
ATOM     27  H   UNL     1      34.680 -23.304 -13.907  0.00  0.00    +0.144 HD
ATOM     28  H   UNL     1      34.964 -23.200 -15.585  0.00  0.00    +0.144 HD
ENDBRANCH  18  21
ENDBRANCH  17  18
ENDBRANCH   2  17
TORSDOF 4
ENDMDL
MODEL 4
REMARK VINA RESULT:     -12.7      1.728      8.324
REMARK  Name = 11507920
REMARK  4 active torsions:
REMARK  status: ('A' for Active; 'I' for Inactive)
REMARK    1  A    between atoms: C_1  and  C_8
REMARK    2  A    between atoms: C_2  and  C_17
REMARK    3  A    between atoms: C_17  and  N_18
REMARK    4  A    between atoms: N_18  and  C_21
REMARK                            x       y       z     vdW  Elec       q    Type
REMARK                         _______ _______ _______ _____ _____    ______ ____
ROOT
ATOM      1  C   UNL     1      34.339 -15.525 -23.524  0.00  0.00    -0.000 C 
ATOM      2  C   UNL     1      35.427 -17.468 -22.590  0.00  0.00    -0.003 C 
ATOM      3  C   UNL     1      34.905 -16.184 -22.434  0.00  0.00    -0.003 C 
ATOM      4  C   UNL     1      34.294 -16.146 -24.771  0.00  0.00    -0.000 C 
ATOM      5  C   UNL     1      35.383 -18.091 -23.838  0.00  0.00    -0.003 C 
ATOM      6  C   UNL     1      34.817 -17.430 -24.928  0.00  0.00    -0.000 C 
ENDROOT
BRANCH   1   8
ATOM      7  N   UNL     1      31.341 -12.156 -21.442  0.00  0.00    -0.312 N 
ATOM      8  C   UNL     1      33.798 -14.191 -23.361  0.00  0.00    +0.001 C 
ATOM      9  C   UNL     1      32.306 -12.664 -22.282  0.00  0.00    +0.048 C 
ATOM     10  C   UNL     1      32.768 -11.604 -23.066  0.00  0.00    +0.015 C 
ATOM     11  C   UNL     1      32.802 -13.966 -22.407  0.00  0.00    +0.015 C 
ATOM     12  C   UNL     1      34.277 -13.153 -24.158  0.00  0.00    +0.000 C 
ATOM     13  C   UNL     1      33.772 -11.854 -24.022  0.00  0.00    +0.001 C 
ATOM     14  C   UNL     1      32.046 -10.445 -22.666  0.00  0.00    +0.017 C 
ATOM     15  C   UNL     1      31.177 -10.816 -21.667  0.00  0.00    +0.062 C 
ATOM     16  H   UNL     1      30.841 -12.681 -20.775  0.00  0.00    +0.152 HD
ENDBRANCH   1   8
BRANCH   2  17
ATOM     17  C   UNL     1      36.033 -18.175 -21.426  0.00  0.00    +0.114 C 
BRANCH  17  18
ATOM     18  N   UNL     1      35.907 -19.607 -21.529  0.00  0.00    -0.327 N 
ATOM     19  H   UNL     1      36.454 -20.074 -22.201  0.00  0.00    +0.147 HD
BRANCH  18  21
ATOM     20  N   UNL     1      34.724 -22.082 -19.040  0.00  0.00    -0.228 NA
ATOM     21  C   UNL     1      35.057 -20.366 -20.735  0.00  0.00    +0.077 C 
ATOM     22  C   UNL     1      35.518 -21.325 -19.830  0.00  0.00    +0.139 C 
ATOM     23  C   UNL     1      33.669 -20.192 -20.810  0.00  0.00    +0.019 C 
ATOM     24  C   UNL     1      32.821 -20.953 -20.014  0.00  0.00    +0.022 C 
ATOM     25  C   UNL     1      33.392 -21.876 -19.152  0.00  0.00    +0.100 C 
ATOM     26  N   UNL     1      36.919 -21.519 -19.737  0.00  0.00    -0.342 N 
ATOM     27  H   UNL     1      37.282 -22.187 -19.110  0.00  0.00    +0.144 HD
ATOM     28  H   UNL     1      37.529 -20.987 -20.296  0.00  0.00    +0.144 HD
ENDBRANCH  18  21
ENDBRANCH  17  18
ENDBRANCH   2  17
TORSDOF 4
ENDMDL
MODEL 5
REMARK VINA RESULT:     -12.5      1.330      2.089
REMARK  Name = 11507920
REMARK  4 active torsions:
REMARK  status: ('A' for Active; 'I' for Inactive)
REMARK    1  A    between atoms: C_1  and  C_8
REMARK    2  A    between atoms: C_2  and  C_17
REMARK    3  A    between atoms: C_17  and  N_18
REMARK    4  A    between atoms: N_18  and  C_21
REMARK                            x       y       z     vdW  Elec       q    Type
REMARK                         _______ _______ _______ _____ _____    ______ ____
ROOT
ATOM      1  C   UNL     1      35.165 -17.767 -22.892  0.00  0.00    -0.000 C 
ATOM      2  C   UNL     1      34.776 -15.452 -23.462  0.00  0.00    -0.003 C 
ATOM      3  C   UNL     1      35.088 -16.427 -22.514  0.00  0.00    -0.003 C 
ATOM      4  C   UNL     1      34.928 -18.134 -24.216  0.00  0.00    -0.000 C 
ATOM      5  C   UNL     1      34.538 -15.818 -24.787  0.00  0.00    -0.003 C 
ATOM      6  C   UNL     1      34.613 -17.160 -25.164  0.00  0.00    -0.000 C 
ENDROOT
BRANCH   1   8
ATOM      7  N   UNL     1      34.057 -21.503 -19.813  0.00  0.00    -0.312 N 
ATOM      8  C   UNL     1      35.488 -18.779 -21.908  0.00  0.00    +0.001 C 
ATOM      9  C   UNL     1      34.830 -20.568 -20.464  0.00  0.00    +0.048 C 
ATOM     10  C   UNL     1      36.139 -20.728 -20.006  0.00  0.00    +0.015 C 
ATOM     11  C   UNL     1      34.475 -19.604 -21.413  0.00  0.00    +0.015 C 
ATOM     12  C   UNL     1      36.804 -18.915 -21.469  0.00  0.00    +0.000 C 
ATOM     13  C   UNL     1      37.145 -19.884 -20.519  0.00  0.00    +0.001 C 
ATOM     14  C   UNL     1      36.124 -21.790 -19.059  0.00  0.00    +0.017 C 
ATOM     15  C   UNL     1      34.830 -22.245 -18.963  0.00  0.00    +0.062 C 
ATOM     16  H   UNL     1      33.087 -21.620 -19.942  0.00  0.00    +0.152 HD
ENDBRANCH   1   8
BRANCH   2  17
ATOM     17  C   UNL     1      34.693 -14.018 -23.059  0.00  0.00    +0.114 C 
BRANCH  17  18
ATOM     18  N   UNL     1      33.568 -13.346 -23.657  0.00  0.00    -0.327 N 
ATOM     19  H   UNL     1      33.158 -13.749 -24.456  0.00  0.00    +0.147 HD
BRANCH  18  21
ATOM     20  N   UNL     1      31.613 -10.988 -21.575  0.00  0.00    -0.228 NA
ATOM     21  C   UNL     1      33.028 -12.163 -23.170  0.00  0.00    +0.077 C 
ATOM     22  C   UNL     1      32.158 -12.118 -22.079  0.00  0.00    +0.139 C 
ATOM     23  C   UNL     1      33.345 -10.938 -23.769  0.00  0.00    +0.019 C 
ATOM     24  C   UNL     1      32.803  -9.754 -23.280  0.00  0.00    +0.022 C 
ATOM     25  C   UNL     1      31.951  -9.832 -22.190  0.00  0.00    +0.100 C 
ATOM     26  N   UNL     1      31.821 -13.346 -21.456  0.00  0.00    -0.342 N 
ATOM     27  H   UNL     1      31.211 -13.355 -20.684  0.00  0.00    +0.144 HD
ATOM     28  H   UNL     1      32.198 -14.190 -21.795  0.00  0.00    +0.144 HD
ENDBRANCH  18  21
ENDBRANCH  17  18
ENDBRANCH   2  17
TORSDOF 4
ENDMDL
MODEL 6
REMARK VINA RESULT:     -12.5      2.231      8.896
REMARK  Name = 11507920
REMARK  4 active torsions:
REMARK  status: ('A' for Active; 'I' for Inactive)
REMARK    1  A    between atoms: C_1  and  C_8
REMARK    2  A    between atoms: C_2  and  C_17
REMARK    3  A    between atoms: C_17  and  N_18
REMARK    4  A    between atoms: N_18  and  C_21
REMARK                            x       y       z     vdW  Elec       q    Type
REMARK                         _______ _______ _______ _____ _____    ______ ____
ROOT
ATOM      1  C   UNL     1      35.388 -20.069 -20.940  0.00  0.00    -0.000 C 
ATOM      2  C   UNL     1      34.572 -21.930 -19.633  0.00  0.00    -0.003 C 
ATOM      3  C   UNL     1      34.365 -20.959 -20.614  0.00  0.00    -0.003 C 
ATOM      4  C   UNL     1      36.617 -20.148 -20.287  0.00  0.00    -0.000 C 
ATOM      5  C   UNL     1      35.802 -22.009 -18.979  0.00  0.00    -0.003 C 
ATOM      6  C   UNL     1      36.825 -21.117 -19.306  0.00  0.00    -0.000 C 
ENDROOT
BRANCH   1   8
ATOM      7  N   UNL     1      34.906 -15.395 -22.548  0.00  0.00    -0.312 N 
ATOM      8  C   UNL     1      35.172 -19.061 -21.957  0.00  0.00    +0.001 C 
ATOM      9  C   UNL     1      34.959 -16.769 -22.608  0.00  0.00    +0.048 C 
ATOM     10  C   UNL     1      34.752 -17.130 -23.941  0.00  0.00    +0.015 C 
ATOM     11  C   UNL     1      35.171 -17.711 -21.595  0.00  0.00    +0.015 C 
ATOM     12  C   UNL     1      34.968 -19.451 -23.279  0.00  0.00    +0.000 C 
ATOM     13  C   UNL     1      34.757 -18.498 -24.282  0.00  0.00    +0.001 C 
ATOM     14  C   UNL     1      34.575 -15.925 -24.677  0.00  0.00    +0.017 C 
ATOM     15  C   UNL     1      34.675 -14.877 -23.793  0.00  0.00    +0.062 C 
ATOM     16  H   UNL     1      35.019 -14.862 -21.727  0.00  0.00    +0.152 HD
ENDBRANCH   1   8
BRANCH   2  17
ATOM     17  C   UNL     1      33.480 -22.883 -19.283  0.00  0.00    +0.114 C 
BRANCH  17  18
ATOM     18  N   UNL     1      32.613 -22.366 -18.254  0.00  0.00    -0.327 N 
ATOM     19  H   UNL     1      32.096 -21.552 -18.449  0.00  0.00    +0.147 HD
BRANCH  18  21
ATOM     20  N   UNL     1      31.039 -23.709 -15.182  0.00  0.00    -0.228 NA
ATOM     21  C   UNL     1      32.466 -22.950 -17.003  0.00  0.00    +0.077 C 
ATOM     22  C   UNL     1      31.223 -23.143 -16.396  0.00  0.00    +0.139 C 
ATOM     23  C   UNL     1      33.587 -23.382 -16.284  0.00  0.00    +0.019 C 
ATOM     24  C   UNL     1      33.438 -23.968 -15.032  0.00  0.00    +0.022 C 
ATOM     25  C   UNL     1      32.154 -24.108 -14.529  0.00  0.00    +0.100 C 
ATOM     26  N   UNL     1      30.073 -22.713 -17.105  0.00  0.00    -0.342 N 
ATOM     27  H   UNL     1      29.179 -22.832 -16.710  0.00  0.00    +0.144 HD
ATOM     28  H   UNL     1      30.167 -22.297 -17.991  0.00  0.00    +0.144 HD
ENDBRANCH  18  21
ENDBRANCH  17  18
ENDBRANCH   2  17
TORSDOF 4
ENDMDL
MODEL 7
REMARK VINA RESULT:     -12.3      2.082      8.790
REMARK  Name = 11507920
REMARK  4 active torsions:
REMARK  status: ('A' for Active; 'I' for Inactive)
REMARK    1  A    between atoms: C_1  and  C_8
REMARK    2  A    between atoms: C_2  and  C_17
REMARK    3  A    between atoms: C_17  and  N_18
REMARK    4  A    between atoms: N_18  and  C_21
REMARK                            x       y       z     vdW  Elec       q    Type
REMARK                         _______ _______ _______ _____ _____    ______ ____
ROOT
ATOM      1  C   UNL     1      35.454 -18.630 -22.258  0.00  0.00    -0.000 C 
ATOM      2  C   UNL     1      35.053 -20.374 -20.636  0.00  0.00    -0.003 C 
ATOM      3  C   UNL     1      34.581 -19.519 -21.632  0.00  0.00    -0.003 C 
ATOM      4  C   UNL     1      36.797 -18.594 -21.889  0.00  0.00    -0.000 C 
ATOM      5  C   UNL     1      36.397 -20.338 -20.266  0.00  0.00    -0.003 C 
ATOM      6  C   UNL     1      37.270 -19.448 -20.892  0.00  0.00    -0.000 C 
ENDROOT
BRANCH   1   8
ATOM      7  N   UNL     1      34.082 -14.205 -24.048  0.00  0.00    -0.312 N 
ATOM      8  C   UNL     1      34.963 -17.742 -23.292  0.00  0.00    +0.001 C 
ATOM      9  C   UNL     1      34.330 -15.559 -24.036  0.00  0.00    +0.048 C 
ATOM     10  C   UNL     1      34.013 -16.045 -25.306  0.00  0.00    +0.015 C 
ATOM     11  C   UNL     1      34.806 -16.382 -23.010  0.00  0.00    +0.015 C 
ATOM     12  C   UNL     1      34.654 -18.256 -24.550  0.00  0.00    +0.000 C 
ATOM     13  C   UNL     1      34.178 -17.421 -25.567  0.00  0.00    +0.001 C 
ATOM     14  C   UNL     1      33.567 -14.936 -26.078  0.00  0.00    +0.017 C 
ATOM     15  C   UNL     1      33.620 -13.820 -25.277  0.00  0.00    +0.062 C 
ATOM     16  H   UNL     1      34.217 -13.601 -23.282  0.00  0.00    +0.152 HD
ENDBRANCH   1   8
BRANCH   2  17
ATOM     17  C   UNL     1      34.120 -21.325 -19.964  0.00  0.00    +0.114 C 
BRANCH  17  18
ATOM     18  N   UNL     1      34.819 -22.352 -19.235  0.00  0.00    -0.327 N 
ATOM     19  H   UNL     1      35.540 -22.839 -19.695  0.00  0.00    +0.147 HD
BRANCH  18  21
ATOM     20  N   UNL     1      35.239 -22.952 -15.604  0.00  0.00    -0.228 NA
ATOM     21  C   UNL     1      34.533 -22.696 -17.920  0.00  0.00    +0.077 C 
ATOM     22  C   UNL     1      35.478 -22.628 -16.895  0.00  0.00    +0.139 C 
ATOM     23  C   UNL     1      33.251 -23.133 -17.562  0.00  0.00    +0.019 C 
ATOM     24  C   UNL     1      32.967 -23.476 -16.245  0.00  0.00    +0.022 C 
ATOM     25  C   UNL     1      33.986 -23.369 -15.312  0.00  0.00    +0.100 C 
ATOM     26  N   UNL     1      36.783 -22.189 -17.233  0.00  0.00    -0.342 N 
ATOM     27  H   UNL     1      37.477 -22.128 -16.537  0.00  0.00    +0.144 HD
ATOM     28  H   UNL     1      36.996 -21.945 -18.162  0.00  0.00    +0.144 HD
ENDBRANCH  18  21
ENDBRANCH  17  18
ENDBRANCH   2  17
TORSDOF 4
ENDMDL
MODEL 8
REMARK VINA RESULT:     -12.3      4.692     11.149
REMARK  Name = 11507920
REMARK  4 active torsions:
REMARK  status: ('A' for Active; 'I' for Inactive)
REMARK    1  A    between atoms: C_1  and  C_8
REMARK    2  A    between atoms: C_2  and  C_17
REMARK    3  A    between atoms: C_17  and  N_18
REMARK    4  A    between atoms: N_18  and  C_21
REMARK                            x       y       z     vdW  Elec       q    Type
REMARK                         _______ _______ _______ _____ _____    ______ ____
ROOT
ATOM      1  C   UNL     1      32.341  -9.546 -22.150  0.00  0.00    -0.000 C 
ATOM      2  C   UNL     1      32.202 -11.955 -22.038  0.00  0.00    -0.003 C 
ATOM      3  C   UNL     1      32.428 -10.790 -22.773  0.00  0.00    -0.003 C 
ATOM      4  C   UNL     1      32.028  -9.464 -20.793  0.00  0.00    -0.000 C 
ATOM      5  C   UNL     1      31.889 -11.873 -20.681  0.00  0.00    -0.003 C 
ATOM      6  C   UNL     1      31.801 -10.627 -20.059  0.00  0.00    -0.000 C 
ENDROOT
BRANCH   1   8
ATOM      7  N   UNL     1      30.939  -5.291 -24.293  0.00  0.00    -0.312 N 
ATOM      8  C   UNL     1      32.574  -8.337 -22.913  0.00  0.00    +0.001 C 
ATOM      9  C   UNL     1      31.776  -6.311 -23.902  0.00  0.00    +0.048 C 
ATOM     10  C   UNL     1      33.049  -6.007 -24.391  0.00  0.00    +0.015 C 
ATOM     11  C   UNL     1      31.509  -7.467 -23.161  0.00  0.00    +0.015 C 
ATOM     12  C   UNL     1      33.854  -8.061 -23.388  0.00  0.00    +0.000 C 
ATOM     13  C   UNL     1      34.108  -6.900 -24.129  0.00  0.00    +0.001 C 
ATOM     14  C   UNL     1      32.944  -4.770 -25.087  0.00  0.00    +0.017 C 
ATOM     15  C   UNL     1      31.636  -4.356 -25.009  0.00  0.00    +0.062 C 
ATOM     16  H   UNL     1      29.977  -5.241 -24.086  0.00  0.00    +0.152 HD
ENDBRANCH   1   8
BRANCH   2  17
ATOM     17  C   UNL     1      32.295 -13.287 -22.702  0.00  0.00    +0.114 C 
BRANCH  17  18
ATOM     18  N   UNL     1      33.314 -13.320 -23.720  0.00  0.00    -0.327 N 
ATOM     19  H   UNL     1      33.649 -12.464 -24.070  0.00  0.00    +0.147 HD
BRANCH  18  21
ATOM     20  N   UNL     1      34.056 -16.097 -26.057  0.00  0.00    -0.228 NA
ATOM     21  C   UNL     1      33.850 -14.492 -24.237  0.00  0.00    +0.077 C 
ATOM     22  C   UNL     1      33.554 -14.963 -25.518  0.00  0.00    +0.139 C 
ATOM     23  C   UNL     1      34.734 -15.267 -23.475  0.00  0.00    +0.019 C 
ATOM     24  C   UNL     1      35.270 -16.440 -23.994  0.00  0.00    +0.022 C 
ATOM     25  C   UNL     1      34.903 -16.808 -25.279  0.00  0.00    +0.100 C 
ATOM     26  N   UNL     1      32.660 -14.197 -26.308  0.00  0.00    -0.342 N 
ATOM     27  H   UNL     1      32.427 -14.497 -27.217  0.00  0.00    +0.144 HD
ATOM     28  H   UNL     1      32.274 -13.366 -25.950  0.00  0.00    +0.144 HD
ENDBRANCH  18  21
ENDBRANCH  17  18
ENDBRANCH   2  17
TORSDOF 4
ENDMDL
MODEL 9
REMARK VINA RESULT:     -12.2      3.462      9.914
REMARK  Name = 11507920
REMARK  4 active torsions:
REMARK  status: ('A' for Active; 'I' for Inactive)
REMARK    1  A    between atoms: C_1  and  C_8
REMARK    2  A    between atoms: C_2  and  C_17
REMARK    3  A    between atoms: C_17  and  N_18
REMARK    4  A    between atoms: N_18  and  C_21
REMARK                            x       y       z     vdW  Elec       q    Type
REMARK                         _______ _______ _______ _____ _____    ______ ____
ROOT
ATOM      1  C   UNL     1      32.356 -11.638 -21.830  0.00  0.00    -0.000 C 
ATOM      2  C   UNL     1      33.065 -13.644 -22.974  0.00  0.00    -0.003 C 
ATOM      3  C   UNL     1      32.859 -12.264 -22.970  0.00  0.00    -0.003 C 
ATOM      4  C   UNL     1      32.058 -12.389 -20.694  0.00  0.00    -0.000 C 
ATOM      5  C   UNL     1      32.767 -14.396 -21.838  0.00  0.00    -0.003 C 
ATOM      6  C   UNL     1      32.262 -13.769 -20.698  0.00  0.00    -0.000 C 
ENDROOT
BRANCH   1   8
ATOM      7  N   UNL     1      32.105  -7.175 -19.665  0.00  0.00    -0.312 N 
ATOM      8  C   UNL     1      32.141 -10.205 -21.827  0.00  0.00    +0.001 C 
ATOM      9  C   UNL     1      32.051  -8.114 -20.670  0.00  0.00    +0.048 C 
ATOM     10  C   UNL     1      31.720  -7.437 -21.847  0.00  0.00    +0.015 C 
ATOM     11  C   UNL     1      32.267  -9.496 -20.630  0.00  0.00    +0.015 C 
ATOM     12  C   UNL     1      31.812  -9.557 -23.016  0.00  0.00    +0.000 C 
ATOM     13  C   UNL     1      31.598  -8.174 -23.042  0.00  0.00    +0.001 C 
ATOM     14  C   UNL     1      31.579  -6.062 -21.511  0.00  0.00    +0.017 C 
ATOM     15  C   UNL     1      31.822  -5.933 -20.163  0.00  0.00    +0.062 C 
ATOM     16  H   UNL     1      32.318  -7.369 -18.723  0.00  0.00    +0.152 HD
ENDBRANCH   1   8
BRANCH   2  17
ATOM     17  C   UNL     1      33.602 -14.315 -24.192  0.00  0.00    +0.114 C 
BRANCH  17  18
ATOM     18  N   UNL     1      34.779 -15.098 -23.911  0.00  0.00    -0.327 N 
ATOM     19  H   UNL     1      35.618 -14.621 -23.716  0.00  0.00    +0.147 HD
BRANCH  18  21
ATOM     20  N   UNL     1      35.088 -18.584 -22.698  0.00  0.00    -0.228 NA
ATOM     21  C   UNL     1      34.798 -16.486 -23.900  0.00  0.00    +0.077 C 
ATOM     22  C   UNL     1      35.062 -17.233 -22.750  0.00  0.00    +0.139 C 
ATOM     23  C   UNL     1      34.544 -17.210 -25.071  0.00  0.00    +0.019 C 
ATOM     24  C   UNL     1      34.563 -18.601 -25.058  0.00  0.00    +0.022 C 
ATOM     25  C   UNL     1      34.837 -19.234 -23.857  0.00  0.00    +0.100 C 
ATOM     26  N   UNL     1      35.323 -16.523 -21.551  0.00  0.00    -0.342 N 
ATOM     27  H   UNL     1      35.514 -17.014 -20.720  0.00  0.00    +0.144 HD
ATOM     28  H   UNL     1      35.313 -15.538 -21.550  0.00  0.00    +0.144 HD
ENDBRANCH  18  21
ENDBRANCH  17  18
ENDBRANCH   2  17
TORSDOF 4
ENDMDL
