MODEL 1
REMARK VINA RESULT:     -14.1      0.000      0.000
REMARK  Name = 448889
REMARK  5 active torsions:
REMARK  status: ('A' for Active; 'I' for Inactive)
REMARK    1  A    between atoms: C_1  and  N_2
REMARK    2  A    between atoms: C_1  and  C_16
REMARK    3  A    between atoms: C_6  and  C_10
REMARK    4  A    between atoms: C_16  and  C_17
REMARK    5  A    between atoms: C_17  and  C_21
REMARK                            x       y       z     vdW  Elec       q    Type
REMARK                         _______ _______ _______ _____ _____    ______ ____
ROOT
ATOM      1  C   UNL     1      34.838 -16.058 -25.106  0.00  0.00    -0.076 C 
ENDROOT
BRANCH   1   2
ATOM      2  N   UNL     1      34.557 -17.001 -24.026  0.00  0.00    +0.390 N 
ATOM      3  C   UNL     1      35.395 -16.728 -22.855  0.00  0.00    -0.072 C 
ATOM      4  C   UNL     1      34.962 -17.623 -21.684  0.00  0.00    +0.003 C 
ATOM      5  C   UNL     1      34.741 -18.387 -24.484  0.00  0.00    -0.051 C 
ATOM      6  C   UNL     1      34.803 -19.075 -22.076  0.00  0.00    -0.031 C 
ATOM      7  C   UNL     1      34.705 -19.407 -23.378  0.00  0.00    -0.053 C 
ATOM      8  H   UNL     1      33.583 -16.880 -23.751  0.00  0.00    -0.079 HD
BRANCH   6  10
ATOM      9  F   UNL     1      34.620 -22.932 -18.001  0.00  0.00    -0.204 F 
ATOM     10  C   UNL     1      34.754 -20.093 -21.001  0.00  0.00    -0.004 C 
ATOM     11  C   UNL     1      33.524 -20.537 -20.511  0.00  0.00    +0.002 C 
ATOM     12  C   UNL     1      35.939 -20.613 -20.474  0.00  0.00    +0.002 C 
ATOM     13  C   UNL     1      33.478 -21.496 -19.498  0.00  0.00    +0.030 C 
ATOM     14  C   UNL     1      35.893 -21.572 -19.462  0.00  0.00    +0.030 C 
ATOM     15  C   UNL     1      34.663 -22.013 -18.974  0.00  0.00    +0.140 C 
ENDBRANCH   6  10
ENDBRANCH   1   2
BRANCH   1  16
ATOM     16  C   UNL     1      33.584 -15.246 -25.439  0.00  0.00    -0.014 C 
BRANCH  16  17
ATOM     17  C   UNL     1      33.801 -13.749 -25.282  0.00  0.00    +0.074 C 
BRANCH  17  21
ATOM     18  O   UNL     1      32.307 -14.564 -20.903  0.00  0.00    -0.209 OA
ATOM     19  N   UNL     1      33.058 -11.921 -23.823  0.00  0.00    -0.290 N 
ATOM     20  N   UNL     1      33.036 -14.173 -23.040  0.00  0.00    -0.322 NA
ATOM     21  C   UNL     1      33.264 -13.275 -23.954  0.00  0.00    +0.173 C 
ATOM     22  C   UNL     1      32.563 -11.425 -22.615  0.00  0.00    +0.058 C 
ATOM     23  C   UNL     1      32.291 -12.323 -21.574  0.00  0.00    +0.108 C 
ATOM     24  C   UNL     1      32.335 -10.060 -22.419  0.00  0.00    -0.008 C 
ATOM     25  C   UNL     1      32.545 -13.773 -21.809  0.00  0.00    +0.207 C 
ATOM     26  C   UNL     1      31.796 -11.866 -20.349  0.00  0.00    +0.014 C 
ATOM     27  C   UNL     1      31.840  -9.601 -21.197  0.00  0.00    -0.003 C 
ATOM     28  C   UNL     1      31.571 -10.502 -20.166  0.00  0.00    +0.001 C 
ATOM     29  C   UNL     1      32.609  -9.061 -23.496  0.00  0.00    +0.032 C 
ATOM     30  H   UNL     1      33.257 -11.312 -24.569  0.00  0.00    +0.154 HD
ENDBRANCH  17  21
ENDBRANCH  16  17
ENDBRANCH   1  16
TORSDOF 5
ENDMDL
MODEL 2
REMARK VINA RESULT:     -13.2      2.615      4.908
REMARK  Name = 448889
REMARK  5 active torsions:
REMARK  status: ('A' for Active; 'I' for Inactive)
REMARK    1  A    between atoms: C_1  and  N_2
REMARK    2  A    between atoms: C_1  and  C_16
REMARK    3  A    between atoms: C_6  and  C_10
REMARK    4  A    between atoms: C_16  and  C_17
REMARK    5  A    between atoms: C_17  and  C_21
REMARK                            x       y       z     vdW  Elec       q    Type
REMARK                         _______ _______ _______ _____ _____    ______ ____
ROOT
ATOM      1  C   UNL     1      35.795 -19.738 -21.821  0.00  0.00    -0.076 C 
ENDROOT
BRANCH   1   2
ATOM      2  N   UNL     1      35.297 -20.286 -20.562  0.00  0.00    +0.390 N 
ATOM      3  C   UNL     1      36.087 -21.448 -20.142  0.00  0.00    -0.072 C 
ATOM      4  C   UNL     1      35.650 -21.897 -18.739  0.00  0.00    +0.003 C 
ATOM      5  C   UNL     1      33.873 -20.639 -20.673  0.00  0.00    -0.051 C 
ATOM      6  C   UNL     1      34.149 -22.014 -18.598  0.00  0.00    -0.031 C 
ATOM      7  C   UNL     1      33.344 -21.426 -19.505  0.00  0.00    -0.053 C 
ATOM      8  H   UNL     1      35.395 -19.565 -19.847  0.00  0.00    -0.079 HD
BRANCH   6  10
ATOM      9  F   UNL     1      32.103 -24.898 -14.236  0.00  0.00    -0.204 F 
ATOM     10  C   UNL     1      33.608 -22.775 -17.447  0.00  0.00    -0.004 C 
ATOM     11  C   UNL     1      32.231 -22.966 -17.316  0.00  0.00    +0.002 C 
ATOM     12  C   UNL     1      34.475 -23.306 -16.489  0.00  0.00    +0.002 C 
ATOM     13  C   UNL     1      31.722 -23.683 -16.233  0.00  0.00    +0.030 C 
ATOM     14  C   UNL     1      33.966 -24.023 -15.406  0.00  0.00    +0.030 C 
ATOM     15  C   UNL     1      32.590 -24.211 -15.277  0.00  0.00    +0.140 C 
ENDBRANCH   6  10
ENDBRANCH   1   2
BRANCH   1  16
ATOM     16  C   UNL     1      34.628 -19.452 -22.771  0.00  0.00    -0.014 C 
BRANCH  16  17
ATOM     17  C   UNL     1      35.092 -18.948 -24.128  0.00  0.00    +0.074 C 
BRANCH  17  21
ATOM     18  O   UNL     1      33.670 -15.434 -26.904  0.00  0.00    -0.209 OA
ATOM     19  N   UNL     1      34.585 -16.725 -23.220  0.00  0.00    -0.290 N 
ATOM     20  N   UNL     1      34.364 -17.152 -25.555  0.00  0.00    -0.322 NA
ATOM     21  C   UNL     1      34.649 -17.521 -24.340  0.00  0.00    +0.173 C 
ATOM     22  C   UNL     1      34.181 -15.396 -23.355  0.00  0.00    +0.058 C 
ATOM     23  C   UNL     1      33.853 -14.913 -24.630  0.00  0.00    +0.108 C 
ATOM     24  C   UNL     1      34.093 -14.537 -22.256  0.00  0.00    -0.008 C 
ATOM     25  C   UNL     1      33.953 -15.851 -25.785  0.00  0.00    +0.207 C 
ATOM     26  C   UNL     1      33.442 -13.589 -24.808  0.00  0.00    +0.014 C 
ATOM     27  C   UNL     1      33.684 -13.214 -22.430  0.00  0.00    -0.003 C 
ATOM     28  C   UNL     1      33.361 -12.742 -23.703  0.00  0.00    +0.001 C 
ATOM     29  C   UNL     1      34.431 -15.001 -20.876  0.00  0.00    +0.032 C 
ATOM     30  H   UNL     1      34.820 -17.088 -22.336  0.00  0.00    +0.154 HD
ENDBRANCH  17  21
ENDBRANCH  16  17
ENDBRANCH   1  16
TORSDOF 5
ENDMDL
MODEL 3
REMARK VINA RESULT:     -13.1      1.400      2.159
REMARK  Name = 448889
REMARK  5 active torsions:
REMARK  status: ('A' for Active; 'I' for Inactive)
REMARK    1  A    between atoms: C_1  and  N_2
REMARK    2  A    between atoms: C_1  and  C_16
REMARK    3  A    between atoms: C_6  and  C_10
REMARK    4  A    between atoms: C_16  and  C_17
REMARK    5  A    between atoms: C_17  and  C_21
REMARK                            x       y       z     vdW  Elec       q    Type
REMARK                         _______ _______ _______ _____ _____    ______ ____
ROOT
ATOM      1  C   UNL     1      35.085 -15.068 -24.526  0.00  0.00    -0.076 C 
ENDROOT
BRANCH   1   2
ATOM      2  N   UNL     1      35.309 -16.246 -23.691  0.00  0.00    +0.390 N 
ATOM      3  C   UNL     1      34.605 -17.415 -24.227  0.00  0.00    -0.072 C 
ATOM      4  C   UNL     1      34.992 -18.668 -23.427  0.00  0.00    +0.003 C 
ATOM      5  C   UNL     1      34.899 -15.985 -22.302  0.00  0.00    -0.051 C 
ATOM      6  C   UNL     1      34.916 -18.462 -21.931  0.00  0.00    -0.031 C 
ATOM      7  C   UNL     1      34.872 -17.212 -21.431  0.00  0.00    -0.053 C 
ATOM      8  H   UNL     1      36.308 -16.449 -23.698  0.00  0.00    -0.079 HD
BRANCH   6  10
ATOM      9  F   UNL     1      34.857 -22.991 -18.613  0.00  0.00    -0.204 F 
ATOM     10  C   UNL     1      34.900 -19.658 -21.056  0.00  0.00    -0.004 C 
ATOM     11  C   UNL     1      33.685 -20.218 -20.657  0.00  0.00    +0.002 C 
ATOM     12  C   UNL     1      36.101 -20.228 -20.627  0.00  0.00    +0.002 C 
ATOM     13  C   UNL     1      33.670 -21.344 -19.833  0.00  0.00    +0.030 C 
ATOM     14  C   UNL     1      36.086 -21.354 -19.803  0.00  0.00    +0.030 C 
ATOM     15  C   UNL     1      34.871 -21.911 -19.405  0.00  0.00    +0.140 C 
ENDBRANCH   6  10
ENDBRANCH   1   2
BRANCH   1  16
ATOM     16  C   UNL     1      34.383 -13.973 -23.719  0.00  0.00    -0.014 C 
BRANCH  16  17
ATOM     17  C   UNL     1      34.078 -12.739 -24.553  0.00  0.00    +0.074 C 
BRANCH  17  21
ATOM     18  O   UNL     1      30.932 -11.319 -21.365  0.00  0.00    -0.209 OA
ATOM     19  N   UNL     1      33.969 -10.401 -23.816  0.00  0.00    -0.290 N 
ATOM     20  N   UNL     1      32.464 -12.018 -22.920  0.00  0.00    -0.322 NA
ATOM     21  C   UNL     1      33.447 -11.668 -23.698  0.00  0.00    +0.173 C 
ATOM     22  C   UNL     1      33.425  -9.369 -23.049  0.00  0.00    +0.058 C 
ATOM     23  C   UNL     1      32.363  -9.657 -22.181  0.00  0.00    +0.108 C 
ATOM     24  C   UNL     1      33.912  -8.061 -23.123  0.00  0.00    -0.008 C 
ATOM     25  C   UNL     1      31.863 -11.061 -22.121  0.00  0.00    +0.207 C 
ATOM     26  C   UNL     1      31.791  -8.653 -21.395  0.00  0.00    +0.014 C 
ATOM     27  C   UNL     1      33.343  -7.055 -22.340  0.00  0.00    -0.003 C 
ATOM     28  C   UNL     1      32.285  -7.351 -21.479  0.00  0.00    +0.001 C 
ATOM     29  C   UNL     1      35.043  -7.700 -24.031  0.00  0.00    +0.032 C 
ATOM     30  H   UNL     1      34.715 -10.224 -24.433  0.00  0.00    +0.154 HD
ENDBRANCH  17  21
ENDBRANCH  16  17
ENDBRANCH   1  16
TORSDOF 5
ENDMDL
MODEL 4
REMARK VINA RESULT:     -13.0      4.439      7.315
REMARK  Name = 448889
REMARK  5 active torsions:
REMARK  status: ('A' for Active; 'I' for Inactive)
REMARK    1  A    between atoms: C_1  and  N_2
REMARK    2  A    between atoms: C_1  and  C_16
REMARK    3  A    between atoms: C_6  and  C_10
REMARK    4  A    between atoms: C_16  and  C_17
REMARK    5  A    between atoms: C_17  and  C_21
REMARK                            x       y       z     vdW  Elec       q    Type
REMARK                         _______ _______ _______ _____ _____    ______ ____
ROOT
ATOM      1  C   UNL     1      31.170 -10.111 -20.514  0.00  0.00    -0.076 C 
ENDROOT
BRANCH   1   2
ATOM      2  N   UNL     1      31.511 -11.255 -21.356  0.00  0.00    +0.390 N 
ATOM      3  C   UNL     1      32.184 -12.301 -20.579  0.00  0.00    -0.072 C 
ATOM      4  C   UNL     1      32.378 -13.553 -21.449  0.00  0.00    +0.003 C 
ATOM      5  C   UNL     1      32.345 -10.835 -22.493  0.00  0.00    -0.051 C 
ATOM      6  C   UNL     1      32.960 -13.243 -22.810  0.00  0.00    -0.031 C 
ATOM      7  C   UNL     1      32.937 -11.978 -23.273  0.00  0.00    -0.053 C 
ATOM      8  H   UNL     1      30.642 -11.644 -21.722  0.00  0.00    -0.079 HD
BRANCH   6  10
ATOM      9  F   UNL     1      35.146 -17.461 -25.801  0.00  0.00    -0.204 F 
ATOM     10  C   UNL     1      33.537 -14.357 -23.599  0.00  0.00    -0.004 C 
ATOM     11  C   UNL     1      34.463 -15.224 -23.015  0.00  0.00    +0.002 C 
ATOM     12  C   UNL     1      33.155 -14.543 -24.929  0.00  0.00    +0.002 C 
ATOM     13  C   UNL     1      35.006 -16.272 -23.758  0.00  0.00    +0.030 C 
ATOM     14  C   UNL     1      33.698 -15.592 -25.672  0.00  0.00    +0.030 C 
ATOM     15  C   UNL     1      34.624 -16.456 -25.087  0.00  0.00    +0.140 C 
ENDBRANCH   6  10
ENDBRANCH   1   2
BRANCH   1  16
ATOM     16  C   UNL     1      32.414  -9.258 -20.251  0.00  0.00    -0.014 C 
BRANCH  16  17
ATOM     17  C   UNL     1      32.075  -7.803 -19.972  0.00  0.00    +0.074 C 
BRANCH  17  21
ATOM     18  O   UNL     1      30.579  -4.377 -22.817  0.00  0.00    -0.209 OA
ATOM     19  N   UNL     1      33.222  -7.301 -22.082  0.00  0.00    -0.290 N 
ATOM     20  N   UNL     1      31.304  -6.047 -21.425  0.00  0.00    -0.322 NA
ATOM     21  C   UNL     1      32.187  -6.984 -21.233  0.00  0.00    +0.173 C 
ATOM     22  C   UNL     1      33.375  -6.576 -23.266  0.00  0.00    +0.058 C 
ATOM     23  C   UNL     1      32.468  -5.547 -23.552  0.00  0.00    +0.108 C 
ATOM     24  C   UNL     1      34.407  -6.850 -24.168  0.00  0.00    -0.008 C 
ATOM     25  C   UNL     1      31.378  -5.275 -22.571  0.00  0.00    +0.207 C 
ATOM     26  C   UNL     1      32.588  -4.796 -24.725  0.00  0.00    +0.014 C 
ATOM     27  C   UNL     1      34.529  -6.102 -25.341  0.00  0.00    -0.003 C 
ATOM     28  C   UNL     1      33.621  -5.080 -25.618  0.00  0.00    +0.001 C 
ATOM     29  C   UNL     1      35.401  -7.936 -23.911  0.00  0.00    +0.032 C 
ATOM     30  H   UNL     1      33.845  -8.029 -21.858  0.00  0.00    +0.154 HD
ENDBRANCH  17  21
ENDBRANCH  16  17
ENDBRANCH   1  16
TORSDOF 5
ENDMDL
MODEL 5
REMARK VINA RESULT:     -13.0      3.273      6.177
REMARK  Name = 448889
REMARK  5 active torsions:
REMARK  status: ('A' for Active; 'I' for Inactive)
REMARK    1  A    between atoms: C_1  and  N_2
REMARK    2  A    between atoms: C_1  and  C_16
REMARK    3  A    between atoms: C_6  and  C_10
REMARK    4  A    between atoms: C_16  and  C_17
REMARK    5  A    between atoms: C_17  and  C_21
REMARK                            x       y       z     vdW  Elec       q    Type
REMARK                         _______ _______ _______ _____ _____    ______ ____
ROOT
ATOM      1  C   UNL     1      31.013 -10.805 -21.808  0.00  0.00    -0.076 C 
ENDROOT
BRANCH   1   2
ATOM      2  N   UNL     1      31.608 -12.121 -22.030  0.00  0.00    +0.390 N 
ATOM      3  C   UNL     1      32.109 -12.692 -20.776  0.00  0.00    -0.072 C 
ATOM      4  C   UNL     1      32.575 -14.137 -21.011  0.00  0.00    +0.003 C 
ATOM      5  C   UNL     1      32.683 -12.044 -23.032  0.00  0.00    -0.051 C 
ATOM      6  C   UNL     1      33.468 -14.281 -22.223  0.00  0.00    -0.031 C 
ATOM      7  C   UNL     1      33.505 -13.300 -23.145  0.00  0.00    -0.053 C 
ATOM      8  H   UNL     1      30.879 -12.738 -22.388  0.00  0.00    -0.079 HD
BRANCH   6  10
ATOM      9  F   UNL     1      36.534 -18.956 -22.740  0.00  0.00    -0.204 F 
ATOM     10  C   UNL     1      34.277 -15.516 -22.358  0.00  0.00    -0.004 C 
ATOM     11  C   UNL     1      34.702 -16.204 -21.221  0.00  0.00    +0.002 C 
ATOM     12  C   UNL     1      34.616 -15.994 -23.626  0.00  0.00    +0.002 C 
ATOM     13  C   UNL     1      35.463 -17.366 -21.348  0.00  0.00    +0.030 C 
ATOM     14  C   UNL     1      35.377 -17.156 -23.754  0.00  0.00    +0.030 C 
ATOM     15  C   UNL     1      35.802 -17.842 -22.616  0.00  0.00    +0.140 C 
ENDBRANCH   6  10
ENDBRANCH   1   2
BRANCH   1  16
ATOM     16  C   UNL     1      32.001  -9.894 -21.076  0.00  0.00    -0.014 C 
BRANCH  16  17
ATOM     17  C   UNL     1      31.703  -8.419 -21.292  0.00  0.00    +0.074 C 
BRANCH  17  21
ATOM     18  O   UNL     1      35.647  -8.453 -23.845  0.00  0.00    -0.209 OA
ATOM     19  N   UNL     1      32.094  -6.767 -23.065  0.00  0.00    -0.290 N 
ATOM     20  N   UNL     1      33.726  -8.441 -22.596  0.00  0.00    -0.322 NA
ATOM     21  C   UNL     1      32.582  -7.858 -22.383  0.00  0.00    +0.173 C 
ATOM     22  C   UNL     1      32.864  -6.206 -24.085  0.00  0.00    +0.058 C 
ATOM     23  C   UNL     1      34.111  -6.772 -24.384  0.00  0.00    +0.108 C 
ATOM     24  C   UNL     1      32.423  -5.099 -24.816  0.00  0.00    -0.008 C 
ATOM     25  C   UNL     1      34.556  -7.954 -23.591  0.00  0.00    +0.207 C 
ATOM     26  C   UNL     1      34.911  -6.241 -25.399  0.00  0.00    +0.014 C 
ATOM     27  C   UNL     1      33.220  -4.566 -25.830  0.00  0.00    -0.003 C 
ATOM     28  C   UNL     1      34.461  -5.135 -26.120  0.00  0.00    +0.001 C 
ATOM     29  C   UNL     1      31.102  -4.457 -24.538  0.00  0.00    +0.032 C 
ATOM     30  H   UNL     1      31.216  -6.388 -22.836  0.00  0.00    +0.154 HD
ENDBRANCH  17  21
ENDBRANCH  16  17
ENDBRANCH   1  16
TORSDOF 5
ENDMDL
MODEL 6
REMARK VINA RESULT:     -13.0      2.814      5.201
REMARK  Name = 448889
REMARK  5 active torsions:
REMARK  status: ('A' for Active; 'I' for Inactive)
REMARK    1  A    between atoms: C_1  and  N_2
REMARK    2  A    between atoms: C_1  and  C_16
REMARK    3  A    between atoms: C_6  and  C_10
REMARK    4  A    between atoms: C_16  and  C_17
REMARK    5  A    between atoms: C_17  and  C_21
REMARK                            x       y       z     vdW  Elec       q    Type
REMARK                         _______ _______ _______ _____ _____    ______ ____
ROOT
ATOM      1  C   UNL     1      34.654 -19.983 -21.695  0.00  0.00    -0.076 C 
ENDROOT
BRANCH   1   2
ATOM      2  N   UNL     1      34.947 -20.446 -20.341  0.00  0.00    +0.390 N 
ATOM      3  C   UNL     1      36.272 -21.069 -20.270  0.00  0.00    -0.072 C 
ATOM      4  C   UNL     1      36.619 -21.392 -18.809  0.00  0.00    +0.003 C 
ATOM      5  C   UNL     1      33.909 -21.378 -19.873  0.00  0.00    -0.051 C 
ATOM      6  C   UNL     1      35.500 -22.101 -18.078  0.00  0.00    -0.031 C 
ATOM      7  C   UNL     1      34.254 -22.084 -18.589  0.00  0.00    -0.053 C 
ATOM      8  H   UNL     1      34.948 -19.632 -19.725  0.00  0.00    -0.079 HD
BRANCH   6  10
ATOM      9  F   UNL     1      36.698 -24.722 -13.260  0.00  0.00    -0.204 F 
ATOM     10  C   UNL     1      35.817 -22.792 -16.806  0.00  0.00    -0.004 C 
ATOM     11  C   UNL     1      37.122 -22.782 -16.309  0.00  0.00    +0.002 C 
ATOM     12  C   UNL     1      34.811 -23.456 -16.101  0.00  0.00    +0.002 C 
ATOM     13  C   UNL     1      37.420 -23.433 -15.111  0.00  0.00    +0.030 C 
ATOM     14  C   UNL     1      35.109 -24.106 -14.903  0.00  0.00    +0.030 C 
ATOM     15  C   UNL     1      36.413 -24.096 -14.409  0.00  0.00    +0.140 C 
ENDBRANCH   6  10
ENDBRANCH   1   2
BRANCH   1  16
ATOM     16  C   UNL     1      35.772 -19.064 -22.193  0.00  0.00    -0.014 C 
BRANCH  16  17
ATOM     17  C   UNL     1      35.703 -18.822 -23.693  0.00  0.00    +0.074 C 
BRANCH  17  21
ATOM     18  O   UNL     1      33.788 -15.732 -26.669  0.00  0.00    -0.209 OA
ATOM     19  N   UNL     1      34.779 -16.690 -22.904  0.00  0.00    -0.290 N 
ATOM     20  N   UNL     1      34.724 -17.244 -25.222  0.00  0.00    -0.322 NA
ATOM     21  C   UNL     1      35.024 -17.507 -23.983  0.00  0.00    +0.173 C 
ATOM     22  C   UNL     1      34.153 -15.460 -23.113  0.00  0.00    +0.058 C 
ATOM     23  C   UNL     1      33.792 -15.096 -24.417  0.00  0.00    +0.108 C 
ATOM     24  C   UNL     1      33.875 -14.587 -22.057  0.00  0.00    -0.008 C 
ATOM     25  C   UNL     1      34.098 -16.047 -25.525  0.00  0.00    +0.207 C 
ATOM     26  C   UNL     1      33.162 -13.874 -24.669  0.00  0.00    +0.014 C 
ATOM     27  C   UNL     1      33.246 -13.365 -22.305  0.00  0.00    -0.003 C 
ATOM     28  C   UNL     1      32.892 -13.010 -23.607  0.00  0.00    +0.001 C 
ATOM     29  C   UNL     1      34.237 -14.926 -20.648  0.00  0.00    +0.032 C 
ATOM     30  H   UNL     1      35.042 -16.969 -21.998  0.00  0.00    +0.154 HD
ENDBRANCH  17  21
ENDBRANCH  16  17
ENDBRANCH   1  16
TORSDOF 5
ENDMDL
MODEL 7
REMARK VINA RESULT:     -12.9      3.868      9.606
REMARK  Name = 448889
REMARK  5 active torsions:
REMARK  status: ('A' for Active; 'I' for Inactive)
REMARK    1  A    between atoms: C_1  and  N_2
REMARK    2  A    between atoms: C_1  and  C_16
REMARK    3  A    between atoms: C_6  and  C_10
REMARK    4  A    between atoms: C_16  and  C_17
REMARK    5  A    between atoms: C_17  and  C_21
REMARK                            x       y       z     vdW  Elec       q    Type
REMARK                         _______ _______ _______ _____ _____    ______ ____
ROOT
ATOM      1  C   UNL     1      36.250 -18.481 -22.969  0.00  0.00    -0.076 C 
ENDROOT
BRANCH   1   2
ATOM      2  N   UNL     1      35.754 -17.115 -22.817  0.00  0.00    +0.390 N 
ATOM      3  C   UNL     1      35.010 -16.960 -21.563  0.00  0.00    -0.072 C 
ATOM      4  C   UNL     1      34.648 -15.482 -21.352  0.00  0.00    +0.003 C 
ATOM      5  C   UNL     1      34.920 -16.732 -23.967  0.00  0.00    -0.051 C 
ATOM      6  C   UNL     1      34.043 -14.840 -22.580  0.00  0.00    -0.031 C 
ATOM      7  C   UNL     1      34.178 -15.436 -23.780  0.00  0.00    -0.053 C 
ATOM      8  H   UNL     1      36.561 -16.491 -22.783  0.00  0.00    -0.079 HD
BRANCH   6  10
ATOM      9  F   UNL     1      31.297  -9.980 -21.974  0.00  0.00    -0.204 F 
ATOM     10  C   UNL     1      33.318 -13.557 -22.419  0.00  0.00    -0.004 C 
ATOM     11  C   UNL     1      32.506 -13.346 -21.303  0.00  0.00    +0.002 C 
ATOM     12  C   UNL     1      33.446 -12.555 -23.384  0.00  0.00    +0.002 C 
ATOM     13  C   UNL     1      31.824 -12.138 -21.152  0.00  0.00    +0.030 C 
ATOM     14  C   UNL     1      32.764 -11.347 -23.232  0.00  0.00    +0.030 C 
ATOM     15  C   UNL     1      31.952 -11.139 -22.117  0.00  0.00    +0.140 C 
ENDBRANCH   6  10
ENDBRANCH   1   2
BRANCH   1  16
ATOM     16  C   UNL     1      35.559 -19.409 -21.968  0.00  0.00    -0.014 C 
BRANCH  16  17
ATOM     17  C   UNL     1      36.521 -19.973 -20.934  0.00  0.00    +0.074 C 
BRANCH  17  21
ATOM     18  O   UNL     1      32.715 -22.383 -19.601  0.00  0.00    -0.209 OA
ATOM     19  N   UNL     1      36.476 -21.228 -18.826  0.00  0.00    -0.290 N 
ATOM     20  N   UNL     1      34.569 -21.205 -20.257  0.00  0.00    -0.322 NA
ATOM     21  C   UNL     1      35.788 -20.859 -19.959  0.00  0.00    +0.173 C 
ATOM     22  C   UNL     1      35.847 -22.048 -17.888  0.00  0.00    +0.058 C 
ATOM     23  C   UNL     1      34.533 -22.471 -18.129  0.00  0.00    +0.108 C 
ATOM     24  C   UNL     1      36.494 -22.459 -16.719  0.00  0.00    -0.008 C 
ATOM     25  C   UNL     1      33.867 -22.019 -19.385  0.00  0.00    +0.207 C 
ATOM     26  C   UNL     1      33.868 -23.293 -17.215  0.00  0.00    +0.014 C 
ATOM     27  C   UNL     1      35.832 -23.281 -15.804  0.00  0.00    -0.003 C 
ATOM     28  C   UNL     1      34.524 -23.695 -16.052  0.00  0.00    +0.001 C 
ATOM     29  C   UNL     1      37.894 -22.038 -16.413  0.00  0.00    +0.032 C 
ATOM     30  H   UNL     1      37.398 -20.918 -18.680  0.00  0.00    +0.154 HD
ENDBRANCH  17  21
ENDBRANCH  16  17
ENDBRANCH   1  16
TORSDOF 5
ENDMDL
MODEL 8
REMARK VINA RESULT:     -12.8      4.709     10.729
REMARK  Name = 448889
REMARK  5 active torsions:
REMARK  status: ('A' for Active; 'I' for Inactive)
REMARK    1  A    between atoms: C_1  and  N_2
REMARK    2  A    between atoms: C_1  and  C_16
REMARK    3  A    between atoms: C_6  and  C_10
REMARK    4  A    between atoms: C_16  and  C_17
REMARK    5  A    between atoms: C_17  and  C_21
REMARK                            x       y       z     vdW  Elec       q    Type
REMARK                         _______ _______ _______ _____ _____    ______ ____
ROOT
ATOM      1  C   UNL     1      31.747 -10.557 -20.548  0.00  0.00    -0.076 C 
ENDROOT
BRANCH   1   2
ATOM      2  N   UNL     1      32.385  -9.695 -21.540  0.00  0.00    +0.390 N 
ATOM      3  C   UNL     1      32.662  -8.366 -20.986  0.00  0.00    -0.072 C 
ATOM      4  C   UNL     1      33.479  -7.542 -21.993  0.00  0.00    +0.003 C 
ATOM      5  C   UNL     1      31.554  -9.591 -22.750  0.00  0.00    -0.051 C 
ATOM      6  C   UNL     1      32.909  -7.585 -23.393  0.00  0.00    -0.031 C 
ATOM      7  C   UNL     1      32.017  -8.539 -23.722  0.00  0.00    -0.053 C 
ATOM      8  H   UNL     1      33.275 -10.120 -21.798  0.00  0.00    -0.079 HD
BRANCH   6  10
ATOM      9  F   UNL     1      34.626  -3.723 -27.090  0.00  0.00    -0.204 F 
ATOM     10  C   UNL     1      33.361  -6.565 -24.369  0.00  0.00    -0.004 C 
ATOM     11  C   UNL     1      32.491  -5.555 -24.783  0.00  0.00    +0.002 C 
ATOM     12  C   UNL     1      34.662  -6.611 -24.876  0.00  0.00    +0.002 C 
ATOM     13  C   UNL     1      32.917  -4.595 -25.701  0.00  0.00    +0.030 C 
ATOM     14  C   UNL     1      35.088  -5.651 -25.795  0.00  0.00    +0.030 C 
ATOM     15  C   UNL     1      34.216  -4.644 -26.207  0.00  0.00    +0.140 C 
ENDBRANCH   6  10
ENDBRANCH   1   2
BRANCH   1  16
ATOM     16  C   UNL     1      31.453 -11.932 -21.152  0.00  0.00    -0.014 C 
BRANCH  16  17
ATOM     17  C   UNL     1      32.491 -12.973 -20.767  0.00  0.00    +0.074 C 
BRANCH  17  21
ATOM     18  O   UNL     1      32.729 -13.568 -25.421  0.00  0.00    -0.209 OA
ATOM     19  N   UNL     1      33.691 -14.872 -21.754  0.00  0.00    -0.290 N 
ATOM     20  N   UNL     1      32.609 -13.273 -23.152  0.00  0.00    -0.322 NA
ATOM     21  C   UNL     1      32.949 -13.738 -21.984  0.00  0.00    +0.173 C 
ATOM     22  C   UNL     1      34.143 -15.620 -22.844  0.00  0.00    +0.058 C 
ATOM     23  C   UNL     1      33.824 -15.191 -24.139  0.00  0.00    +0.108 C 
ATOM     24  C   UNL     1      34.903 -16.781 -22.675  0.00  0.00    -0.008 C 
ATOM     25  C   UNL     1      33.013 -13.948 -24.290  0.00  0.00    +0.207 C 
ATOM     26  C   UNL     1      34.257 -15.910 -25.256  0.00  0.00    +0.014 C 
ATOM     27  C   UNL     1      35.337 -17.502 -23.789  0.00  0.00    -0.003 C 
ATOM     28  C   UNL     1      35.014 -17.068 -25.075  0.00  0.00    +0.001 C 
ATOM     29  C   UNL     1      35.270 -17.283 -21.317  0.00  0.00    +0.032 C 
ATOM     30  H   UNL     1      33.902 -15.153 -20.835  0.00  0.00    +0.154 HD
ENDBRANCH  17  21
ENDBRANCH  16  17
ENDBRANCH   1  16
TORSDOF 5
ENDMDL
MODEL 9
REMARK VINA RESULT:     -12.8      4.846     10.380
REMARK  Name = 448889
REMARK  5 active torsions:
REMARK  status: ('A' for Active; 'I' for Inactive)
REMARK    1  A    between atoms: C_1  and  N_2
REMARK    2  A    between atoms: C_1  and  C_16
REMARK    3  A    between atoms: C_6  and  C_10
REMARK    4  A    between atoms: C_16  and  C_17
REMARK    5  A    between atoms: C_17  and  C_21
REMARK                            x       y       z     vdW  Elec       q    Type
REMARK                         _______ _______ _______ _____ _____    ______ ____
ROOT
ATOM      1  C   UNL     1      31.524 -11.057 -20.534  0.00  0.00    -0.076 C 
ENDROOT
BRANCH   1   2
ATOM      2  N   UNL     1      31.722  -9.958 -21.476  0.00  0.00    +0.390 N 
ATOM      3  C   UNL     1      32.372 -10.425 -22.705  0.00  0.00    -0.072 C 
ATOM      4  C   UNL     1      32.414  -9.288 -23.737  0.00  0.00    +0.003 C 
ATOM      5  C   UNL     1      32.501  -8.874 -20.856  0.00  0.00    -0.051 C 
ATOM      6  C   UNL     1      32.918  -7.984 -23.160  0.00  0.00    -0.031 C 
ATOM      7  C   UNL     1      32.953  -7.814 -21.824  0.00  0.00    -0.053 C 
ATOM      8  H   UNL     1      30.804  -9.591 -21.726  0.00  0.00    -0.079 HD
BRANCH   6  10
ATOM      9  F   UNL     1      34.583  -3.966 -26.711  0.00  0.00    -0.204 F 
ATOM     10  C   UNL     1      33.357  -6.923 -24.097  0.00  0.00    -0.004 C 
ATOM     11  C   UNL     1      32.434  -6.002 -24.596  0.00  0.00    +0.002 C 
ATOM     12  C   UNL     1      34.697  -6.841 -24.484  0.00  0.00    +0.002 C 
ATOM     13  C   UNL     1      32.847  -5.003 -25.478  0.00  0.00    +0.030 C 
ATOM     14  C   UNL     1      35.110  -5.842 -25.365  0.00  0.00    +0.030 C 
ATOM     15  C   UNL     1      34.186  -4.924 -25.863  0.00  0.00    +0.140 C 
ENDBRANCH   6  10
ENDBRANCH   1   2
BRANCH   1  16
ATOM     16  C   UNL     1      31.850 -12.393 -21.205  0.00  0.00    -0.014 C 
BRANCH  16  17
ATOM     17  C   UNL     1      32.726 -13.283 -20.338  0.00  0.00    +0.074 C 
BRANCH  17  21
ATOM     18  O   UNL     1      35.356 -17.150 -20.781  0.00  0.00    -0.209 OA
ATOM     19  N   UNL     1      33.258 -14.222 -22.541  0.00  0.00    -0.290 N 
ATOM     20  N   UNL     1      34.074 -15.264 -20.558  0.00  0.00    -0.322 NA
ATOM     21  C   UNL     1      33.405 -14.336 -21.178  0.00  0.00    +0.173 C 
ATOM     22  C   UNL     1      33.864 -15.169 -23.370  0.00  0.00    +0.058 C 
ATOM     23  C   UNL     1      34.604 -16.206 -22.785  0.00  0.00    +0.108 C 
ATOM     24  C   UNL     1      33.750 -15.109 -24.761  0.00  0.00    -0.008 C 
ATOM     25  C   UNL     1      34.708 -16.247 -21.298  0.00  0.00    +0.207 C 
ATOM     26  C   UNL     1      35.225 -17.174 -23.579  0.00  0.00    +0.014 C 
ATOM     27  C   UNL     1      34.370 -16.075 -25.557  0.00  0.00    -0.003 C 
ATOM     28  C   UNL     1      35.105 -17.103 -24.967  0.00  0.00    +0.001 C 
ATOM     29  C   UNL     1      32.973 -14.025 -25.435  0.00  0.00    +0.032 C 
ATOM     30  H   UNL     1      32.733 -13.485 -22.926  0.00  0.00    +0.154 HD
ENDBRANCH  17  21
ENDBRANCH  16  17
ENDBRANCH   1  16
TORSDOF 5
ENDMDL
