MODEL 1
REMARK VINA RESULT:     -13.2      0.000      0.000
REMARK  Name = 10430360
REMARK  6 active torsions:
REMARK  status: ('A' for Active; 'I' for Inactive)
REMARK    1  A    between atoms: C_4  and  C_18
REMARK    2  A    between atoms: C_7  and  C_14
REMARK    3  A    between atoms: C_17  and  O_23
REMARK    4  A    between atoms: O_23  and  C_24
REMARK    5  A    between atoms: C_24  and  C_25
REMARK    6  A    between atoms: C_25  and  N_26
REMARK                            x       y       z     vdW  Elec       q    Type
REMARK                         _______ _______ _______ _____ _____    ______ ____
ROOT
ATOM      1  N   UNL     1      33.786 -15.155 -25.915  0.00  0.00    -0.276 N 
ATOM      2  N   UNL     1      33.243 -14.141 -25.220  0.00  0.00    -0.173 NA
ATOM      3  C   UNL     1      34.036 -15.774 -23.826  0.00  0.00    +0.036 A 
ATOM      4  C   UNL     1      33.395 -14.519 -23.945  0.00  0.00    +0.102 A 
ATOM      5  C   UNL     1      34.280 -16.167 -25.137  0.00  0.00    +0.075 A 
ATOM      6  C   UNL     1      34.432 -16.614 -22.771  0.00  0.00    +0.006 C 
ATOM      7  C   UNL     1      35.063 -17.824 -23.081  0.00  0.00    +0.033 C 
ATOM      8  C   UNL     1      34.908 -17.370 -25.467  0.00  0.00    +0.019 C 
ATOM      9  C   UNL     1      35.296 -18.195 -24.406  0.00  0.00    +0.004 C 
ATOM     10  H   UNL     1      33.825 -15.168 -26.898  0.00  0.00    +0.189 HD
ENDROOT
BRANCH   7  14
ATOM     11  N   UNL     1      36.564 -18.458 -21.235  0.00  0.00    -0.218 N 
ATOM     12  N   UNL     1      34.903 -19.819 -21.637  0.00  0.00    -0.206 NA
ATOM     13  N   UNL     1      36.730 -19.425 -20.319  0.00  0.00    -0.157 NA
ATOM     14  C   UNL     1      35.477 -18.703 -22.012  0.00  0.00    +0.149 C 
ATOM     15  C   UNL     1      35.700 -20.223 -20.605  0.00  0.00    +0.218 C 
ATOM     16  H   UNL     1      37.153 -17.675 -21.331  0.00  0.00    +0.176 HD
ENDBRANCH   7  14
BRANCH   4  18
ATOM     17  C   UNL     1      32.040 -11.574 -22.118  0.00  0.00    +0.138 C 
ATOM     18  C   UNL     1      32.930 -13.677 -22.880  0.00  0.00    +0.022 C 
ATOM     19  C   UNL     1      32.488 -12.382 -23.155  0.00  0.00    +0.038 C 
ATOM     20  C   UNL     1      32.027 -12.041 -20.809  0.00  0.00    +0.037 C 
ATOM     21  C   UNL     1      32.920 -14.153 -21.569  0.00  0.00    +0.002 C 
ATOM     22  C   UNL     1      32.468 -13.335 -20.533  0.00  0.00    +0.003 C 
BRANCH  17  23
ATOM     23  O   UNL     1      31.604 -10.302 -22.388  0.00  0.00    -0.478 OA
BRANCH  23  24
ATOM     24  C   UNL     1      32.265  -9.241 -21.710  0.00  0.00    +0.183 C 
BRANCH  24  25
ATOM     25  C   UNL     1      31.756  -7.919 -22.261  0.00  0.00    -0.029 C 
BRANCH  25  26
ATOM     26  N   UNL     1      32.849  -7.158 -22.867  0.00  0.00    +0.389 N 
ATOM     27  C   UNL     1      34.021  -8.018 -23.076  0.00  0.00    -0.077 C 
ATOM     28  C   UNL     1      32.409  -6.542 -24.127  0.00  0.00    -0.077 C 
ATOM     29  C   UNL     1      35.189  -7.226 -23.665  0.00  0.00    -0.023 C 
ATOM     30  C   UNL     1      33.525  -5.702 -24.750  0.00  0.00    -0.023 C 
ATOM     31  C   UNL     1      34.790  -6.527 -24.959  0.00  0.00    -0.004 C 
ATOM     32  H   UNL     1      33.119  -6.408 -22.230  0.00  0.00    -0.080 HD
ENDBRANCH  25  26
ENDBRANCH  24  25
ENDBRANCH  23  24
ENDBRANCH  17  23
ENDBRANCH   4  18
TORSDOF 6
ENDMDL
MODEL 2
REMARK VINA RESULT:     -13.1      4.225      8.021
REMARK  Name = 10430360
REMARK  6 active torsions:
REMARK  status: ('A' for Active; 'I' for Inactive)
REMARK    1  A    between atoms: C_4  and  C_18
REMARK    2  A    between atoms: C_7  and  C_14
REMARK    3  A    between atoms: C_17  and  O_23
REMARK    4  A    between atoms: O_23  and  C_24
REMARK    5  A    between atoms: C_24  and  C_25
REMARK    6  A    between atoms: C_25  and  N_26
REMARK                            x       y       z     vdW  Elec       q    Type
REMARK                         _______ _______ _______ _____ _____    ______ ____
ROOT
ATOM      1  N   UNL     1      32.485 -21.721 -19.759  0.00  0.00    -0.276 N 
ATOM      2  N   UNL     1      33.105 -20.898 -20.623  0.00  0.00    -0.173 NA
ATOM      3  C   UNL     1      34.555 -21.684 -19.036  0.00  0.00    +0.036 A 
ATOM      4  C   UNL     1      34.368 -20.876 -20.182  0.00  0.00    +0.102 A 
ATOM      5  C   UNL     1      33.300 -22.226 -18.782  0.00  0.00    +0.075 A 
ATOM      6  C   UNL     1      35.630 -22.015 -18.194  0.00  0.00    +0.006 C 
ATOM      7  C   UNL     1      35.396 -22.885 -17.122  0.00  0.00    +0.033 C 
ATOM      8  C   UNL     1      33.046 -23.094 -17.719  0.00  0.00    +0.019 C 
ATOM      9  C   UNL     1      34.126 -23.414 -16.890  0.00  0.00    +0.004 C 
ATOM     10  H   UNL     1      31.527 -21.939 -19.824  0.00  0.00    +0.189 HD
ENDROOT
BRANCH   7  14
ATOM     11  N   UNL     1      37.778 -22.899 -16.497  0.00  0.00    -0.218 N 
ATOM     12  N   UNL     1      36.414 -23.906 -15.119  0.00  0.00    -0.206 NA
ATOM     13  N   UNL     1      38.592 -23.346 -15.529  0.00  0.00    -0.157 NA
ATOM     14  C   UNL     1      36.487 -23.237 -16.243  0.00  0.00    +0.149 C 
ATOM     15  C   UNL     1      37.719 -23.948 -14.720  0.00  0.00    +0.218 C 
ATOM     16  H   UNL     1      38.077 -22.392 -17.286  0.00  0.00    +0.176 HD
ENDBRANCH   7  14
BRANCH   4  18
ATOM     17  C   UNL     1      36.019 -18.727 -22.733  0.00  0.00    +0.138 C 
ATOM     18  C   UNL     1      35.359 -20.091 -20.862  0.00  0.00    +0.022 C 
ATOM     19  C   UNL     1      35.054 -19.486 -22.081  0.00  0.00    +0.038 C 
ATOM     20  C   UNL     1      37.285 -18.566 -22.182  0.00  0.00    +0.037 C 
ATOM     21  C   UNL     1      36.627 -19.933 -20.303  0.00  0.00    +0.002 C 
ATOM     22  C   UNL     1      37.591 -19.170 -20.962  0.00  0.00    +0.003 C 
BRANCH  17  23
ATOM     23  O   UNL     1      35.720 -18.132 -23.930  0.00  0.00    -0.478 OA
BRANCH  23  24
ATOM     24  C   UNL     1      34.616 -17.235 -23.942  0.00  0.00    +0.183 C 
BRANCH  24  25
ATOM     25  C   UNL     1      35.016 -15.959 -23.218  0.00  0.00    -0.029 C 
BRANCH  25  26
ATOM     26  N   UNL     1      33.847 -15.321 -22.614  0.00  0.00    +0.389 N 
ATOM     27  C   UNL     1      33.932 -15.371 -21.148  0.00  0.00    -0.077 C 
ATOM     28  C   UNL     1      33.712 -13.937 -23.092  0.00  0.00    -0.077 C 
ATOM     29  C   UNL     1      32.693 -14.750 -20.502  0.00  0.00    -0.023 C 
ATOM     30  C   UNL     1      32.466 -13.270 -22.509  0.00  0.00    -0.023 C 
ATOM     31  C   UNL     1      32.471 -13.321 -20.985  0.00  0.00    -0.004 C 
ATOM     32  H   UNL     1      33.011 -15.833 -22.899  0.00  0.00    -0.080 HD
ENDBRANCH  25  26
ENDBRANCH  24  25
ENDBRANCH  23  24
ENDBRANCH  17  23
ENDBRANCH   4  18
TORSDOF 6
ENDMDL
MODEL 3
REMARK VINA RESULT:     -13.1      6.457     11.587
REMARK  Name = 10430360
REMARK  6 active torsions:
REMARK  status: ('A' for Active; 'I' for Inactive)
REMARK    1  A    between atoms: C_4  and  C_18
REMARK    2  A    between atoms: C_7  and  C_14
REMARK    3  A    between atoms: C_17  and  O_23
REMARK    4  A    between atoms: O_23  and  C_24
REMARK    5  A    between atoms: C_24  and  C_25
REMARK    6  A    between atoms: C_25  and  N_26
REMARK                            x       y       z     vdW  Elec       q    Type
REMARK                         _______ _______ _______ _____ _____    ______ ____
ROOT
ATOM      1  N   UNL     1      33.731 -24.996 -14.096  0.00  0.00    -0.276 N 
ATOM      2  N   UNL     1      34.693 -24.483 -14.881  0.00  0.00    -0.173 NA
ATOM      3  C   UNL     1      32.615 -23.833 -15.583  0.00  0.00    +0.036 A 
ATOM      4  C   UNL     1      34.012 -23.774 -15.789  0.00  0.00    +0.102 A 
ATOM      5  C   UNL     1      32.460 -24.644 -14.464  0.00  0.00    +0.075 A 
ATOM      6  C   UNL     1      31.475 -23.301 -16.209  0.00  0.00    +0.006 C 
ATOM      7  C   UNL     1      30.216 -23.607 -15.679  0.00  0.00    +0.033 C 
ATOM      8  C   UNL     1      31.214 -24.962 -13.920  0.00  0.00    +0.019 C 
ATOM      9  C   UNL     1      30.090 -24.424 -14.554  0.00  0.00    +0.004 C 
ATOM     10  H   UNL     1      33.924 -25.575 -13.324  0.00  0.00    +0.189 HD
ENDROOT
BRANCH   7  14
ATOM     11  N   UNL     1      28.661 -23.388 -17.575  0.00  0.00    -0.218 N 
ATOM     12  N   UNL     1      28.168 -22.235 -15.786  0.00  0.00    -0.206 NA
ATOM     13  N   UNL     1      27.527 -22.757 -17.918  0.00  0.00    -0.157 NA
ATOM     14  C   UNL     1      29.031 -23.071 -16.307  0.00  0.00    +0.149 C 
ATOM     15  C   UNL     1      27.270 -22.072 -16.802  0.00  0.00    +0.218 C 
ATOM     16  H   UNL     1      29.157 -24.001 -18.164  0.00  0.00    +0.176 HD
ENDBRANCH   7  14
BRANCH   4  18
ATOM     17  C   UNL     1      34.751 -22.089 -19.024  0.00  0.00    +0.138 C 
ATOM     18  C   UNL     1      34.709 -23.060 -16.822  0.00  0.00    +0.022 C 
ATOM     19  C   UNL     1      34.070 -22.781 -18.030  0.00  0.00    +0.038 C 
ATOM     20  C   UNL     1      36.063 -21.672 -18.827  0.00  0.00    +0.037 C 
ATOM     21  C   UNL     1      36.024 -22.645 -16.616  0.00  0.00    +0.002 C 
ATOM     22  C   UNL     1      36.702 -21.951 -17.619  0.00  0.00    +0.003 C 
BRANCH  17  23
ATOM     23  O   UNL     1      34.124 -21.814 -20.211  0.00  0.00    -0.478 OA
BRANCH  23  24
ATOM     24  C   UNL     1      33.940 -20.442 -20.536  0.00  0.00    +0.183 C 
BRANCH  24  25
ATOM     25  C   UNL     1      35.120 -19.976 -21.374  0.00  0.00    -0.029 C 
BRANCH  25  26
ATOM     26  N   UNL     1      34.696 -18.969 -22.347  0.00  0.00    +0.389 N 
ATOM     27  C   UNL     1      35.410 -17.704 -22.123  0.00  0.00    -0.077 C 
ATOM     28  C   UNL     1      34.900 -19.460 -23.717  0.00  0.00    -0.077 C 
ATOM     29  C   UNL     1      34.943 -16.626 -23.102  0.00  0.00    -0.023 C 
ATOM     30  C   UNL     1      34.416 -18.439 -24.747  0.00  0.00    -0.023 C 
ATOM     31  C   UNL     1      35.091 -17.086 -24.548  0.00  0.00    -0.004 C 
ATOM     32  H   UNL     1      33.698 -18.793 -22.222  0.00  0.00    -0.080 HD
ENDBRANCH  25  26
ENDBRANCH  24  25
ENDBRANCH  23  24
ENDBRANCH  17  23
ENDBRANCH   4  18
TORSDOF 6
ENDMDL
MODEL 4
REMARK VINA RESULT:     -12.7      2.462      9.534
REMARK  Name = 10430360
REMARK  6 active torsions:
REMARK  status: ('A' for Active; 'I' for Inactive)
REMARK    1  A    between atoms: C_4  and  C_18
REMARK    2  A    between atoms: C_7  and  C_14
REMARK    3  A    between atoms: C_17  and  O_23
REMARK    4  A    between atoms: O_23  and  C_24
REMARK    5  A    between atoms: C_24  and  C_25
REMARK    6  A    between atoms: C_25  and  N_26
REMARK                            x       y       z     vdW  Elec       q    Type
REMARK                         _______ _______ _______ _____ _____    ______ ____
ROOT
ATOM      1  N   UNL     1      32.334 -13.454 -20.678  0.00  0.00    -0.276 N 
ATOM      2  N   UNL     1      32.705 -14.186 -21.742  0.00  0.00    -0.173 NA
ATOM      3  C   UNL     1      32.370 -11.996 -22.316  0.00  0.00    +0.036 A 
ATOM      4  C   UNL     1      32.727 -13.296 -22.742  0.00  0.00    +0.102 A 
ATOM      5  C   UNL     1      32.116 -12.131 -20.955  0.00  0.00    +0.075 A 
ATOM      6  C   UNL     1      32.233 -10.734 -22.919  0.00  0.00    +0.006 C 
ATOM      7  C   UNL     1      31.843  -9.651 -22.122  0.00  0.00    +0.033 C 
ATOM      8  C   UNL     1      31.727 -11.064 -20.143  0.00  0.00    +0.019 C 
ATOM      9  C   UNL     1      31.595  -9.815 -20.758  0.00  0.00    +0.004 C 
ATOM     10  H   UNL     1      32.227 -13.837 -19.778  0.00  0.00    +0.189 HD
ENDROOT
BRANCH   7  14
ATOM     11  N   UNL     1      31.553  -7.210 -21.991  0.00  0.00    -0.218 N 
ATOM     12  N   UNL     1      31.674  -8.060 -24.000  0.00  0.00    -0.206 NA
ATOM     13  N   UNL     1      31.434  -6.136 -22.787  0.00  0.00    -0.157 NA
ATOM     14  C   UNL     1      31.696  -8.345 -22.722  0.00  0.00    +0.149 C 
ATOM     15  C   UNL     1      31.513  -6.703 -23.992  0.00  0.00    +0.218 C 
ATOM     16  H   UNL     1      31.540  -7.177 -21.007  0.00  0.00    +0.176 HD
ENDBRANCH   7  14
BRANCH   4  18
ATOM     17  C   UNL     1      33.661 -15.445 -25.634  0.00  0.00    +0.138 C 
ATOM     18  C   UNL     1      33.089 -13.707 -24.069  0.00  0.00    +0.022 C 
ATOM     19  C   UNL     1      33.311 -15.056 -24.346  0.00  0.00    +0.038 C 
ATOM     20  C   UNL     1      33.791 -14.503 -26.648  0.00  0.00    +0.037 C 
ATOM     21  C   UNL     1      33.218 -12.757 -25.081  0.00  0.00    +0.002 C 
ATOM     22  C   UNL     1      33.569 -13.154 -26.371  0.00  0.00    +0.003 C 
BRANCH  17  23
ATOM     23  O   UNL     1      33.878 -16.770 -25.907  0.00  0.00    -0.478 OA
BRANCH  23  24
ATOM     24  C   UNL     1      34.906 -17.417 -25.168  0.00  0.00    +0.183 C 
BRANCH  24  25
ATOM     25  C   UNL     1      34.336 -18.677 -24.538  0.00  0.00    -0.029 C 
BRANCH  25  26
ATOM     26  N   UNL     1      35.235 -19.190 -23.504  0.00  0.00    +0.389 N 
ATOM     27  C   UNL     1      36.293 -18.212 -23.211  0.00  0.00    -0.077 C 
ATOM     28  C   UNL     1      34.481 -19.538 -22.292  0.00  0.00    -0.077 C 
ATOM     29  C   UNL     1      37.270 -18.754 -22.167  0.00  0.00    -0.023 C 
ATOM     30  C   UNL     1      35.400 -20.122 -21.218  0.00  0.00    -0.023 C 
ATOM     31  C   UNL     1      36.547 -19.171 -20.892  0.00  0.00    -0.004 C 
ATOM     32  H   UNL     1      35.681 -20.040 -23.851  0.00  0.00    -0.080 HD
ENDBRANCH  25  26
ENDBRANCH  24  25
ENDBRANCH  23  24
ENDBRANCH  17  23
ENDBRANCH   4  18
TORSDOF 6
ENDMDL
MODEL 5
REMARK VINA RESULT:     -12.5      0.974      1.583
REMARK  Name = 10430360
REMARK  6 active torsions:
REMARK  status: ('A' for Active; 'I' for Inactive)
REMARK    1  A    between atoms: C_4  and  C_18
REMARK    2  A    between atoms: C_7  and  C_14
REMARK    3  A    between atoms: C_17  and  O_23
REMARK    4  A    between atoms: O_23  and  C_24
REMARK    5  A    between atoms: C_24  and  C_25
REMARK    6  A    between atoms: C_25  and  N_26
REMARK                            x       y       z     vdW  Elec       q    Type
REMARK                         _______ _______ _______ _____ _____    ______ ____
ROOT
ATOM      1  N   UNL     1      33.745 -15.148 -25.915  0.00  0.00    -0.276 N 
ATOM      2  N   UNL     1      33.207 -14.142 -25.203  0.00  0.00    -0.173 NA
ATOM      3  C   UNL     1      34.049 -15.770 -23.834  0.00  0.00    +0.036 A 
ATOM      4  C   UNL     1      33.393 -14.522 -23.934  0.00  0.00    +0.102 A 
ATOM      5  C   UNL     1      34.267 -16.157 -25.151  0.00  0.00    +0.075 A 
ATOM      6  C   UNL     1      34.478 -16.609 -22.791  0.00  0.00    +0.006 C 
ATOM      7  C   UNL     1      35.115 -17.812 -23.119  0.00  0.00    +0.033 C 
ATOM      8  C   UNL     1      34.900 -17.352 -25.500  0.00  0.00    +0.019 C 
ATOM      9  C   UNL     1      35.321 -18.176 -24.451  0.00  0.00    +0.004 C 
ATOM     10  H   UNL     1      33.761 -15.157 -26.898  0.00  0.00    +0.189 HD
ENDROOT
BRANCH   7  14
ATOM     11  N   UNL     1      36.743 -18.517 -21.412  0.00  0.00    -0.218 N 
ATOM     12  N   UNL     1      34.939 -19.738 -21.587  0.00  0.00    -0.206 NA
ATOM     13  N   UNL     1      36.921 -19.465 -20.479  0.00  0.00    -0.157 NA
ATOM     14  C   UNL     1      35.563 -18.689 -22.063  0.00  0.00    +0.149 C 
ATOM     15  C   UNL     1      35.803 -20.178 -20.625  0.00  0.00    +0.218 C 
ATOM     16  H   UNL     1      37.382 -17.792 -21.598  0.00  0.00    +0.176 HD
ENDBRANCH   7  14
BRANCH   4  18
ATOM     17  C   UNL     1      32.192 -11.550 -22.043  0.00  0.00    +0.138 C 
ATOM     18  C   UNL     1      32.943 -13.688 -22.855  0.00  0.00    +0.022 C 
ATOM     19  C   UNL     1      32.626 -12.350 -23.092  0.00  0.00    +0.038 C 
ATOM     20  C   UNL     1      32.071 -12.069 -20.758  0.00  0.00    +0.037 C 
ATOM     21  C   UNL     1      32.824 -14.215 -21.570  0.00  0.00    +0.002 C 
ATOM     22  C   UNL     1      32.388 -13.406 -20.521  0.00  0.00    +0.003 C 
BRANCH  17  23
ATOM     23  O   UNL     1      31.879 -10.236 -22.275  0.00  0.00    -0.478 OA
BRANCH  23  24
ATOM     24  C   UNL     1      32.368  -9.664 -23.482  0.00  0.00    +0.183 C 
BRANCH  24  25
ATOM     25  C   UNL     1      33.519  -8.729 -23.147  0.00  0.00    -0.029 C 
BRANCH  25  26
ATOM     26  N   UNL     1      33.040  -7.355 -22.999  0.00  0.00    +0.389 N 
ATOM     27  C   UNL     1      31.905  -7.105 -23.900  0.00  0.00    -0.077 C 
ATOM     28  C   UNL     1      32.678  -7.084 -21.601  0.00  0.00    -0.077 C 
ATOM     29  C   UNL     1      31.424  -5.658 -23.792  0.00  0.00    -0.023 C 
ATOM     30  C   UNL     1      32.222  -5.636 -21.419  0.00  0.00    -0.023 C 
ATOM     31  C   UNL     1      31.067  -5.296 -22.355  0.00  0.00    -0.004 C 
ATOM     32  H   UNL     1      33.793  -6.716 -23.258  0.00  0.00    -0.080 HD
ENDBRANCH  25  26
ENDBRANCH  24  25
ENDBRANCH  23  24
ENDBRANCH  17  23
ENDBRANCH   4  18
TORSDOF 6
ENDMDL
MODEL 6
REMARK VINA RESULT:     -12.4      5.582     10.252
REMARK  Name = 10430360
REMARK  6 active torsions:
REMARK  status: ('A' for Active; 'I' for Inactive)
REMARK    1  A    between atoms: C_4  and  C_18
REMARK    2  A    between atoms: C_7  and  C_14
REMARK    3  A    between atoms: C_17  and  O_23
REMARK    4  A    between atoms: O_23  and  C_24
REMARK    5  A    between atoms: C_24  and  C_25
REMARK    6  A    between atoms: C_25  and  N_26
REMARK                            x       y       z     vdW  Elec       q    Type
REMARK                         _______ _______ _______ _____ _____    ______ ____
ROOT
ATOM      1  N   UNL     1      37.841 -23.033 -16.413  0.00  0.00    -0.276 N 
ATOM      2  N   UNL     1      37.536 -22.411 -17.565  0.00  0.00    -0.173 NA
ATOM      3  C   UNL     1      35.648 -22.992 -16.409  0.00  0.00    +0.036 A 
ATOM      4  C   UNL     1      36.198 -22.386 -17.562  0.00  0.00    +0.102 A 
ATOM      5  C   UNL     1      36.752 -23.408 -15.673  0.00  0.00    +0.075 A 
ATOM      6  C   UNL     1      34.357 -23.234 -15.909  0.00  0.00    +0.006 C 
ATOM      7  C   UNL     1      34.229 -23.891 -14.679  0.00  0.00    +0.033 C 
ATOM      8  C   UNL     1      36.646 -24.064 -14.445  0.00  0.00    +0.019 C 
ATOM      9  C   UNL     1      35.354 -24.298 -13.961  0.00  0.00    +0.004 C 
ATOM     10  H   UNL     1      38.767 -23.204 -16.128  0.00  0.00    +0.189 HD
ENDROOT
BRANCH   7  14
ATOM     11  N   UNL     1      32.182 -23.212 -13.490  0.00  0.00    -0.218 N 
ATOM     12  N   UNL     1      32.241 -25.275 -14.208  0.00  0.00    -0.206 NA
ATOM     13  N   UNL     1      30.998 -23.708 -13.100  0.00  0.00    -0.157 NA
ATOM     14  C   UNL     1      32.911 -24.151 -14.148  0.00  0.00    +0.149 C 
ATOM     15  C   UNL     1      31.083 -24.958 -13.557  0.00  0.00    +0.218 C 
ATOM     16  H   UNL     1      32.482 -22.289 -13.324  0.00  0.00    +0.176 HD
ENDBRANCH   7  14
BRANCH   4  18
ATOM     17  C   UNL     1      35.453 -20.388 -20.613  0.00  0.00    +0.138 C 
ATOM     18  C   UNL     1      35.482 -21.785 -18.653  0.00  0.00    +0.022 C 
ATOM     19  C   UNL     1      36.153 -20.965 -19.560  0.00  0.00    +0.038 C 
ATOM     20  C   UNL     1      34.091 -20.620 -20.771  0.00  0.00    +0.037 C 
ATOM     21  C   UNL     1      34.117 -22.023 -18.805  0.00  0.00    +0.002 C 
ATOM     22  C   UNL     1      33.421 -21.440 -19.864  0.00  0.00    +0.003 C 
BRANCH  17  23
ATOM     23  O   UNL     1      36.112 -19.583 -21.505  0.00  0.00    -0.478 OA
BRANCH  23  24
ATOM     24  C   UNL     1      35.363 -18.523 -22.086  0.00  0.00    +0.183 C 
BRANCH  24  25
ATOM     25  C   UNL     1      35.683 -18.455 -23.570  0.00  0.00    -0.029 C 
BRANCH  25  26
ATOM     26  N   UNL     1      35.367 -17.131 -24.106  0.00  0.00    +0.389 N 
ATOM     27  C   UNL     1      34.278 -17.219 -25.088  0.00  0.00    -0.077 C 
ATOM     28  C   UNL     1      35.029 -16.203 -23.018  0.00  0.00    -0.077 C 
ATOM     29  C   UNL     1      33.969 -15.849 -25.694  0.00  0.00    -0.023 C 
ATOM     30  C   UNL     1      34.744 -14.800 -23.557  0.00  0.00    -0.023 C 
ATOM     31  C   UNL     1      33.645 -14.824 -24.613  0.00  0.00    -0.004 C 
ATOM     32  H   UNL     1      36.192 -16.766 -24.584  0.00  0.00    -0.080 HD
ENDBRANCH  25  26
ENDBRANCH  24  25
ENDBRANCH  23  24
ENDBRANCH  17  23
ENDBRANCH   4  18
TORSDOF 6
ENDMDL
MODEL 7
REMARK VINA RESULT:     -12.1      5.564     10.089
REMARK  Name = 10430360
REMARK  6 active torsions:
REMARK  status: ('A' for Active; 'I' for Inactive)
REMARK    1  A    between atoms: C_4  and  C_18
REMARK    2  A    between atoms: C_7  and  C_14
REMARK    3  A    between atoms: C_17  and  O_23
REMARK    4  A    between atoms: O_23  and  C_24
REMARK    5  A    between atoms: C_24  and  C_25
REMARK    6  A    between atoms: C_25  and  N_26
REMARK                            x       y       z     vdW  Elec       q    Type
REMARK                         _______ _______ _______ _____ _____    ______ ____
ROOT
ATOM      1  N   UNL     1      31.574 -23.050 -17.270  0.00  0.00    -0.276 N 
ATOM      2  N   UNL     1      32.197 -22.423 -18.282  0.00  0.00    -0.173 NA
ATOM      3  C   UNL     1      33.688 -23.118 -16.692  0.00  0.00    +0.036 A 
ATOM      4  C   UNL     1      33.487 -22.464 -17.929  0.00  0.00    +0.102 A 
ATOM      5  C   UNL     1      32.413 -23.491 -16.282  0.00  0.00    +0.075 A 
ATOM      6  C   UNL     1      34.791 -23.432 -15.879  0.00  0.00    +0.006 C 
ATOM      7  C   UNL     1      34.564 -24.116 -14.678  0.00  0.00    +0.033 C 
ATOM      8  C   UNL     1      32.165 -24.172 -15.089  0.00  0.00    +0.019 C 
ATOM      9  C   UNL     1      33.272 -24.478 -14.292  0.00  0.00    +0.004 C 
ATOM     10  H   UNL     1      30.599 -23.180 -17.242  0.00  0.00    +0.189 HD
ENDROOT
BRANCH   7  14
ATOM     11  N   UNL     1      36.145 -25.716 -13.679  0.00  0.00    -0.218 N 
ATOM     12  N   UNL     1      36.395 -23.624 -13.099  0.00  0.00    -0.206 NA
ATOM     13  N   UNL     1      37.189 -25.752 -12.836  0.00  0.00    -0.157 NA
ATOM     14  C   UNL     1      35.683 -24.448 -13.828  0.00  0.00    +0.149 C 
ATOM     15  C   UNL     1      37.300 -24.463 -12.513  0.00  0.00    +0.218 C 
ATOM     16  H   UNL     1      35.767 -26.505 -14.131  0.00  0.00    +0.176 HD
ENDBRANCH   7  14
BRANCH   4  18
ATOM     17  C   UNL     1      35.088 -20.577 -20.709  0.00  0.00    +0.138 C 
ATOM     18  C   UNL     1      34.489 -21.885 -18.779  0.00  0.00    +0.022 C 
ATOM     19  C   UNL     1      34.111 -21.135 -19.893  0.00  0.00    +0.038 C 
ATOM     20  C   UNL     1      36.437 -20.759 -20.427  0.00  0.00    +0.037 C 
ATOM     21  C   UNL     1      35.840 -22.071 -18.489  0.00  0.00    +0.002 C 
ATOM     22  C   UNL     1      36.815 -21.508 -19.313  0.00  0.00    +0.003 C 
BRANCH  17  23
ATOM     23  O   UNL     1      34.717 -19.840 -21.804  0.00  0.00    -0.478 OA
BRANCH  23  24
ATOM     24  C   UNL     1      35.224 -18.514 -21.885  0.00  0.00    +0.183 C 
BRANCH  24  25
ATOM     25  C   UNL     1      35.467 -18.173 -23.346  0.00  0.00    -0.029 C 
BRANCH  25  26
ATOM     26  N   UNL     1      34.547 -17.127 -23.792  0.00  0.00    +0.389 N 
ATOM     27  C   UNL     1      34.846 -15.856 -23.117  0.00  0.00    -0.077 C 
ATOM     28  C   UNL     1      34.605 -16.980 -25.253  0.00  0.00    -0.077 C 
ATOM     29  C   UNL     1      33.861 -14.764 -23.537  0.00  0.00    -0.023 C 
ATOM     30  C   UNL     1      33.612 -15.924 -25.741  0.00  0.00    -0.023 C 
ATOM     31  C   UNL     1      33.841 -14.585 -25.050  0.00  0.00    -0.004 C 
ATOM     32  H   UNL     1      33.596 -17.400 -23.542  0.00  0.00    -0.080 HD
ENDBRANCH  25  26
ENDBRANCH  24  25
ENDBRANCH  23  24
ENDBRANCH  17  23
ENDBRANCH   4  18
TORSDOF 6
ENDMDL
MODEL 8
REMARK VINA RESULT:     -12.1     11.217     14.517
REMARK  Name = 10430360
REMARK  6 active torsions:
REMARK  status: ('A' for Active; 'I' for Inactive)
REMARK    1  A    between atoms: C_4  and  C_18
REMARK    2  A    between atoms: C_7  and  C_14
REMARK    3  A    between atoms: C_17  and  O_23
REMARK    4  A    between atoms: O_23  and  C_24
REMARK    5  A    between atoms: C_24  and  C_25
REMARK    6  A    between atoms: C_25  and  N_26
REMARK                            x       y       z     vdW  Elec       q    Type
REMARK                         _______ _______ _______ _____ _____    ______ ____
ROOT
ATOM      1  N   UNL     1      32.678 -25.034 -14.338  0.00  0.00    -0.276 N 
ATOM      2  N   UNL     1      33.683 -24.566 -15.099  0.00  0.00    -0.173 NA
ATOM      3  C   UNL     1      31.655 -23.818 -15.849  0.00  0.00    +0.036 A 
ATOM      4  C   UNL     1      33.058 -23.825 -16.021  0.00  0.00    +0.102 A 
ATOM      5  C   UNL     1      31.435 -24.621 -14.735  0.00  0.00    +0.075 A 
ATOM      6  C   UNL     1      30.557 -23.231 -16.501  0.00  0.00    +0.006 C 
ATOM      7  C   UNL     1      29.272 -23.478 -16.001  0.00  0.00    +0.033 C 
ATOM      8  C   UNL     1      30.163 -24.880 -14.222  0.00  0.00    +0.019 C 
ATOM      9  C   UNL     1      29.081 -24.289 -14.882  0.00  0.00    +0.004 C 
ATOM     10  H   UNL     1      32.825 -25.622 -13.562  0.00  0.00    +0.189 HD
ENDROOT
BRANCH   7  14
ATOM     11  N   UNL     1      27.095 -22.329 -15.976  0.00  0.00    -0.218 N 
ATOM     12  N   UNL     1      27.916 -22.794 -17.946  0.00  0.00    -0.206 NA
ATOM     13  N   UNL     1      26.165 -21.852 -16.818  0.00  0.00    -0.157 NA
ATOM     14  C   UNL     1      28.130 -22.886 -16.657  0.00  0.00    +0.149 C 
ATOM     15  C   UNL     1      26.709 -22.159 -17.997  0.00  0.00    +0.218 C 
ATOM     16  H   UNL     1      27.035 -22.280 -14.995  0.00  0.00    +0.176 HD
ENDBRANCH   7  14
BRANCH   4  18
ATOM     17  C   UNL     1      35.868 -22.142 -17.789  0.00  0.00    +0.138 C 
ATOM     18  C   UNL     1      33.813 -23.143 -17.035  0.00  0.00    +0.022 C 
ATOM     19  C   UNL     1      35.145 -22.801 -16.802  0.00  0.00    +0.038 C 
ATOM     20  C   UNL     1      35.277 -21.820 -19.006  0.00  0.00    +0.037 C 
ATOM     21  C   UNL     1      33.213 -22.824 -18.253  0.00  0.00    +0.002 C 
ATOM     22  C   UNL     1      33.945 -22.163 -19.239  0.00  0.00    +0.003 C 
BRANCH  17  23
ATOM     23  O   UNL     1      37.177 -21.806 -17.561  0.00  0.00    -0.478 OA
BRANCH  23  24
ATOM     24  C   UNL     1      37.675 -22.021 -16.247  0.00  0.00    +0.183 C 
BRANCH  24  25
ATOM     25  C   UNL     1      38.547 -23.266 -16.253  0.00  0.00    -0.029 C 
BRANCH  25  26
ATOM     26  N   UNL     1      38.120 -24.200 -15.212  0.00  0.00    +0.389 N 
ATOM     27  C   UNL     1      39.272 -24.941 -14.680  0.00  0.00    -0.077 C 
ATOM     28  C   UNL     1      37.406 -23.488 -14.143  0.00  0.00    -0.077 C 
ATOM     29  C   UNL     1      38.835 -25.957 -13.624  0.00  0.00    -0.023 C 
ATOM     30  C   UNL     1      36.908 -24.458 -13.070  0.00  0.00    -0.023 C 
ATOM     31  C   UNL     1      38.052 -25.289 -12.500  0.00  0.00    -0.004 C 
ATOM     32  H   UNL     1      37.475 -24.876 -15.623  0.00  0.00    -0.080 HD
ENDBRANCH  25  26
ENDBRANCH  24  25
ENDBRANCH  23  24
ENDBRANCH  17  23
ENDBRANCH   4  18
TORSDOF 6
ENDMDL
MODEL 9
REMARK VINA RESULT:     -12.0      4.261     10.690
REMARK  Name = 10430360
REMARK  6 active torsions:
REMARK  status: ('A' for Active; 'I' for Inactive)
REMARK    1  A    between atoms: C_4  and  C_18
REMARK    2  A    between atoms: C_7  and  C_14
REMARK    3  A    between atoms: C_17  and  O_23
REMARK    4  A    between atoms: O_23  and  C_24
REMARK    5  A    between atoms: C_24  and  C_25
REMARK    6  A    between atoms: C_25  and  N_26
REMARK                            x       y       z     vdW  Elec       q    Type
REMARK                         _______ _______ _______ _____ _____    ______ ____
ROOT
ATOM      1  N   UNL     1      34.855 -17.374 -25.739  0.00  0.00    -0.276 N 
ATOM      2  N   UNL     1      35.380 -18.319 -24.940  0.00  0.00    -0.173 NA
ATOM      3  C   UNL     1      34.452 -16.621 -23.719  0.00  0.00    +0.036 A 
ATOM      4  C   UNL     1      35.134 -17.859 -23.708  0.00  0.00    +0.102 A 
ATOM      5  C   UNL     1      34.283 -16.327 -25.067  0.00  0.00    +0.075 A 
ATOM      6  C   UNL     1      33.964 -15.724 -22.753  0.00  0.00    +0.006 C 
ATOM      7  C   UNL     1      33.321 -14.558 -23.188  0.00  0.00    +0.033 C 
ATOM      8  C   UNL     1      33.645 -15.171 -25.521  0.00  0.00    +0.019 C 
ATOM      9  C   UNL     1      33.165 -14.288 -24.548  0.00  0.00    +0.004 C 
ATOM     10  H   UNL     1      34.881 -17.430 -26.721  0.00  0.00    +0.189 HD
ENDROOT
BRANCH   7  14
ATOM     11  N   UNL     1      31.936 -12.633 -22.525  0.00  0.00    -0.218 N 
ATOM     12  N   UNL     1      33.100 -13.577 -20.935  0.00  0.00    -0.206 NA
ATOM     13  N   UNL     1      31.624 -11.906 -21.442  0.00  0.00    -0.157 NA
ATOM     14  C   UNL     1      32.813 -13.623 -22.212  0.00  0.00    +0.149 C 
ATOM     15  C   UNL     1      32.354 -12.516 -20.507  0.00  0.00    +0.218 C 
ATOM     16  H   UNL     1      31.576 -12.472 -23.427  0.00  0.00    +0.176 HD
ENDBRANCH   7  14
BRANCH   4  18
ATOM     17  C   UNL     1      35.073 -20.210 -20.823  0.00  0.00    +0.138 C 
ATOM     18  C   UNL     1      35.551 -18.611 -22.558  0.00  0.00    +0.022 C 
ATOM     19  C   UNL     1      34.661 -19.486 -21.935  0.00  0.00    +0.038 C 
ATOM     20  C   UNL     1      36.363 -20.071 -20.324  0.00  0.00    +0.037 C 
ATOM     21  C   UNL     1      36.847 -18.466 -22.063  0.00  0.00    +0.002 C 
ATOM     22  C   UNL     1      37.254 -19.196 -20.946  0.00  0.00    +0.003 C 
BRANCH  17  23
ATOM     23  O   UNL     1      34.199 -21.070 -20.211  0.00  0.00    -0.478 OA
BRANCH  23  24
ATOM     24  C   UNL     1      34.725 -21.889 -19.174  0.00  0.00    +0.183 C 
BRANCH  24  25
ATOM     25  C   UNL     1      33.651 -22.871 -18.735  0.00  0.00    -0.029 C 
BRANCH  25  26
ATOM     26  N   UNL     1      33.443 -22.795 -17.289  0.00  0.00    +0.389 N 
ATOM     27  C   UNL     1      32.106 -23.290 -16.934  0.00  0.00    -0.077 C 
ATOM     28  C   UNL     1      34.492 -23.540 -16.579  0.00  0.00    -0.077 C 
ATOM     29  C   UNL     1      31.855 -23.172 -15.430  0.00  0.00    -0.023 C 
ATOM     30  C   UNL     1      34.318 -23.429 -15.063  0.00  0.00    -0.023 C 
ATOM     31  C   UNL     1      32.932 -23.893 -14.629  0.00  0.00    -0.004 C 
ATOM     32  H   UNL     1      33.503 -21.817 -17.001  0.00  0.00    -0.080 HD
ENDBRANCH  25  26
ENDBRANCH  24  25
ENDBRANCH  23  24
ENDBRANCH  17  23
ENDBRANCH   4  18
TORSDOF 6
ENDMDL
