MODEL 1
REMARK VINA RESULT:      -7.4      0.000      0.000
REMARK  Name = 171548
REMARK  6 active torsions:
REMARK  status: ('A' for Active; 'I' for Inactive)
REMARK    1  A    between atoms: C_7  and  C_12
REMARK    2  A    between atoms: C_12  and  C_13
REMARK    3  A    between atoms: C_13  and  C_14
REMARK    4  A    between atoms: C_14  and  C_15
REMARK    5  A    between atoms: C_15  and  C_17
REMARK    6  A    between atoms: C_17  and  O_18
REMARK                            x       y       z     vdW  Elec       q    Type
REMARK                         _______ _______ _______ _____ _____    ______ ____
ROOT
ATOM      1  S   UNL     1      37.077 -23.297 -13.119  0.00  0.00    -0.138 S 
ATOM      2  O   UNL     1      41.013 -25.470 -14.712  0.00  0.00    -0.253 OA
ATOM      3  N   UNL     1      38.879 -24.835 -15.441  0.00  0.00    -0.288 N 
ATOM      4  N   UNL     1      39.059 -26.059 -13.561  0.00  0.00    -0.288 N 
ATOM      5  C   UNL     1      37.505 -25.061 -15.033  0.00  0.00    +0.102 C 
ATOM      6  C   UNL     1      37.634 -25.832 -13.700  0.00  0.00    +0.103 C 
ATOM      7  C   UNL     1      36.689 -23.783 -14.820  0.00  0.00    +0.067 C 
ATOM      8  C   UNL     1      37.084 -25.008 -12.539  0.00  0.00    +0.079 C 
ATOM      9  C   UNL     1      39.797 -25.453 -14.584  0.00  0.00    +0.301 C 
ATOM     10  H   UNL     1      39.136 -24.307 -16.231  0.00  0.00    +0.151 HD
ATOM     11  H   UNL     1      39.464 -26.579 -12.828  0.00  0.00    +0.151 HD
ENDROOT
BRANCH   7  12
ATOM     12  C   UNL     1      36.952 -22.661 -15.809  0.00  0.00    +0.013 C 
BRANCH  12  13
ATOM     13  C   UNL     1      35.801 -22.426 -16.791  0.00  0.00    +0.001 C 
BRANCH  13  14
ATOM     14  C   UNL     1      36.211 -22.015 -18.208  0.00  0.00    +0.012 C 
BRANCH  14  15
ATOM     15  C   UNL     1      35.042 -21.525 -19.061  0.00  0.00    +0.109 C 
BRANCH  15  17
ATOM     16  O   UNL     1      34.174 -23.751 -19.528  0.00  0.00    -0.250 OA
ATOM     17  C   UNL     1      33.976 -22.585 -19.217  0.00  0.00    +0.314 C 
BRANCH  17  18
ATOM     18  O   UNL     1      32.737 -22.081 -18.974  0.00  0.00    -0.480 OA
ATOM     19  H   UNL     1      32.632 -21.173 -18.771  0.00  0.00    +0.295 HD
ENDBRANCH  17  18
ENDBRANCH  15  17
ENDBRANCH  14  15
ENDBRANCH  13  14
ENDBRANCH  12  13
ENDBRANCH   7  12
TORSDOF 6
ENDMDL
MODEL 2
REMARK VINA RESULT:      -7.3      3.817      4.420
REMARK  Name = 171548
REMARK  6 active torsions:
REMARK  status: ('A' for Active; 'I' for Inactive)
REMARK    1  A    between atoms: C_7  and  C_12
REMARK    2  A    between atoms: C_12  and  C_13
REMARK    3  A    between atoms: C_13  and  C_14
REMARK    4  A    between atoms: C_14  and  C_15
REMARK    5  A    between atoms: C_15  and  C_17
REMARK    6  A    between atoms: C_17  and  O_18
REMARK                            x       y       z     vdW  Elec       q    Type
REMARK                         _______ _______ _______ _____ _____    ______ ____
ROOT
ATOM      1  S   UNL     1      35.131 -22.859 -16.178  0.00  0.00    -0.138 S 
ATOM      2  O   UNL     1      36.744 -27.343 -15.937  0.00  0.00    -0.253 OA
ATOM      3  N   UNL     1      35.336 -25.866 -14.787  0.00  0.00    -0.288 N 
ATOM      4  N   UNL     1      37.441 -25.215 -15.245  0.00  0.00    -0.288 N 
ATOM      5  C   UNL     1      35.440 -24.553 -14.178  0.00  0.00    +0.102 C 
ATOM      6  C   UNL     1      36.859 -24.076 -14.562  0.00  0.00    +0.103 C 
ATOM      7  C   UNL     1      34.400 -23.541 -14.667  0.00  0.00    +0.067 C 
ATOM      8  C   UNL     1      36.795 -22.853 -15.474  0.00  0.00    +0.079 C 
ATOM      9  C   UNL     1      36.531 -26.269 -15.392  0.00  0.00    +0.301 C 
ATOM     10  H   UNL     1      34.516 -26.410 -14.776  0.00  0.00    +0.151 HD
ATOM     11  H   UNL     1      38.371 -25.245 -15.570  0.00  0.00    +0.151 HD
ENDROOT
BRANCH   7  12
ATOM     12  C   UNL     1      33.006 -24.094 -14.907  0.00  0.00    +0.013 C 
BRANCH  12  13
ATOM     13  C   UNL     1      32.162 -23.241 -15.857  0.00  0.00    +0.001 C 
BRANCH  13  14
ATOM     14  C   UNL     1      30.730 -22.954 -15.398  0.00  0.00    +0.012 C 
BRANCH  14  15
ATOM     15  C   UNL     1      29.721 -24.004 -15.861  0.00  0.00    +0.109 C 
BRANCH  15  17
ATOM     16  O   UNL     1      27.849 -24.056 -17.417  0.00  0.00    -0.250 OA
ATOM     17  C   UNL     1      28.692 -23.419 -16.802  0.00  0.00    +0.314 C 
BRANCH  17  18
ATOM     18  O   UNL     1      28.817 -22.069 -16.896  0.00  0.00    -0.480 OA
ATOM     19  H   UNL     1      29.627 -21.656 -16.666  0.00  0.00    +0.295 HD
ENDBRANCH  17  18
ENDBRANCH  15  17
ENDBRANCH  14  15
ENDBRANCH  13  14
ENDBRANCH  12  13
ENDBRANCH   7  12
TORSDOF 6
ENDMDL
MODEL 3
REMARK VINA RESULT:      -7.2      7.506     10.840
REMARK  Name = 171548
REMARK  6 active torsions:
REMARK  status: ('A' for Active; 'I' for Inactive)
REMARK    1  A    between atoms: C_7  and  C_12
REMARK    2  A    between atoms: C_12  and  C_13
REMARK    3  A    between atoms: C_13  and  C_14
REMARK    4  A    between atoms: C_14  and  C_15
REMARK    5  A    between atoms: C_15  and  C_17
REMARK    6  A    between atoms: C_17  and  O_18
REMARK                            x       y       z     vdW  Elec       q    Type
REMARK                         _______ _______ _______ _____ _____    ______ ____
ROOT
ATOM      1  S   UNL     1      33.162 -16.207 -21.326  0.00  0.00    -0.138 S 
ATOM      2  O   UNL     1      33.461 -16.472 -26.080  0.00  0.00    -0.253 OA
ATOM      3  N   UNL     1      34.809 -16.650 -24.173  0.00  0.00    -0.288 N 
ATOM      4  N   UNL     1      33.543 -14.808 -24.433  0.00  0.00    -0.288 N 
ATOM      5  C   UNL     1      35.144 -15.826 -23.026  0.00  0.00    +0.102 C 
ATOM      6  C   UNL     1      34.215 -14.599 -23.165  0.00  0.00    +0.103 C 
ATOM      7  C   UNL     1      34.915 -16.502 -21.671  0.00  0.00    +0.067 C 
ATOM      8  C   UNL     1      33.219 -14.536 -22.010  0.00  0.00    +0.079 C 
ATOM      9  C   UNL     1      33.884 -16.031 -25.020  0.00  0.00    +0.301 C 
ATOM     10  H   UNL     1      35.190 -17.543 -24.335  0.00  0.00    +0.151 HD
ATOM     11  H   UNL     1      32.916 -14.162 -24.835  0.00  0.00    +0.151 HD
ENDROOT
BRANCH   7  12
ATOM     12  C   UNL     1      35.271 -17.977 -21.603  0.00  0.00    +0.013 C 
BRANCH  12  13
ATOM     13  C   UNL     1      34.082 -18.881 -21.267  0.00  0.00    +0.001 C 
BRANCH  13  14
ATOM     14  C   UNL     1      34.427 -20.204 -20.579  0.00  0.00    +0.012 C 
BRANCH  14  15
ATOM     15  C   UNL     1      33.252 -20.817 -19.817  0.00  0.00    +0.109 C 
BRANCH  15  17
ATOM     16  O   UNL     1      34.698 -22.703 -19.285  0.00  0.00    -0.250 OA
ATOM     17  C   UNL     1      33.635 -22.115 -19.142  0.00  0.00    +0.314 C 
BRANCH  17  18
ATOM     18  O   UNL     1      32.635 -22.571 -18.342  0.00  0.00    -0.480 OA
ATOM     19  H   UNL     1      32.832 -23.141 -17.625  0.00  0.00    +0.295 HD
ENDBRANCH  17  18
ENDBRANCH  15  17
ENDBRANCH  14  15
ENDBRANCH  13  14
ENDBRANCH  12  13
ENDBRANCH   7  12
TORSDOF 6
ENDMDL
MODEL 4
REMARK VINA RESULT:      -7.2      7.211     10.339
REMARK  Name = 171548
REMARK  6 active torsions:
REMARK  status: ('A' for Active; 'I' for Inactive)
REMARK    1  A    between atoms: C_7  and  C_12
REMARK    2  A    between atoms: C_12  and  C_13
REMARK    3  A    between atoms: C_13  and  C_14
REMARK    4  A    between atoms: C_14  and  C_15
REMARK    5  A    between atoms: C_15  and  C_17
REMARK    6  A    between atoms: C_17  and  O_18
REMARK                            x       y       z     vdW  Elec       q    Type
REMARK                         _______ _______ _______ _____ _____    ______ ____
ROOT
ATOM      1  S   UNL     1      33.212 -16.547 -21.190  0.00  0.00    -0.138 S 
ATOM      2  O   UNL     1      33.857 -17.305 -25.856  0.00  0.00    -0.253 OA
ATOM      3  N   UNL     1      34.988 -17.527 -23.817  0.00  0.00    -0.288 N 
ATOM      4  N   UNL     1      34.092 -15.530 -24.344  0.00  0.00    -0.288 N 
ATOM      5  C   UNL     1      35.365 -16.667 -22.711  0.00  0.00    +0.102 C 
ATOM      6  C   UNL     1      34.682 -15.320 -23.036  0.00  0.00    +0.103 C 
ATOM      7  C   UNL     1      34.909 -17.164 -21.336  0.00  0.00    +0.067 C 
ATOM      8  C   UNL     1      33.619 -14.981 -21.994  0.00  0.00    +0.079 C 
ATOM      9  C   UNL     1      34.260 -16.844 -24.798  0.00  0.00    +0.301 C 
ATOM     10  H   UNL     1      35.218 -18.482 -23.870  0.00  0.00    +0.151 HD
ATOM     11  H   UNL     1      33.625 -14.830 -24.856  0.00  0.00    +0.151 HD
ENDROOT
BRANCH   7  12
ATOM     12  C   UNL     1      34.992 -18.665 -21.118  0.00  0.00    +0.013 C 
BRANCH  12  13
ATOM     13  C   UNL     1      33.673 -19.397 -21.377  0.00  0.00    +0.001 C 
BRANCH  13  14
ATOM     14  C   UNL     1      33.147 -20.249 -20.219  0.00  0.00    +0.012 C 
BRANCH  14  15
ATOM     15  C   UNL     1      34.168 -21.258 -19.695  0.00  0.00    +0.109 C 
BRANCH  15  17
ATOM     16  O   UNL     1      32.563 -22.420 -18.280  0.00  0.00    -0.250 OA
ATOM     17  C   UNL     1      33.501 -22.459 -19.064  0.00  0.00    +0.314 C 
BRANCH  17  18
ATOM     18  O   UNL     1      34.080 -23.619 -19.471  0.00  0.00    -0.480 OA
ATOM     19  H   UNL     1      33.714 -24.100 -20.187  0.00  0.00    +0.295 HD
ENDBRANCH  17  18
ENDBRANCH  15  17
ENDBRANCH  14  15
ENDBRANCH  13  14
ENDBRANCH  12  13
ENDBRANCH   7  12
TORSDOF 6
ENDMDL
MODEL 5
REMARK VINA RESULT:      -7.1      2.706      3.084
REMARK  Name = 171548
REMARK  6 active torsions:
REMARK  status: ('A' for Active; 'I' for Inactive)
REMARK    1  A    between atoms: C_7  and  C_12
REMARK    2  A    between atoms: C_12  and  C_13
REMARK    3  A    between atoms: C_13  and  C_14
REMARK    4  A    between atoms: C_14  and  C_15
REMARK    5  A    between atoms: C_15  and  C_17
REMARK    6  A    between atoms: C_17  and  O_18
REMARK                            x       y       z     vdW  Elec       q    Type
REMARK                         _______ _______ _______ _____ _____    ______ ____
ROOT
ATOM      1  S   UNL     1      36.660 -23.817 -12.949  0.00  0.00    -0.138 S 
ATOM      2  O   UNL     1      40.986 -25.003 -14.574  0.00  0.00    -0.253 OA
ATOM      3  N   UNL     1      38.766 -24.835 -15.303  0.00  0.00    -0.288 N 
ATOM      4  N   UNL     1      39.209 -26.051 -13.461  0.00  0.00    -0.288 N 
ATOM      5  C   UNL     1      37.475 -25.375 -14.916  0.00  0.00    +0.102 C 
ATOM      6  C   UNL     1      37.770 -26.143 -13.607  0.00  0.00    +0.103 C 
ATOM      7  C   UNL     1      36.394 -24.319 -14.668  0.00  0.00    +0.067 C 
ATOM      8  C   UNL     1      37.048 -25.502 -12.425  0.00  0.00    +0.079 C 
ATOM      9  C   UNL     1      39.796 -25.262 -14.457  0.00  0.00    +0.301 C 
ATOM     10  H   UNL     1      38.900 -24.237 -16.072  0.00  0.00    +0.151 HD
ATOM     11  H   UNL     1      39.718 -26.493 -12.742  0.00  0.00    +0.151 HD
ENDROOT
BRANCH   7  12
ATOM     12  C   UNL     1      36.403 -23.134 -15.618  0.00  0.00    +0.013 C 
BRANCH  12  13
ATOM     13  C   UNL     1      35.041 -22.849 -16.257  0.00  0.00    +0.001 C 
BRANCH  13  14
ATOM     14  C   UNL     1      33.914 -23.814 -15.876  0.00  0.00    +0.012 C 
BRANCH  14  15
ATOM     15  C   UNL     1      32.765 -23.140 -15.127  0.00  0.00    +0.109 C 
BRANCH  15  17
ATOM     16  O   UNL     1      32.321 -25.029 -13.656  0.00  0.00    -0.250 OA
ATOM     17  C   UNL     1      32.472 -23.825 -13.812  0.00  0.00    +0.314 C 
BRANCH  17  18
ATOM     18  O   UNL     1      32.385 -22.928 -12.794  0.00  0.00    -0.480 OA
ATOM     19  H   UNL     1      33.156 -22.493 -12.486  0.00  0.00    +0.295 HD
ENDBRANCH  17  18
ENDBRANCH  15  17
ENDBRANCH  14  15
ENDBRANCH  13  14
ENDBRANCH  12  13
ENDBRANCH   7  12
TORSDOF 6
ENDMDL
MODEL 6
REMARK VINA RESULT:      -7.1      7.839     11.149
REMARK  Name = 171548
REMARK  6 active torsions:
REMARK  status: ('A' for Active; 'I' for Inactive)
REMARK    1  A    between atoms: C_7  and  C_12
REMARK    2  A    between atoms: C_12  and  C_13
REMARK    3  A    between atoms: C_13  and  C_14
REMARK    4  A    between atoms: C_14  and  C_15
REMARK    5  A    between atoms: C_15  and  C_17
REMARK    6  A    between atoms: C_17  and  O_18
REMARK                            x       y       z     vdW  Elec       q    Type
REMARK                         _______ _______ _______ _____ _____    ______ ____
ROOT
ATOM      1  S   UNL     1      32.731 -15.590 -21.412  0.00  0.00    -0.138 S 
ATOM      2  O   UNL     1      33.643 -16.649 -25.974  0.00  0.00    -0.253 OA
ATOM      3  N   UNL     1      34.754 -16.331 -23.936  0.00  0.00    -0.288 N 
ATOM      4  N   UNL     1      33.361 -14.723 -24.669  0.00  0.00    -0.288 N 
ATOM      5  C   UNL     1      34.864 -15.286 -22.936  0.00  0.00    +0.102 C 
ATOM      6  C   UNL     1      33.847 -14.219 -23.399  0.00  0.00    +0.103 C 
ATOM      7  C   UNL     1      34.534 -15.735 -21.509  0.00  0.00    +0.067 C 
ATOM      8  C   UNL     1      32.714 -14.070 -22.387  0.00  0.00    +0.079 C 
ATOM      9  C   UNL     1      33.887 -15.982 -24.977  0.00  0.00    +0.301 C 
ATOM     10  H   UNL     1      35.236 -17.188 -23.886  0.00  0.00    +0.151 HD
ATOM     11  H   UNL     1      32.731 -14.235 -25.248  0.00  0.00    +0.151 HD
ENDROOT
BRANCH   7  12
ATOM     12  C   UNL     1      35.017 -17.124 -21.128  0.00  0.00    +0.013 C 
BRANCH  12  13
ATOM     13  C   UNL     1      33.904 -18.175 -21.099  0.00  0.00    +0.001 C 
BRANCH  13  14
ATOM     14  C   UNL     1      34.351 -19.622 -21.324  0.00  0.00    +0.012 C 
BRANCH  14  15
ATOM     15  C   UNL     1      33.931 -20.569 -20.201  0.00  0.00    +0.109 C 
BRANCH  15  17
ATOM     16  O   UNL     1      35.114 -22.429 -19.166  0.00  0.00    -0.250 OA
ATOM     17  C   UNL     1      35.117 -21.284 -19.595  0.00  0.00    +0.314 C 
BRANCH  17  18
ATOM     18  O   UNL     1      36.217 -20.485 -19.571  0.00  0.00    -0.480 OA
ATOM     19  H   UNL     1      36.887 -20.592 -20.217  0.00  0.00    +0.295 HD
ENDBRANCH  17  18
ENDBRANCH  15  17
ENDBRANCH  14  15
ENDBRANCH  13  14
ENDBRANCH  12  13
ENDBRANCH   7  12
TORSDOF 6
ENDMDL
MODEL 7
REMARK VINA RESULT:      -6.9     10.125     11.944
REMARK  Name = 171548
REMARK  6 active torsions:
REMARK  status: ('A' for Active; 'I' for Inactive)
REMARK    1  A    between atoms: C_7  and  C_12
REMARK    2  A    between atoms: C_12  and  C_13
REMARK    3  A    between atoms: C_13  and  C_14
REMARK    4  A    between atoms: C_14  and  C_15
REMARK    5  A    between atoms: C_15  and  C_17
REMARK    6  A    between atoms: C_17  and  O_18
REMARK                            x       y       z     vdW  Elec       q    Type
REMARK                         _______ _______ _______ _____ _____    ______ ____
ROOT
ATOM      1  S   UNL     1      32.652 -15.657 -20.880  0.00  0.00    -0.138 S 
ATOM      2  O   UNL     1      32.993 -14.835 -25.567  0.00  0.00    -0.253 OA
ATOM      3  N   UNL     1      34.348 -15.067 -23.671  0.00  0.00    -0.288 N 
ATOM      4  N   UNL     1      32.654 -13.587 -23.613  0.00  0.00    -0.288 N 
ATOM      5  C   UNL     1      34.466 -14.446 -22.365  0.00  0.00    +0.102 C 
ATOM      6  C   UNL     1      33.255 -13.488 -22.297  0.00  0.00    +0.103 C 
ATOM      7  C   UNL     1      34.421 -15.426 -21.189  0.00  0.00    +0.067 C 
ATOM      8  C   UNL     1      32.279 -13.919 -21.205  0.00  0.00    +0.079 C 
ATOM      9  C   UNL     1      33.293 -14.535 -24.420  0.00  0.00    +0.301 C 
ATOM     10  H   UNL     1      34.943 -15.782 -23.992  0.00  0.00    +0.151 HD
ATOM     11  H   UNL     1      31.882 -13.049 -23.907  0.00  0.00    +0.151 HD
ENDROOT
BRANCH   7  12
ATOM     12  C   UNL     1      35.141 -16.746 -21.405  0.00  0.00    +0.013 C 
BRANCH  12  13
ATOM     13  C   UNL     1      34.201 -17.952 -21.483  0.00  0.00    +0.001 C 
BRANCH  13  14
ATOM     14  C   UNL     1      34.603 -19.045 -22.477  0.00  0.00    +0.012 C 
BRANCH  14  15
ATOM     15  C   UNL     1      35.388 -18.515 -23.677  0.00  0.00    +0.109 C 
BRANCH  15  17
ATOM     16  O   UNL     1      33.563 -19.047 -25.199  0.00  0.00    -0.250 OA
ATOM     17  C   UNL     1      34.504 -18.330 -24.890  0.00  0.00    +0.314 C 
BRANCH  17  18
ATOM     18  O   UNL     1      34.889 -17.251 -25.622  0.00  0.00    -0.480 OA
ATOM     19  H   UNL     1      35.242 -16.496 -25.195  0.00  0.00    +0.295 HD
ENDBRANCH  17  18
ENDBRANCH  15  17
ENDBRANCH  14  15
ENDBRANCH  13  14
ENDBRANCH  12  13
ENDBRANCH   7  12
TORSDOF 6
ENDMDL
MODEL 8
REMARK VINA RESULT:      -6.8      6.381      9.526
REMARK  Name = 171548
REMARK  6 active torsions:
REMARK  status: ('A' for Active; 'I' for Inactive)
REMARK    1  A    between atoms: C_7  and  C_12
REMARK    2  A    between atoms: C_12  and  C_13
REMARK    3  A    between atoms: C_13  and  C_14
REMARK    4  A    between atoms: C_14  and  C_15
REMARK    5  A    between atoms: C_15  and  C_17
REMARK    6  A    between atoms: C_17  and  O_18
REMARK                            x       y       z     vdW  Elec       q    Type
REMARK                         _______ _______ _______ _____ _____    ______ ____
ROOT
ATOM      1  S   UNL     1      33.333 -16.990 -21.093  0.00  0.00    -0.138 S 
ATOM      2  O   UNL     1      34.363 -17.980 -25.645  0.00  0.00    -0.253 OA
ATOM      3  N   UNL     1      34.537 -18.922 -23.507  0.00  0.00    -0.288 N 
ATOM      4  N   UNL     1      35.368 -16.858 -23.849  0.00  0.00    -0.288 N 
ATOM      5  C   UNL     1      35.122 -18.560 -22.229  0.00  0.00    +0.102 C 
ATOM      6  C   UNL     1      35.620 -17.114 -22.444  0.00  0.00    +0.103 C 
ATOM      7  C   UNL     1      34.148 -18.607 -21.049  0.00  0.00    +0.067 C 
ATOM      8  C   UNL     1      34.857 -16.136 -21.554  0.00  0.00    +0.079 C 
ATOM      9  C   UNL     1      34.711 -17.925 -24.473  0.00  0.00    +0.301 C 
ATOM     10  H   UNL     1      34.070 -19.773 -23.674  0.00  0.00    +0.151 HD
ATOM     11  H   UNL     1      35.627 -16.029 -24.312  0.00  0.00    +0.151 HD
ENDROOT
BRANCH   7  12
ATOM     12  C   UNL     1      33.149 -19.751 -21.064  0.00  0.00    +0.013 C 
BRANCH  12  13
ATOM     13  C   UNL     1      33.315 -20.726 -19.896  0.00  0.00    +0.001 C 
BRANCH  13  14
ATOM     14  C   UNL     1      34.561 -21.616 -19.945  0.00  0.00    +0.012 C 
BRANCH  14  15
ATOM     15  C   UNL     1      35.009 -22.111 -18.571  0.00  0.00    +0.109 C 
BRANCH  15  17
ATOM     16  O   UNL     1      37.099 -22.042 -17.323  0.00  0.00    -0.250 OA
ATOM     17  C   UNL     1      36.382 -21.595 -18.208  0.00  0.00    +0.314 C 
BRANCH  17  18
ATOM     18  O   UNL     1      36.739 -20.542 -18.991  0.00  0.00    -0.480 OA
ATOM     19  H   UNL     1      36.690 -20.615 -19.924  0.00  0.00    +0.295 HD
ENDBRANCH  17  18
ENDBRANCH  15  17
ENDBRANCH  14  15
ENDBRANCH  13  14
ENDBRANCH  12  13
ENDBRANCH   7  12
TORSDOF 6
ENDMDL
MODEL 9
REMARK VINA RESULT:      -6.8     10.273     12.785
REMARK  Name = 171548
REMARK  6 active torsions:
REMARK  status: ('A' for Active; 'I' for Inactive)
REMARK    1  A    between atoms: C_7  and  C_12
REMARK    2  A    between atoms: C_12  and  C_13
REMARK    3  A    between atoms: C_13  and  C_14
REMARK    4  A    between atoms: C_14  and  C_15
REMARK    5  A    between atoms: C_15  and  C_17
REMARK    6  A    between atoms: C_17  and  O_18
REMARK                            x       y       z     vdW  Elec       q    Type
REMARK                         _______ _______ _______ _____ _____    ______ ____
ROOT
ATOM      1  S   UNL     1      32.139 -13.131 -22.305  0.00  0.00    -0.138 S 
ATOM      2  O   UNL     1      32.679 -15.378 -26.479  0.00  0.00    -0.253 OA
ATOM      3  N   UNL     1      33.637 -15.280 -24.344  0.00  0.00    -0.288 N 
ATOM      4  N   UNL     1      33.369 -13.366 -25.497  0.00  0.00    -0.288 N 
ATOM      5  C   UNL     1      34.212 -14.264 -23.482  0.00  0.00    +0.102 C 
ATOM      6  C   UNL     1      33.955 -12.942 -24.240  0.00  0.00    +0.103 C 
ATOM      7  C   UNL     1      33.590 -14.192 -22.084  0.00  0.00    +0.067 C 
ATOM      8  C   UNL     1      33.003 -12.040 -23.458  0.00  0.00    +0.079 C 
ATOM      9  C   UNL     1      33.166 -14.749 -25.550  0.00  0.00    +0.301 C 
ATOM     10  H   UNL     1      33.584 -16.233 -24.106  0.00  0.00    +0.151 HD
ATOM     11  H   UNL     1      33.139 -12.750 -26.231  0.00  0.00    +0.151 HD
ENDROOT
BRANCH   7  12
ATOM     12  C   UNL     1      33.232 -15.526 -21.453  0.00  0.00    +0.013 C 
BRANCH  12  13
ATOM     13  C   UNL     1      34.345 -16.111 -20.579  0.00  0.00    +0.001 C 
BRANCH  13  14
ATOM     14  C   UNL     1      35.259 -17.132 -21.262  0.00  0.00    +0.012 C 
BRANCH  14  15
ATOM     15  C   UNL     1      34.498 -18.263 -21.952  0.00  0.00    +0.109 C 
BRANCH  15  17
ATOM     16  O   UNL     1      34.888 -19.568 -23.970  0.00  0.00    -0.250 OA
ATOM     17  C   UNL     1      35.022 -18.525 -23.345  0.00  0.00    +0.314 C 
BRANCH  17  18
ATOM     18  O   UNL     1      35.685 -17.444 -23.837  0.00  0.00    -0.480 OA
ATOM     19  H   UNL     1      36.621 -17.421 -23.820  0.00  0.00    +0.295 HD
ENDBRANCH  17  18
ENDBRANCH  15  17
ENDBRANCH  14  15
ENDBRANCH  13  14
ENDBRANCH  12  13
ENDBRANCH   7  12
TORSDOF 6
ENDMDL
