MODEL 1
REMARK VINA RESULT:      -6.4      0.000      0.000
REMARK  Name = 17753979
REMARK  9 active torsions:
REMARK  status: ('A' for Active; 'I' for Inactive)
REMARK    1  A    between atoms: C_1  and  O_2
REMARK    2  A    between atoms: C_1  and  O_4
REMARK    3  A    between atoms: C_1  and  CA_11
REMARK    4  A    between atoms: O_4  and  P_5
REMARK    5  A    between atoms: P_5  and  O_7
REMARK    6  A    between atoms: P_5  and  O_9
REMARK    7  A    between atoms: CA_11  and  N_12
REMARK    8  A    between atoms: CA_11  and  C_17
REMARK    9  A    between atoms: C_17  and  O_18
REMARK                            x       y       z     vdW  Elec       q    Type
REMARK                         _______ _______ _______ _____ _____    ______ ____
ROOT
ATOM      1  C   UNL     1      38.409 -25.162 -12.990  0.00  0.00    +0.232 C 
ENDROOT
BRANCH   1   2
ATOM      2  O   UNL     1      38.847 -23.972 -12.339  0.00  0.00    -0.361 OA
ATOM      3  H   UNL     1      39.759 -24.088 -12.032  0.00  0.00    +0.213 HD
ENDBRANCH   1   2
BRANCH   1   4
ATOM      4  O   UNL     1      37.048 -25.445 -12.683  0.00  0.00    -0.250 OA
BRANCH   4   5
ATOM      5  P   UNL     1      36.147 -24.381 -11.864  0.00  0.00    +0.475 P 
ATOM      6  O   UNL     1      36.639 -24.093 -10.475  0.00  0.00    -0.227 OA
BRANCH   5   7
ATOM      7  O   UNL     1      36.065 -23.086 -12.830  0.00  0.00    -0.303 OA
ATOM      8  H   UNL     1      35.510 -23.291 -13.598  0.00  0.00    +0.222 HD
ENDBRANCH   5   7
BRANCH   5   9
ATOM      9  O   UNL     1      34.650 -24.992 -11.920  0.00  0.00    -0.303 OA
ATOM     10  H   UNL     1      34.015 -24.321 -11.624  0.00  0.00    +0.222 HD
ENDBRANCH   5   9
ENDBRANCH   4   5
ENDBRANCH   1   4
BRANCH   1  11
ATOM     11  CA  UNL     1      38.611 -25.054 -14.508  0.00  0.00    +0.093 C 
BRANCH  11  12
ATOM     12  N   UNL     1      37.807 -26.050 -15.216  0.00  0.00    +0.392 N 
ATOM     13  H1  UNL     1      36.998 -26.301 -14.647  0.00  0.00    -0.088 HD
ATOM     14  H2  UNL     1      38.372 -26.882 -15.388  0.00  0.00    -0.088 HD
ATOM     15  H3  UNL     1      37.491 -25.663 -16.104  0.00  0.00    -0.088 HD
ENDBRANCH  11  12
BRANCH  11  17
ATOM     16  OXT UNL     1      40.993 -24.751 -14.251  0.00  0.00    -0.252 OA
ATOM     17  C   UNL     1      40.067 -25.227 -14.899  0.00  0.00    +0.298 C 
BRANCH  17  18
ATOM     18  O   UNL     1      40.259 -25.901 -16.060  0.00  0.00    -0.481 OA
ATOM     19  H   UNL     1      40.978 -25.678 -16.617  0.00  0.00    +0.295 HD
ENDBRANCH  17  18
ENDBRANCH  11  17
ENDBRANCH   1  11
TORSDOF 9
ENDMDL
MODEL 2
REMARK VINA RESULT:      -6.3      2.348      4.562
REMARK  Name = 17753979
REMARK  9 active torsions:
REMARK  status: ('A' for Active; 'I' for Inactive)
REMARK    1  A    between atoms: C_1  and  O_2
REMARK    2  A    between atoms: C_1  and  O_4
REMARK    3  A    between atoms: C_1  and  CA_11
REMARK    4  A    between atoms: O_4  and  P_5
REMARK    5  A    between atoms: P_5  and  O_7
REMARK    6  A    between atoms: P_5  and  O_9
REMARK    7  A    between atoms: CA_11  and  N_12
REMARK    8  A    between atoms: CA_11  and  C_17
REMARK    9  A    between atoms: C_17  and  O_18
REMARK                            x       y       z     vdW  Elec       q    Type
REMARK                         _______ _______ _______ _____ _____    ______ ____
ROOT
ATOM      1  C   UNL     1      37.845 -25.351 -14.055  0.00  0.00    +0.232 C 
ENDROOT
BRANCH   1   2
ATOM      2  O   UNL     1      38.230 -24.111 -14.643  0.00  0.00    -0.361 OA
ATOM      3  H   UNL     1      39.107 -24.203 -15.048  0.00  0.00    +0.213 HD
ENDBRANCH   1   2
BRANCH   1   4
ATOM      4  O   UNL     1      38.965 -26.219 -13.907  0.00  0.00    -0.250 OA
BRANCH   4   5
ATOM      5  P   UNL     1      40.420 -25.795 -14.471  0.00  0.00    +0.475 P 
ATOM      6  O   UNL     1      40.909 -24.462 -13.982  0.00  0.00    -0.227 OA
BRANCH   5   7
ATOM      7  O   UNL     1      41.380 -27.042 -14.099  0.00  0.00    -0.303 OA
ATOM      8  H   UNL     1      42.244 -26.709 -13.810  0.00  0.00    +0.222 HD
ENDBRANCH   5   7
BRANCH   5   9
ATOM      9  O   UNL     1      40.274 -25.894 -16.079  0.00  0.00    -0.303 OA
ATOM     10  H   UNL     1      41.155 -25.882 -16.485  0.00  0.00    +0.222 HD
ENDBRANCH   5   9
ENDBRANCH   4   5
ENDBRANCH   1   4
BRANCH   1  11
ATOM     11  CA  UNL     1      37.159 -25.119 -12.702  0.00  0.00    +0.093 C 
BRANCH  11  12
ATOM     12  N   UNL     1      35.703 -25.131 -12.844  0.00  0.00    +0.392 N 
ATOM     13  H1  UNL     1      35.312 -25.886 -12.281  0.00  0.00    -0.088 HD
ATOM     14  H2  UNL     1      35.458 -25.276 -13.823  0.00  0.00    -0.088 HD
ATOM     15  H3  UNL     1      35.323 -24.240 -12.526  0.00  0.00    -0.088 HD
ENDBRANCH  11  12
BRANCH  11  17
ATOM     16  OXT UNL     1      36.797 -22.890 -11.845  0.00  0.00    -0.252 OA
ATOM     17  C   UNL     1      37.582 -23.804 -12.072  0.00  0.00    +0.298 C 
BRANCH  17  18
ATOM     18  O   UNL     1      38.913 -23.700 -11.836  0.00  0.00    -0.481 OA
ATOM     19  H   UNL     1      39.463 -23.249 -12.447  0.00  0.00    +0.295 HD
ENDBRANCH  17  18
ENDBRANCH  11  17
ENDBRANCH   1  11
TORSDOF 9
ENDMDL
MODEL 3
REMARK VINA RESULT:      -6.3      2.097      2.443
REMARK  Name = 17753979
REMARK  9 active torsions:
REMARK  status: ('A' for Active; 'I' for Inactive)
REMARK    1  A    between atoms: C_1  and  O_2
REMARK    2  A    between atoms: C_1  and  O_4
REMARK    3  A    between atoms: C_1  and  CA_11
REMARK    4  A    between atoms: O_4  and  P_5
REMARK    5  A    between atoms: P_5  and  O_7
REMARK    6  A    between atoms: P_5  and  O_9
REMARK    7  A    between atoms: CA_11  and  N_12
REMARK    8  A    between atoms: CA_11  and  C_17
REMARK    9  A    between atoms: C_17  and  O_18
REMARK                            x       y       z     vdW  Elec       q    Type
REMARK                         _______ _______ _______ _____ _____    ______ ____
ROOT
ATOM      1  C   UNL     1      37.443 -24.713 -13.698  0.00  0.00    +0.232 C 
ENDROOT
BRANCH   1   2
ATOM      2  O   UNL     1      37.507 -23.290 -13.750  0.00  0.00    -0.361 OA
ATOM      3  H   UNL     1      37.814 -22.948 -12.896  0.00  0.00    +0.213 HD
ENDBRANCH   1   2
BRANCH   1   4
ATOM      4  O   UNL     1      36.833 -25.156 -12.490  0.00  0.00    -0.250 OA
BRANCH   4   5
ATOM      5  P   UNL     1      36.174 -24.097 -11.460  0.00  0.00    +0.475 P 
ATOM      6  O   UNL     1      37.157 -23.149 -10.835  0.00  0.00    -0.227 OA
BRANCH   5   7
ATOM      7  O   UNL     1      34.995 -23.384 -12.306  0.00  0.00    -0.303 OA
ATOM      8  H   UNL     1      34.791 -23.917 -13.089  0.00  0.00    +0.222 HD
ENDBRANCH   5   7
BRANCH   5   9
ATOM      9  O   UNL     1      35.375 -25.015 -10.394  0.00  0.00    -0.303 OA
ATOM     10  H   UNL     1      34.685 -25.518 -10.853  0.00  0.00    +0.222 HD
ENDBRANCH   5   9
ENDBRANCH   4   5
ENDBRANCH   1   4
BRANCH   1  11
ATOM     11  CA  UNL     1      36.693 -25.266 -14.917  0.00  0.00    +0.093 C 
BRANCH  11  12
ATOM     12  N   UNL     1      35.250 -25.295 -14.677  0.00  0.00    +0.392 N 
ATOM     13  H1  UNL     1      35.003 -24.565 -14.008  0.00  0.00    -0.088 HD
ATOM     14  H2  UNL     1      34.986 -26.205 -14.300  0.00  0.00    -0.088 HD
ATOM     15  H3  UNL     1      34.756 -25.133 -15.553  0.00  0.00    -0.088 HD
ENDBRANCH  11  12
BRANCH  11  17
ATOM     16  OXT UNL     1      36.667 -27.315 -16.196  0.00  0.00    -0.252 OA
ATOM     17  C   UNL     1      37.160 -26.664 -15.281  0.00  0.00    +0.298 C 
BRANCH  17  18
ATOM     18  O   UNL     1      38.128 -27.159 -14.471  0.00  0.00    -0.481 OA
ATOM     19  H   UNL     1      39.006 -26.839 -14.542  0.00  0.00    +0.295 HD
ENDBRANCH  17  18
ENDBRANCH  11  17
ENDBRANCH   1  11
TORSDOF 9
ENDMDL
MODEL 4
REMARK VINA RESULT:      -6.3      3.059      4.416
REMARK  Name = 17753979
REMARK  9 active torsions:
REMARK  status: ('A' for Active; 'I' for Inactive)
REMARK    1  A    between atoms: C_1  and  O_2
REMARK    2  A    between atoms: C_1  and  O_4
REMARK    3  A    between atoms: C_1  and  CA_11
REMARK    4  A    between atoms: O_4  and  P_5
REMARK    5  A    between atoms: P_5  and  O_7
REMARK    6  A    between atoms: P_5  and  O_9
REMARK    7  A    between atoms: CA_11  and  N_12
REMARK    8  A    between atoms: CA_11  and  C_17
REMARK    9  A    between atoms: C_17  and  O_18
REMARK                            x       y       z     vdW  Elec       q    Type
REMARK                         _______ _______ _______ _____ _____    ______ ____
ROOT
ATOM      1  C   UNL     1      37.705 -26.086 -14.422  0.00  0.00    +0.232 C 
ENDROOT
BRANCH   1   2
ATOM      2  O   UNL     1      37.585 -26.343 -15.819  0.00  0.00    -0.361 OA
ATOM      3  H   UNL     1      37.015 -25.671 -16.224  0.00  0.00    +0.213 HD
ENDBRANCH   1   2
BRANCH   1   4
ATOM      4  O   UNL     1      38.949 -26.560 -13.917  0.00  0.00    -0.250 OA
BRANCH   4   5
ATOM      5  P   UNL     1      40.344 -25.909 -14.412  0.00  0.00    +0.475 P 
ATOM      6  O   UNL     1      40.640 -24.559 -13.826  0.00  0.00    -0.227 OA
BRANCH   5   7
ATOM      7  O   UNL     1      41.457 -27.039 -14.092  0.00  0.00    -0.303 OA
ATOM      8  H   UNL     1      41.741 -27.456 -14.920  0.00  0.00    +0.222 HD
ENDBRANCH   5   7
BRANCH   5   9
ATOM      9  O   UNL     1      40.245 -25.920 -16.026  0.00  0.00    -0.303 OA
ATOM     10  H   UNL     1      41.138 -25.915 -16.406  0.00  0.00    +0.222 HD
ENDBRANCH   5   9
ENDBRANCH   4   5
ENDBRANCH   1   4
BRANCH   1  11
ATOM     11  CA  UNL     1      37.538 -24.588 -14.131  0.00  0.00    +0.093 C 
BRANCH  11  12
ATOM     12  N   UNL     1      36.382 -24.347 -13.268  0.00  0.00    +0.392 N 
ATOM     13  H1  UNL     1      35.534 -24.320 -13.835  0.00  0.00    -0.088 HD
ATOM     14  H2  UNL     1      36.497 -23.455 -12.787  0.00  0.00    -0.088 HD
ATOM     15  H3  UNL     1      36.307 -25.097 -12.582  0.00  0.00    -0.088 HD
ENDBRANCH  11  12
BRANCH  11  17
ATOM     16  OXT UNL     1      36.296 -23.597 -15.950  0.00  0.00    -0.252 OA
ATOM     17  C   UNL     1      37.379 -23.779 -15.406  0.00  0.00    +0.298 C 
BRANCH  17  18
ATOM     18  O   UNL     1      38.545 -23.325 -15.929  0.00  0.00    -0.481 OA
ATOM     19  H   UNL     1      39.110 -22.782 -15.413  0.00  0.00    +0.295 HD
ENDBRANCH  17  18
ENDBRANCH  11  17
ENDBRANCH   1  11
TORSDOF 9
ENDMDL
MODEL 5
REMARK VINA RESULT:      -6.2      2.200      4.634
REMARK  Name = 17753979
REMARK  9 active torsions:
REMARK  status: ('A' for Active; 'I' for Inactive)
REMARK    1  A    between atoms: C_1  and  O_2
REMARK    2  A    between atoms: C_1  and  O_4
REMARK    3  A    between atoms: C_1  and  CA_11
REMARK    4  A    between atoms: O_4  and  P_5
REMARK    5  A    between atoms: P_5  and  O_7
REMARK    6  A    between atoms: P_5  and  O_9
REMARK    7  A    between atoms: CA_11  and  N_12
REMARK    8  A    between atoms: CA_11  and  C_17
REMARK    9  A    between atoms: C_17  and  O_18
REMARK                            x       y       z     vdW  Elec       q    Type
REMARK                         _______ _______ _______ _____ _____    ______ ____
ROOT
ATOM      1  C   UNL     1      37.813 -24.089 -12.619  0.00  0.00    +0.232 C 
ENDROOT
BRANCH   1   2
ATOM      2  O   UNL     1      37.905 -23.224 -11.490  0.00  0.00    -0.361 OA
ATOM      3  H   UNL     1      37.023 -23.100 -11.105  0.00  0.00    +0.213 HD
ENDBRANCH   1   2
BRANCH   1   4
ATOM      4  O   UNL     1      39.046 -24.763 -12.850  0.00  0.00    -0.250 OA
BRANCH   4   5
ATOM      5  P   UNL     1      39.519 -25.129 -14.352  0.00  0.00    +0.475 P 
ATOM      6  O   UNL     1      40.996 -24.990 -14.586  0.00  0.00    -0.227 OA
BRANCH   5   7
ATOM      7  O   UNL     1      38.934 -26.614 -14.614  0.00  0.00    -0.303 OA
ATOM      8  H   UNL     1      38.880 -26.776 -15.568  0.00  0.00    +0.222 HD
ENDBRANCH   5   7
BRANCH   5   9
ATOM      9  O   UNL     1      38.610 -24.189 -15.303  0.00  0.00    -0.303 OA
ATOM     10  H   UNL     1      38.966 -23.287 -15.302  0.00  0.00    +0.222 HD
ENDBRANCH   5   9
ENDBRANCH   4   5
ENDBRANCH   1   4
BRANCH   1  11
ATOM     11  CA  UNL     1      36.670 -25.097 -12.438  0.00  0.00    +0.093 C 
BRANCH  11  12
ATOM     12  N   UNL     1      36.062 -25.437 -13.724  0.00  0.00    +0.392 N 
ATOM     13  H1  UNL     1      36.691 -26.048 -14.246  0.00  0.00    -0.088 HD
ATOM     14  H2  UNL     1      35.896 -24.584 -14.258  0.00  0.00    -0.088 HD
ATOM     15  H3  UNL     1      35.177 -25.917 -13.565  0.00  0.00    -0.088 HD
ENDBRANCH  11  12
BRANCH  11  17
ATOM     16  OXT UNL     1      35.399 -25.024 -10.385  0.00  0.00    -0.252 OA
ATOM     17  C   UNL     1      35.593 -24.569 -11.507  0.00  0.00    +0.298 C 
BRANCH  17  18
ATOM     18  O   UNL     1      34.821 -23.592 -12.043  0.00  0.00    -0.481 OA
ATOM     19  H   UNL     1      33.953 -23.789 -12.336  0.00  0.00    +0.295 HD
ENDBRANCH  17  18
ENDBRANCH  11  17
ENDBRANCH   1  11
TORSDOF 9
ENDMDL
MODEL 6
REMARK VINA RESULT:      -6.2      2.491      4.925
REMARK  Name = 17753979
REMARK  9 active torsions:
REMARK  status: ('A' for Active; 'I' for Inactive)
REMARK    1  A    between atoms: C_1  and  O_2
REMARK    2  A    between atoms: C_1  and  O_4
REMARK    3  A    between atoms: C_1  and  CA_11
REMARK    4  A    between atoms: O_4  and  P_5
REMARK    5  A    between atoms: P_5  and  O_7
REMARK    6  A    between atoms: P_5  and  O_9
REMARK    7  A    between atoms: CA_11  and  N_12
REMARK    8  A    between atoms: CA_11  and  C_17
REMARK    9  A    between atoms: C_17  and  O_18
REMARK                            x       y       z     vdW  Elec       q    Type
REMARK                         _______ _______ _______ _____ _____    ______ ____
ROOT
ATOM      1  C   UNL     1      37.619 -25.446 -12.438  0.00  0.00    +0.232 C 
ENDROOT
BRANCH   1   2
ATOM      2  O   UNL     1      36.901 -26.240 -13.379  0.00  0.00    -0.361 OA
ATOM      3  H   UNL     1      37.490 -26.914 -13.751  0.00  0.00    +0.213 HD
ENDBRANCH   1   2
BRANCH   1   4
ATOM      4  O   UNL     1      38.903 -25.090 -12.941  0.00  0.00    -0.250 OA
BRANCH   4   5
ATOM      5  P   UNL     1      39.353 -25.515 -14.435  0.00  0.00    +0.475 P 
ATOM      6  O   UNL     1      39.212 -26.981 -14.729  0.00  0.00    -0.227 OA
BRANCH   5   7
ATOM      7  O   UNL     1      38.498 -24.548 -15.409  0.00  0.00    -0.303 OA
ATOM      8  H   UNL     1      38.749 -23.625 -15.250  0.00  0.00    +0.222 HD
ENDBRANCH   5   7
BRANCH   5   9
ATOM      9  O   UNL     1      40.864 -24.956 -14.575  0.00  0.00    -0.303 OA
ATOM     10  H   UNL     1      40.847 -24.076 -14.983  0.00  0.00    +0.222 HD
ENDBRANCH   5   9
ENDBRANCH   4   5
ENDBRANCH   1   4
BRANCH   1  11
ATOM     11  CA  UNL     1      36.818 -24.192 -12.062  0.00  0.00    +0.093 C 
BRANCH  11  12
ATOM     12  N   UNL     1      37.639 -23.254 -11.298  0.00  0.00    +0.392 N 
ATOM     13  H1  UNL     1      37.062 -22.790 -10.596  0.00  0.00    -0.088 HD
ATOM     14  H2  UNL     1      38.035 -22.557 -11.927  0.00  0.00    -0.088 HD
ATOM     15  H3  UNL     1      38.392 -23.762 -10.835  0.00  0.00    -0.088 HD
ENDBRANCH  11  12
BRANCH  11  17
ATOM     16  OXT UNL     1      35.543 -24.474 -10.031  0.00  0.00    -0.252 OA
ATOM     17  C   UNL     1      35.579 -24.534 -11.255  0.00  0.00    +0.298 C 
BRANCH  17  18
ATOM     18  O   UNL     1      34.531 -24.973 -11.996  0.00  0.00    -0.481 OA
ATOM     19  H   UNL     1      34.056 -25.736 -11.730  0.00  0.00    +0.295 HD
ENDBRANCH  17  18
ENDBRANCH  11  17
ENDBRANCH   1  11
TORSDOF 9
ENDMDL
MODEL 7
REMARK VINA RESULT:      -6.1      1.648      2.497
REMARK  Name = 17753979
REMARK  9 active torsions:
REMARK  status: ('A' for Active; 'I' for Inactive)
REMARK    1  A    between atoms: C_1  and  O_2
REMARK    2  A    between atoms: C_1  and  O_4
REMARK    3  A    between atoms: C_1  and  CA_11
REMARK    4  A    between atoms: O_4  and  P_5
REMARK    5  A    between atoms: P_5  and  O_7
REMARK    6  A    between atoms: P_5  and  O_9
REMARK    7  A    between atoms: CA_11  and  N_12
REMARK    8  A    between atoms: CA_11  and  C_17
REMARK    9  A    between atoms: C_17  and  O_18
REMARK                            x       y       z     vdW  Elec       q    Type
REMARK                         _______ _______ _______ _____ _____    ______ ____
ROOT
ATOM      1  C   UNL     1      36.151 -25.040 -13.546  0.00  0.00    +0.232 C 
ENDROOT
BRANCH   1   2
ATOM      2  O   UNL     1      36.493 -25.984 -12.534  0.00  0.00    -0.361 OA
ATOM      3  H   UNL     1      36.763 -25.513 -11.730  0.00  0.00    +0.213 HD
ENDBRANCH   1   2
BRANCH   1   4
ATOM      4  O   UNL     1      36.627 -23.739 -13.217  0.00  0.00    -0.250 OA
BRANCH   4   5
ATOM      5  P   UNL     1      37.528 -23.498 -11.895  0.00  0.00    +0.475 P 
ATOM      6  O   UNL     1      36.881 -23.946 -10.616  0.00  0.00    -0.227 OA
BRANCH   5   7
ATOM      7  O   UNL     1      38.937 -24.219 -12.225  0.00  0.00    -0.303 OA
ATOM      8  H   UNL     1      39.050 -24.284 -13.185  0.00  0.00    +0.222 HD
ENDBRANCH   5   7
BRANCH   5   9
ATOM      9  O   UNL     1      37.889 -21.922 -11.935  0.00  0.00    -0.303 OA
ATOM     10  H   UNL     1      38.473 -21.742 -12.688  0.00  0.00    +0.222 HD
ENDBRANCH   5   9
ENDBRANCH   4   5
ENDBRANCH   1   4
BRANCH   1  11
ATOM     11  CA  UNL     1      36.697 -25.486 -14.909  0.00  0.00    +0.093 C 
BRANCH  11  12
ATOM     12  N   UNL     1      36.144 -26.784 -15.296  0.00  0.00    +0.392 N 
ATOM     13  H1  UNL     1      35.275 -26.948 -14.787  0.00  0.00    -0.088 HD
ATOM     14  H2  UNL     1      36.813 -27.520 -15.070  0.00  0.00    -0.088 HD
ATOM     15  H3  UNL     1      35.957 -26.790 -16.298  0.00  0.00    -0.088 HD
ENDBRANCH  11  12
BRANCH  11  17
ATOM     16  OXT UNL     1      38.821 -26.577 -14.548  0.00  0.00    -0.252 OA
ATOM     17  C   UNL     1      38.212 -25.577 -14.910  0.00  0.00    +0.298 C 
BRANCH  17  18
ATOM     18  O   UNL     1      38.840 -24.435 -15.285  0.00  0.00    -0.481 OA
ATOM     19  H   UNL     1      39.490 -24.053 -14.728  0.00  0.00    +0.295 HD
ENDBRANCH  17  18
ENDBRANCH  11  17
ENDBRANCH   1  11
TORSDOF 9
ENDMDL
MODEL 8
REMARK VINA RESULT:      -6.1      1.857      2.385
REMARK  Name = 17753979
REMARK  9 active torsions:
REMARK  status: ('A' for Active; 'I' for Inactive)
REMARK    1  A    between atoms: C_1  and  O_2
REMARK    2  A    between atoms: C_1  and  O_4
REMARK    3  A    between atoms: C_1  and  CA_11
REMARK    4  A    between atoms: O_4  and  P_5
REMARK    5  A    between atoms: P_5  and  O_7
REMARK    6  A    between atoms: P_5  and  O_9
REMARK    7  A    between atoms: CA_11  and  N_12
REMARK    8  A    between atoms: CA_11  and  C_17
REMARK    9  A    between atoms: C_17  and  O_18
REMARK                            x       y       z     vdW  Elec       q    Type
REMARK                         _______ _______ _______ _____ _____    ______ ____
ROOT
ATOM      1  C   UNL     1      38.101 -24.923 -13.219  0.00  0.00    +0.232 C 
ENDROOT
BRANCH   1   2
ATOM      2  O   UNL     1      38.069 -23.546 -13.588  0.00  0.00    -0.361 OA
ATOM      3  H   UNL     1      37.408 -23.083 -13.050  0.00  0.00    +0.213 HD
ENDBRANCH   1   2
BRANCH   1   4
ATOM      4  O   UNL     1      36.978 -25.265 -12.414  0.00  0.00    -0.250 OA
BRANCH   4   5
ATOM      5  P   UNL     1      36.211 -24.140 -11.543  0.00  0.00    +0.475 P 
ATOM      6  O   UNL     1      37.121 -23.160 -10.859  0.00  0.00    -0.227 OA
BRANCH   5   7
ATOM      7  O   UNL     1      35.159 -23.472 -12.573  0.00  0.00    -0.303 OA
ATOM      8  H   UNL     1      34.392 -23.140 -12.082  0.00  0.00    +0.222 HD
ENDBRANCH   5   7
BRANCH   5   9
ATOM      9  O   UNL     1      35.271 -24.982 -10.532  0.00  0.00    -0.303 OA
ATOM     10  H   UNL     1      35.808 -25.325  -9.800  0.00  0.00    +0.222 HD
ENDBRANCH   5   9
ENDBRANCH   4   5
ENDBRANCH   1   4
BRANCH   1  11
ATOM     11  CA  UNL     1      38.166 -25.816 -14.466  0.00  0.00    +0.093 C 
BRANCH  11  12
ATOM     12  N   UNL     1      39.175 -25.331 -15.407  0.00  0.00    +0.392 N 
ATOM     13  H1  UNL     1      39.595 -24.475 -15.043  0.00  0.00    -0.088 HD
ATOM     14  H2  UNL     1      38.737 -25.138 -16.307  0.00  0.00    -0.088 HD
ATOM     15  H3  UNL     1      39.898 -26.039 -15.525  0.00  0.00    -0.088 HD
ENDBRANCH  11  12
BRANCH  11  17
ATOM     16  OXT UNL     1      36.390 -26.926 -15.669  0.00  0.00    -0.252 OA
ATOM     17  C   UNL     1      36.826 -25.892 -15.177  0.00  0.00    +0.298 C 
BRANCH  17  18
ATOM     18  O   UNL     1      36.178 -24.705 -15.276  0.00  0.00    -0.481 OA
ATOM     19  H   UNL     1      36.667 -23.910 -15.358  0.00  0.00    +0.295 HD
ENDBRANCH  17  18
ENDBRANCH  11  17
ENDBRANCH   1  11
TORSDOF 9
ENDMDL
MODEL 9
REMARK VINA RESULT:      -6.1      2.492      4.615
REMARK  Name = 17753979
REMARK  9 active torsions:
REMARK  status: ('A' for Active; 'I' for Inactive)
REMARK    1  A    between atoms: C_1  and  O_2
REMARK    2  A    between atoms: C_1  and  O_4
REMARK    3  A    between atoms: C_1  and  CA_11
REMARK    4  A    between atoms: O_4  and  P_5
REMARK    5  A    between atoms: P_5  and  O_7
REMARK    6  A    between atoms: P_5  and  O_9
REMARK    7  A    between atoms: CA_11  and  N_12
REMARK    8  A    between atoms: CA_11  and  C_17
REMARK    9  A    between atoms: C_17  and  O_18
REMARK                            x       y       z     vdW  Elec       q    Type
REMARK                         _______ _______ _______ _____ _____    ______ ____
ROOT
ATOM      1  C   UNL     1      36.865 -25.544 -12.742  0.00  0.00    +0.232 C 
ENDROOT
BRANCH   1   2
ATOM      2  O   UNL     1      36.349 -26.073 -13.961  0.00  0.00    -0.361 OA
ATOM      3  H   UNL     1      36.864 -25.728 -14.707  0.00  0.00    +0.213 HD
ENDBRANCH   1   2
BRANCH   1   4
ATOM      4  O   UNL     1      38.236 -25.186 -12.877  0.00  0.00    -0.250 OA
BRANCH   4   5
ATOM      5  P   UNL     1      39.021 -25.431 -14.270  0.00  0.00    +0.475 P 
ATOM      6  O   UNL     1      39.020 -26.858 -14.738  0.00  0.00    -0.227 OA
BRANCH   5   7
ATOM      7  O   UNL     1      38.354 -24.383 -15.304  0.00  0.00    -0.303 OA
ATOM      8  H   UNL     1      37.553 -24.774 -15.688  0.00  0.00    +0.222 HD
ENDBRANCH   5   7
BRANCH   5   9
ATOM      9  O   UNL     1      40.498 -24.824 -14.013  0.00  0.00    -0.303 OA
ATOM     10  H   UNL     1      40.780 -25.029 -13.108  0.00  0.00    +0.222 HD
ENDBRANCH   5   9
ENDBRANCH   4   5
ENDBRANCH   1   4
BRANCH   1  11
ATOM     11  CA  UNL     1      36.034 -24.338 -12.281  0.00  0.00    +0.093 C 
BRANCH  11  12
ATOM     12  N   UNL     1      35.987 -23.307 -13.317  0.00  0.00    +0.392 N 
ATOM     13  H1  UNL     1      36.879 -23.281 -13.812  0.00  0.00    -0.088 HD
ATOM     14  H2  UNL     1      35.810 -22.400 -12.887  0.00  0.00    -0.088 HD
ATOM     15  H3  UNL     1      35.240 -23.522 -13.977  0.00  0.00    -0.088 HD
ENDBRANCH  11  12
BRANCH  11  17
ATOM     16  OXT UNL     1      36.206 -24.065  -9.887  0.00  0.00    -0.252 OA
ATOM     17  C   UNL     1      36.584 -23.729 -11.004  0.00  0.00    +0.298 C 
BRANCH  17  18
ATOM     18  O   UNL     1      37.485 -22.735 -11.202  0.00  0.00    -0.481 OA
ATOM     19  H   UNL     1      37.738 -22.498 -12.073  0.00  0.00    +0.295 HD
ENDBRANCH  17  18
ENDBRANCH  11  17
ENDBRANCH   1  11
TORSDOF 9
ENDMDL
