MODEL 1
REMARK VINA RESULT:      -8.0      0.000      0.000
REMARK  Name = 444764
REMARK  5 active torsions:
REMARK  status: ('A' for Active; 'I' for Inactive)
REMARK    1  A    between atoms: C_1  and  N_8
REMARK    2  A    between atoms: C_2  and  C_16
REMARK    3  A    between atoms: C_9  and  C_12
REMARK    4  A    between atoms: C_12  and  O_13
REMARK    5  A    between atoms: C_16  and  O_17
REMARK                            x       y       z     vdW  Elec       q    Type
REMARK                         _______ _______ _______ _____ _____    ______ ____
ROOT
ATOM      1  C   UNL     1      36.720 -24.353 -14.038  0.00  0.00    +0.057 C 
ATOM      2  C   UNL     1      36.334 -23.938 -12.763  0.00  0.00    +0.089 C 
ATOM      3  C   UNL     1      35.753 -24.651 -14.997  0.00  0.00    +0.015 C 
ATOM      4  C   UNL     1      34.980 -23.819 -12.449  0.00  0.00    +0.008 C 
ATOM      5  C   UNL     1      34.399 -24.533 -14.682  0.00  0.00    +0.001 C 
ATOM      6  C   UNL     1      34.012 -24.117 -13.409  0.00  0.00    +0.000 C 
ENDROOT
BRANCH   1   8
ATOM      7  O   UNL     1      38.410 -26.809 -14.554  0.00  0.00    -0.263 OA
ATOM      8  N   UNL     1      38.070 -24.478 -14.375  0.00  0.00    -0.275 N 
ATOM      9  C   UNL     1      38.788 -25.649 -14.600  0.00  0.00    +0.325 C 
ATOM     10  H   UNL     1      38.575 -23.637 -14.465  0.00  0.00    +0.155 HD
BRANCH   9  12
ATOM     11  O   UNL     1      40.964 -24.676 -14.270  0.00  0.00    -0.240 OA
ATOM     12  C   UNL     1      40.239 -25.377 -14.946  0.00  0.00    +0.393 C 
BRANCH  12  13
ATOM     13  O   UNL     1      40.573 -26.018 -16.077  0.00  0.00    -0.474 OA
ATOM     14  H   UNL     1      40.091 -25.862 -16.864  0.00  0.00    +0.296 HD
ENDBRANCH  12  13
ENDBRANCH   9  12
ENDBRANCH   1   8
BRANCH   2  16
ATOM     15  O   UNL     1      38.118 -24.419 -11.245  0.00  0.00    -0.245 OA
ATOM     16  C   UNL     1      37.318 -23.620 -11.736  0.00  0.00    +0.339 C 
BRANCH  16  17
ATOM     17  O   UNL     1      37.269 -22.314 -11.359  0.00  0.00    -0.477 OA
ATOM     18  H   UNL     1      37.141 -22.092 -10.458  0.00  0.00    +0.295 HD
ENDBRANCH  16  17
ENDBRANCH   2  16
TORSDOF 5
ENDMDL
MODEL 2
REMARK VINA RESULT:      -7.2      2.554      4.383
REMARK  Name = 444764
REMARK  5 active torsions:
REMARK  status: ('A' for Active; 'I' for Inactive)
REMARK    1  A    between atoms: C_1  and  N_8
REMARK    2  A    between atoms: C_2  and  C_16
REMARK    3  A    between atoms: C_9  and  C_12
REMARK    4  A    between atoms: C_12  and  O_13
REMARK    5  A    between atoms: C_16  and  O_17
REMARK                            x       y       z     vdW  Elec       q    Type
REMARK                         _______ _______ _______ _____ _____    ______ ____
ROOT
ATOM      1  C   UNL     1      35.076 -23.182 -14.497  0.00  0.00    +0.057 C 
ATOM      2  C   UNL     1      35.702 -22.880 -15.707  0.00  0.00    +0.089 C 
ATOM      3  C   UNL     1      33.724 -23.522 -14.477  0.00  0.00    +0.015 C 
ATOM      4  C   UNL     1      34.974 -22.918 -16.897  0.00  0.00    +0.008 C 
ATOM      5  C   UNL     1      32.996 -23.559 -15.666  0.00  0.00    +0.001 C 
ATOM      6  C   UNL     1      33.621 -23.258 -16.876  0.00  0.00    +0.000 C 
ENDROOT
BRANCH   1   8
ATOM      7  O   UNL     1      34.734 -24.790 -11.957  0.00  0.00    -0.263 OA
ATOM      8  N   UNL     1      35.785 -23.151 -13.293  0.00  0.00    -0.275 N 
ATOM      9  C   UNL     1      35.572 -23.925 -12.157  0.00  0.00    +0.325 C 
ATOM     10  H   UNL     1      36.526 -22.503 -13.243  0.00  0.00    +0.155 HD
BRANCH   9  12
ATOM     11  O   UNL     1      37.524 -22.891 -11.203  0.00  0.00    -0.240 OA
ATOM     12  C   UNL     1      36.551 -23.600 -11.046  0.00  0.00    +0.393 C 
BRANCH  12  13
ATOM     13  O   UNL     1      36.175 -24.203  -9.907  0.00  0.00    -0.474 OA
ATOM     14  H   UNL     1      36.534 -23.923  -9.088  0.00  0.00    +0.296 HD
ENDBRANCH  12  13
ENDBRANCH   9  12
ENDBRANCH   1   8
BRANCH   2  16
ATOM     15  O   UNL     1      38.041 -23.204 -15.326  0.00  0.00    -0.245 OA
ATOM     16  C   UNL     1      37.113 -22.520 -15.765  0.00  0.00    +0.339 C 
BRANCH  16  17
ATOM     17  O   UNL     1      37.317 -21.319 -16.369  0.00  0.00    -0.477 OA
ATOM     18  H   UNL     1      37.445 -20.549 -15.850  0.00  0.00    +0.295 HD
ENDBRANCH  16  17
ENDBRANCH   2  16
TORSDOF 5
ENDMDL
MODEL 3
REMARK VINA RESULT:      -7.2     12.734     13.997
REMARK  Name = 444764
REMARK  5 active torsions:
REMARK  status: ('A' for Active; 'I' for Inactive)
REMARK    1  A    between atoms: C_1  and  N_8
REMARK    2  A    between atoms: C_2  and  C_16
REMARK    3  A    between atoms: C_9  and  C_12
REMARK    4  A    between atoms: C_12  and  O_13
REMARK    5  A    between atoms: C_16  and  O_17
REMARK                            x       y       z     vdW  Elec       q    Type
REMARK                         _______ _______ _______ _____ _____    ______ ____
ROOT
ATOM      1  C   UNL     1      34.690 -16.611 -22.718  0.00  0.00    +0.057 C 
ATOM      2  C   UNL     1      34.763 -17.572 -23.727  0.00  0.00    +0.089 C 
ATOM      3  C   UNL     1      34.980 -16.961 -21.399  0.00  0.00    +0.015 C 
ATOM      4  C   UNL     1      35.127 -18.882 -23.417  0.00  0.00    +0.008 C 
ATOM      5  C   UNL     1      35.344 -18.271 -21.089  0.00  0.00    +0.001 C 
ATOM      6  C   UNL     1      35.417 -19.232 -22.098  0.00  0.00    +0.000 C 
ENDROOT
BRANCH   1   8
ATOM      7  O   UNL     1      32.275 -14.995 -21.878  0.00  0.00    -0.263 OA
ATOM      8  N   UNL     1      34.329 -15.292 -23.005  0.00  0.00    -0.275 N 
ATOM      9  C   UNL     1      33.194 -14.608 -22.581  0.00  0.00    +0.325 C 
ATOM     10  H   UNL     1      34.952 -14.785 -23.575  0.00  0.00    +0.155 HD
BRANCH   9  12
ATOM     11  O   UNL     1      32.262 -12.403 -22.831  0.00  0.00    -0.240 OA
ATOM     12  C   UNL     1      33.151 -13.184 -23.102  0.00  0.00    +0.393 C 
BRANCH  12  13
ATOM     13  O   UNL     1      34.220 -12.944 -23.879  0.00  0.00    -0.474 OA
ATOM     14  H   UNL     1      34.164 -12.315 -24.571  0.00  0.00    +0.296 HD
ENDBRANCH  12  13
ENDBRANCH   9  12
ENDBRANCH   1   8
BRANCH   2  16
ATOM     15  O   UNL     1      34.965 -16.307 -25.747  0.00  0.00    -0.245 OA
ATOM     16  C   UNL     1      34.466 -17.241 -25.115  0.00  0.00    +0.339 C 
BRANCH  16  17
ATOM     17  O   UNL     1      33.556 -18.089 -25.666  0.00  0.00    -0.477 OA
ATOM     18  H   UNL     1      33.510 -18.185 -26.596  0.00  0.00    +0.295 HD
ENDBRANCH  16  17
ENDBRANCH   2  16
TORSDOF 5
ENDMDL
MODEL 4
REMARK VINA RESULT:      -7.1     10.345     11.213
REMARK  Name = 444764
REMARK  5 active torsions:
REMARK  status: ('A' for Active; 'I' for Inactive)
REMARK    1  A    between atoms: C_1  and  N_8
REMARK    2  A    between atoms: C_2  and  C_16
REMARK    3  A    between atoms: C_9  and  C_12
REMARK    4  A    between atoms: C_12  and  O_13
REMARK    5  A    between atoms: C_16  and  O_17
REMARK                            x       y       z     vdW  Elec       q    Type
REMARK                         _______ _______ _______ _____ _____    ______ ____
ROOT
ATOM      1  C   UNL     1      34.689 -18.528 -22.723  0.00  0.00    +0.057 C 
ATOM      2  C   UNL     1      34.629 -17.147 -22.538  0.00  0.00    +0.089 C 
ATOM      3  C   UNL     1      34.679 -19.061 -24.012  0.00  0.00    +0.015 C 
ATOM      4  C   UNL     1      34.560 -16.298 -23.643  0.00  0.00    +0.008 C 
ATOM      5  C   UNL     1      34.610 -18.212 -25.117  0.00  0.00    +0.001 C 
ATOM      6  C   UNL     1      34.550 -16.831 -24.933  0.00  0.00    +0.000 C 
ENDROOT
BRANCH   1   8
ATOM      7  O   UNL     1      32.504 -19.898 -21.142  0.00  0.00    -0.263 OA
ATOM      8  N   UNL     1      34.759 -19.397 -21.631  0.00  0.00    -0.275 N 
ATOM      9  C   UNL     1      33.705 -19.995 -20.948  0.00  0.00    +0.325 C 
ATOM     10  H   UNL     1      35.664 -19.615 -21.307  0.00  0.00    +0.155 HD
BRANCH   9  12
ATOM     11  O   UNL     1      35.339 -20.928 -19.448  0.00  0.00    -0.240 OA
ATOM     12  C   UNL     1      34.182 -20.880 -19.812  0.00  0.00    +0.393 C 
BRANCH  12  13
ATOM     13  O   UNL     1      33.151 -21.570 -19.298  0.00  0.00    -0.474 OA
ATOM     14  H   UNL     1      32.600 -22.077 -19.861  0.00  0.00    +0.296 HD
ENDBRANCH  12  13
ENDBRANCH   9  12
ENDBRANCH   1   8
BRANCH   2  16
ATOM     15  O   UNL     1      35.413 -16.859 -20.297  0.00  0.00    -0.245 OA
ATOM     16  C   UNL     1      34.636 -16.557 -21.206  0.00  0.00    +0.339 C 
BRANCH  16  17
ATOM     17  O   UNL     1      33.673 -15.608 -21.054  0.00  0.00    -0.477 OA
ATOM     18  H   UNL     1      33.075 -15.659 -20.335  0.00  0.00    +0.295 HD
ENDBRANCH  16  17
ENDBRANCH   2  16
TORSDOF 5
ENDMDL
MODEL 5
REMARK VINA RESULT:      -7.1      9.462     10.450
REMARK  Name = 444764
REMARK  5 active torsions:
REMARK  status: ('A' for Active; 'I' for Inactive)
REMARK    1  A    between atoms: C_1  and  N_8
REMARK    2  A    between atoms: C_2  and  C_16
REMARK    3  A    between atoms: C_9  and  C_12
REMARK    4  A    between atoms: C_12  and  O_13
REMARK    5  A    between atoms: C_16  and  O_17
REMARK                            x       y       z     vdW  Elec       q    Type
REMARK                         _______ _______ _______ _____ _____    ______ ____
ROOT
ATOM      1  C   UNL     1      35.397 -19.541 -20.829  0.00  0.00    +0.057 C 
ATOM      2  C   UNL     1      34.409 -20.360 -20.281  0.00  0.00    +0.089 C 
ATOM      3  C   UNL     1      36.741 -19.793 -20.556  0.00  0.00    +0.015 C 
ATOM      4  C   UNL     1      34.766 -21.430 -19.461  0.00  0.00    +0.008 C 
ATOM      5  C   UNL     1      37.098 -20.863 -19.736  0.00  0.00    +0.001 C 
ATOM      6  C   UNL     1      36.111 -21.682 -19.188  0.00  0.00    +0.000 C 
ENDROOT
BRANCH   1   8
ATOM      7  O   UNL     1      35.233 -16.578 -20.242  0.00  0.00    -0.263 OA
ATOM      8  N   UNL     1      35.063 -18.464 -21.654  0.00  0.00    -0.275 N 
ATOM      9  C   UNL     1      35.007 -17.115 -21.314  0.00  0.00    +0.325 C 
ATOM     10  H   UNL     1      34.841 -18.685 -22.588  0.00  0.00    +0.155 HD
BRANCH   9  12
ATOM     11  O   UNL     1      33.537 -15.664 -22.549  0.00  0.00    -0.240 OA
ATOM     12  C   UNL     1      34.603 -16.243 -22.487  0.00  0.00    +0.393 C 
BRANCH  12  13
ATOM     13  O   UNL     1      35.583 -16.217 -23.404  0.00  0.00    -0.474 OA
ATOM     14  H   UNL     1      36.384 -16.676 -23.247  0.00  0.00    +0.296 HD
ENDBRANCH  12  13
ENDBRANCH   9  12
ENDBRANCH   1   8
BRANCH   2  16
ATOM     15  O   UNL     1      32.532 -19.662 -21.590  0.00  0.00    -0.245 OA
ATOM     16  C   UNL     1      32.995 -20.125 -20.544  0.00  0.00    +0.339 C 
BRANCH  16  17
ATOM     17  O   UNL     1      32.207 -20.477 -19.494  0.00  0.00    -0.477 OA
ATOM     18  H   UNL     1      31.306 -20.691 -19.635  0.00  0.00    +0.295 HD
ENDBRANCH  16  17
ENDBRANCH   2  16
TORSDOF 5
ENDMDL
MODEL 6
REMARK VINA RESULT:      -7.1     10.509     11.284
REMARK  Name = 444764
REMARK  5 active torsions:
REMARK  status: ('A' for Active; 'I' for Inactive)
REMARK    1  A    between atoms: C_1  and  N_8
REMARK    2  A    between atoms: C_2  and  C_16
REMARK    3  A    between atoms: C_9  and  C_12
REMARK    4  A    between atoms: C_12  and  O_13
REMARK    5  A    between atoms: C_16  and  O_17
REMARK                            x       y       z     vdW  Elec       q    Type
REMARK                         _______ _______ _______ _____ _____    ______ ____
ROOT
ATOM      1  C   UNL     1      34.962 -17.925 -22.801  0.00  0.00    +0.057 C 
ATOM      2  C   UNL     1      34.495 -16.651 -22.479  0.00  0.00    +0.089 C 
ATOM      3  C   UNL     1      35.005 -18.336 -24.133  0.00  0.00    +0.015 C 
ATOM      4  C   UNL     1      34.072 -15.787 -23.489  0.00  0.00    +0.008 C 
ATOM      5  C   UNL     1      34.582 -17.472 -25.143  0.00  0.00    +0.001 C 
ATOM      6  C   UNL     1      34.116 -16.198 -24.822  0.00  0.00    +0.000 C 
ENDROOT
BRANCH   1   8
ATOM      7  O   UNL     1      33.451 -20.033 -21.241  0.00  0.00    -0.263 OA
ATOM      8  N   UNL     1      35.390 -18.807 -21.805  0.00  0.00    -0.275 N 
ATOM      9  C   UNL     1      34.635 -19.758 -21.125  0.00  0.00    +0.325 C 
ATOM     10  H   UNL     1      36.341 -18.750 -21.555  0.00  0.00    +0.155 HD
BRANCH   9  12
ATOM     11  O   UNL     1      35.096 -21.581 -19.624  0.00  0.00    -0.240 OA
ATOM     12  C   UNL     1      35.457 -20.529 -20.111  0.00  0.00    +0.393 C 
BRANCH  12  13
ATOM     13  O   UNL     1      36.604 -19.879 -19.855  0.00  0.00    -0.474 OA
ATOM     14  H   UNL     1      36.755 -19.032 -20.223  0.00  0.00    +0.296 HD
ENDBRANCH  12  13
ENDBRANCH   9  12
ENDBRANCH   1   8
BRANCH   2  16
ATOM     15  O   UNL     1      35.263 -16.452 -20.222  0.00  0.00    -0.245 OA
ATOM     16  C   UNL     1      34.435 -16.189 -21.097  0.00  0.00    +0.339 C 
BRANCH  16  17
ATOM     17  O   UNL     1      33.343 -15.415 -20.857  0.00  0.00    -0.477 OA
ATOM     18  H   UNL     1      32.594 -15.782 -20.431  0.00  0.00    +0.295 HD
ENDBRANCH  16  17
ENDBRANCH   2  16
TORSDOF 5
ENDMDL
MODEL 7
REMARK VINA RESULT:      -7.0     14.074     14.918
REMARK  Name = 444764
REMARK  5 active torsions:
REMARK  status: ('A' for Active; 'I' for Inactive)
REMARK    1  A    between atoms: C_1  and  N_8
REMARK    2  A    between atoms: C_2  and  C_16
REMARK    3  A    between atoms: C_9  and  C_12
REMARK    4  A    between atoms: C_12  and  O_13
REMARK    5  A    between atoms: C_16  and  O_17
REMARK                            x       y       z     vdW  Elec       q    Type
REMARK                         _______ _______ _______ _____ _____    ______ ____
ROOT
ATOM      1  C   UNL     1      33.213 -14.791 -23.027  0.00  0.00    +0.057 C 
ATOM      2  C   UNL     1      33.986 -15.732 -22.347  0.00  0.00    +0.089 C 
ATOM      3  C   UNL     1      32.444 -13.872 -22.314  0.00  0.00    +0.015 C 
ATOM      4  C   UNL     1      33.990 -15.753 -20.952  0.00  0.00    +0.008 C 
ATOM      5  C   UNL     1      32.448 -13.894 -20.919  0.00  0.00    +0.001 C 
ATOM      6  C   UNL     1      33.221 -14.833 -20.238  0.00  0.00    +0.000 C 
ENDROOT
BRANCH   1   8
ATOM      7  O   UNL     1      33.668 -12.498 -24.948  0.00  0.00    -0.263 OA
ATOM      8  N   UNL     1      33.193 -14.752 -24.424  0.00  0.00    -0.275 N 
ATOM      9  C   UNL     1      33.413 -13.653 -25.249  0.00  0.00    +0.325 C 
ATOM     10  H   UNL     1      33.001 -15.604 -24.880  0.00  0.00    +0.155 HD
BRANCH   9  12
ATOM     11  O   UNL     1      33.208 -13.175 -27.599  0.00  0.00    -0.240 OA
ATOM     12  C   UNL     1      33.308 -14.007 -26.720  0.00  0.00    +0.393 C 
BRANCH  12  13
ATOM     13  O   UNL     1      33.343 -15.340 -26.879  0.00  0.00    -0.474 OA
ATOM     14  H   UNL     1      33.907 -15.720 -27.523  0.00  0.00    +0.296 HD
ENDBRANCH  12  13
ENDBRANCH   9  12
ENDBRANCH   1   8
BRANCH   2  16
ATOM     15  O   UNL     1      34.645 -17.931 -23.019  0.00  0.00    -0.245 OA
ATOM     16  C   UNL     1      34.800 -16.708 -23.061  0.00  0.00    +0.339 C 
BRANCH  16  17
ATOM     17  O   UNL     1      35.778 -16.123 -23.802  0.00  0.00    -0.477 OA
ATOM     18  H   UNL     1      36.659 -16.435 -23.745  0.00  0.00    +0.295 HD
ENDBRANCH  16  17
ENDBRANCH   2  16
TORSDOF 5
ENDMDL
MODEL 8
REMARK VINA RESULT:      -7.0      2.960      4.913
REMARK  Name = 444764
REMARK  5 active torsions:
REMARK  status: ('A' for Active; 'I' for Inactive)
REMARK    1  A    between atoms: C_1  and  N_8
REMARK    2  A    between atoms: C_2  and  C_16
REMARK    3  A    between atoms: C_9  and  C_12
REMARK    4  A    between atoms: C_12  and  O_13
REMARK    5  A    between atoms: C_16  and  O_17
REMARK                            x       y       z     vdW  Elec       q    Type
REMARK                         _______ _______ _______ _____ _____    ______ ____
ROOT
ATOM      1  C   UNL     1      36.388 -25.031 -13.252  0.00  0.00    +0.057 C 
ATOM      2  C   UNL     1      37.305 -24.480 -12.356  0.00  0.00    +0.089 C 
ATOM      3  C   UNL     1      36.839 -25.782 -14.337  0.00  0.00    +0.015 C 
ATOM      4  C   UNL     1      38.672 -24.683 -12.544  0.00  0.00    +0.008 C 
ATOM      5  C   UNL     1      38.206 -25.984 -14.526  0.00  0.00    +0.001 C 
ATOM      6  C   UNL     1      39.123 -25.435 -13.630  0.00  0.00    +0.000 C 
ENDROOT
BRANCH   1   8
ATOM      7  O   UNL     1      34.424 -23.315 -14.786  0.00  0.00    -0.263 OA
ATOM      8  N   UNL     1      35.014 -24.841 -13.083  0.00  0.00    -0.275 N 
ATOM      9  C   UNL     1      34.166 -24.030 -13.831  0.00  0.00    +0.325 C 
ATOM     10  H   UNL     1      34.594 -25.342 -12.345  0.00  0.00    +0.155 HD
BRANCH   9  12
ATOM     11  O   UNL     1      32.068 -25.104 -13.347  0.00  0.00    -0.240 OA
ATOM     12  C   UNL     1      32.733 -24.088 -13.341  0.00  0.00    +0.393 C 
BRANCH  12  13
ATOM     13  O   UNL     1      32.340 -22.876 -12.916  0.00  0.00    -0.474 OA
ATOM     14  H   UNL     1      32.379 -22.664 -12.005  0.00  0.00    +0.296 HD
ENDBRANCH  12  13
ENDBRANCH   9  12
ENDBRANCH   1   8
BRANCH   2  16
ATOM     15  O   UNL     1      36.170 -24.103 -10.284  0.00  0.00    -0.245 OA
ATOM     16  C   UNL     1      36.869 -23.689 -11.212  0.00  0.00    +0.339 C 
BRANCH  16  17
ATOM     17  O   UNL     1      37.322 -22.408 -11.266  0.00  0.00    -0.477 OA
ATOM     18  H   UNL     1      36.714 -21.695 -11.250  0.00  0.00    +0.295 HD
ENDBRANCH  16  17
ENDBRANCH   2  16
TORSDOF 5
ENDMDL
MODEL 9
REMARK VINA RESULT:      -7.0      2.736      3.552
REMARK  Name = 444764
REMARK  5 active torsions:
REMARK  status: ('A' for Active; 'I' for Inactive)
REMARK    1  A    between atoms: C_1  and  N_8
REMARK    2  A    between atoms: C_2  and  C_16
REMARK    3  A    between atoms: C_9  and  C_12
REMARK    4  A    between atoms: C_12  and  O_13
REMARK    5  A    between atoms: C_16  and  O_17
REMARK                            x       y       z     vdW  Elec       q    Type
REMARK                         _______ _______ _______ _____ _____    ______ ____
ROOT
ATOM      1  C   UNL     1      34.471 -23.764 -15.601  0.00  0.00    +0.057 C 
ATOM      2  C   UNL     1      33.314 -23.864 -14.827  0.00  0.00    +0.089 C 
ATOM      3  C   UNL     1      34.392 -23.323 -16.921  0.00  0.00    +0.015 C 
ATOM      4  C   UNL     1      32.078 -23.522 -15.375  0.00  0.00    +0.008 C 
ATOM      5  C   UNL     1      33.155 -22.982 -17.469  0.00  0.00    +0.001 C 
ATOM      6  C   UNL     1      31.999 -23.081 -16.696  0.00  0.00    +0.000 C 
ENDROOT
BRANCH   1   8
ATOM      7  O   UNL     1      36.005 -26.371 -15.657  0.00  0.00    -0.263 OA
ATOM      8  N   UNL     1      35.721 -24.101 -15.073  0.00  0.00    -0.275 N 
ATOM      9  C   UNL     1      36.371 -25.330 -15.137  0.00  0.00    +0.325 C 
ATOM     10  H   UNL     1      36.200 -23.382 -14.599  0.00  0.00    +0.155 HD
BRANCH   9  12
ATOM     11  O   UNL     1      38.371 -24.292 -14.292  0.00  0.00    -0.240 OA
ATOM     12  C   UNL     1      37.718 -25.305 -14.443  0.00  0.00    +0.393 C 
BRANCH  12  13
ATOM     13  O   UNL     1      38.054 -26.541 -14.039  0.00  0.00    -0.474 OA
ATOM     14  H   UNL     1      37.583 -26.949 -13.339  0.00  0.00    +0.296 HD
ENDBRANCH  12  13
ENDBRANCH   9  12
ENDBRANCH   1   8
BRANCH   2  16
ATOM     15  O   UNL     1      34.191 -23.966 -12.604  0.00  0.00    -0.245 OA
ATOM     16  C   UNL     1      33.361 -24.322 -13.444  0.00  0.00    +0.339 C 
BRANCH  16  17
ATOM     17  O   UNL     1      32.370 -25.208 -13.159  0.00  0.00    -0.477 OA
ATOM     18  H   UNL     1      32.394 -25.695 -12.359  0.00  0.00    +0.295 HD
ENDBRANCH  16  17
ENDBRANCH   2  16
TORSDOF 5
ENDMDL
