MODEL 1
REMARK VINA RESULT:      -9.0      0.000      0.000
REMARK  Name = 447724
REMARK  5 active torsions:
REMARK  status: ('A' for Active; 'I' for Inactive)
REMARK    1  A    between atoms: C_2  and  C_20
REMARK    2  A    between atoms: C_3  and  O_16
REMARK    3  A    between atoms: C_4  and  O_18
REMARK    4  A    between atoms: C_5  and  N_6
REMARK    5  A    between atoms: C_20  and  O_22
REMARK                            x       y       z     vdW  Elec       q    Type
REMARK                         _______ _______ _______ _____ _____    ______ ____
ROOT
ATOM      1  O   UNL     1      34.686 -16.964 -20.962  0.00  0.00    -0.333 OA
ATOM      2  C   UNL     1      34.366 -15.906 -21.895  0.00  0.00    +0.173 C 
ATOM      3  C   UNL     1      34.561 -16.488 -23.291  0.00  0.00    +0.171 C 
ATOM      4  C   UNL     1      34.273 -17.960 -23.071  0.00  0.00    +0.187 C 
ATOM      5  C   UNL     1      34.887 -18.186 -21.698  0.00  0.00    +0.225 C 
ENDROOT
BRANCH   5   6
ATOM      6  N   UNL     1      34.306 -19.306 -20.962  0.00  0.00    -0.247 N 
ATOM      7  N   UNL     1      32.755 -20.701 -20.169  0.00  0.00    -0.244 NA
ATOM      8  N   UNL     1      36.289 -20.272 -19.946  0.00  0.00    -0.228 NA
ATOM      9  N   UNL     1      35.734 -22.223 -18.590  0.00  0.00    -0.247 NA
ATOM     10  C   UNL     1      34.971 -20.215 -20.188  0.00  0.00    +0.151 C 
ATOM     11  C   UNL     1      32.977 -19.640 -20.917  0.00  0.00    +0.223 C 
ATOM     12  C   UNL     1      33.993 -21.071 -19.707  0.00  0.00    +0.122 C 
ATOM     13  C   UNL     1      34.414 -22.106 -18.879  0.00  0.00    +0.076 C 
ATOM     14  C   UNL     1      36.576 -21.312 -19.133  0.00  0.00    +0.252 C 
ATOM     15  C   UNL     1      33.492 -23.108 -18.279  0.00  0.00    +0.053 C 
ENDBRANCH   5   6
BRANCH   3  16
ATOM     16  O   UNL     1      35.926 -16.323 -23.674  0.00  0.00    -0.379 OA
ATOM     17  H   UNL     1      36.377 -15.759 -23.026  0.00  0.00    +0.211 HD
ENDBRANCH   3  16
BRANCH   4  18
ATOM     18  O   UNL     1      34.856 -18.792 -24.053  0.00  0.00    -0.378 OA
ATOM     19  H   UNL     1      35.699 -18.408 -24.342  0.00  0.00    +0.211 HD
ENDBRANCH   4  18
BRANCH   2  20
ATOM     20  C   UNL     1      32.936 -15.453 -21.635  0.00  0.00    +0.140 C 
ATOM     21  C   UNL     1      32.759 -14.923 -20.221  0.00  0.00    +0.034 C 
BRANCH  20  22
ATOM     22  O   UNL     1      32.592 -14.431 -22.565  0.00  0.00    -0.382 OA
ATOM     23  H   UNL     1      32.949 -14.656 -23.439  0.00  0.00    +0.210 HD
ENDBRANCH  20  22
ENDBRANCH   2  20
TORSDOF 5
ENDMDL
MODEL 2
REMARK VINA RESULT:      -8.7      6.255      9.599
REMARK  Name = 447724
REMARK  5 active torsions:
REMARK  status: ('A' for Active; 'I' for Inactive)
REMARK    1  A    between atoms: C_2  and  C_20
REMARK    2  A    between atoms: C_3  and  O_16
REMARK    3  A    between atoms: C_4  and  O_18
REMARK    4  A    between atoms: C_5  and  N_6
REMARK    5  A    between atoms: C_20  and  O_22
REMARK                            x       y       z     vdW  Elec       q    Type
REMARK                         _______ _______ _______ _____ _____    ______ ____
ROOT
ATOM      1  O   UNL     1      37.693 -23.707 -14.353  0.00  0.00    -0.333 OA
ATOM      2  C   UNL     1      38.042 -24.990 -13.782  0.00  0.00    +0.173 C 
ATOM      3  C   UNL     1      36.740 -25.774 -13.654  0.00  0.00    +0.171 C 
ATOM      4  C   UNL     1      35.904 -25.200 -14.781  0.00  0.00    +0.187 C 
ATOM      5  C   UNL     1      36.305 -23.733 -14.737  0.00  0.00    +0.225 C 
ENDROOT
BRANCH   5   6
ATOM      6  N   UNL     1      36.131 -23.030 -16.006  0.00  0.00    -0.247 N 
ATOM      7  N   UNL     1      36.645 -21.813 -17.804  0.00  0.00    -0.244 NA
ATOM      8  N   UNL     1      33.778 -23.443 -16.445  0.00  0.00    -0.228 NA
ATOM      9  N   UNL     1      33.068 -22.403 -18.535  0.00  0.00    -0.247 NA
ATOM     10  C   UNL     1      34.980 -22.924 -16.736  0.00  0.00    +0.151 C 
ATOM     11  C   UNL     1      37.102 -22.344 -16.689  0.00  0.00    +0.223 C 
ATOM     12  C   UNL     1      35.321 -22.168 -17.846  0.00  0.00    +0.122 C 
ATOM     13  C   UNL     1      34.309 -21.911 -18.766  0.00  0.00    +0.076 C 
ATOM     14  C   UNL     1      32.882 -23.127 -17.406  0.00  0.00    +0.252 C 
ATOM     15  C   UNL     1      34.508 -21.114 -20.008  0.00  0.00    +0.053 C 
ENDBRANCH   5   6
BRANCH   3  16
ATOM     16  O   UNL     1      36.133 -25.457 -12.402  0.00  0.00    -0.379 OA
ATOM     17  H   UNL     1      35.181 -25.314 -12.531  0.00  0.00    +0.211 HD
ENDBRANCH   3  16
BRANCH   4  18
ATOM     18  O   UNL     1      34.516 -25.373 -14.584  0.00  0.00    -0.378 OA
ATOM     19  H   UNL     1      34.178 -26.025 -15.218  0.00  0.00    +0.211 HD
ENDBRANCH   4  18
BRANCH   2  20
ATOM     20  C   UNL     1      39.053 -25.663 -14.700  0.00  0.00    +0.140 C 
ATOM     21  C   UNL     1      40.483 -25.413 -14.249  0.00  0.00    +0.034 C 
BRANCH  20  22
ATOM     22  O   UNL     1      38.806 -27.065 -14.719  0.00  0.00    -0.382 OA
ATOM     23  H   UNL     1      38.099 -27.261 -15.355  0.00  0.00    +0.210 HD
ENDBRANCH  20  22
ENDBRANCH   2  20
TORSDOF 5
ENDMDL
MODEL 3
REMARK VINA RESULT:      -8.3      7.852     10.438
REMARK  Name = 447724
REMARK  5 active torsions:
REMARK  status: ('A' for Active; 'I' for Inactive)
REMARK    1  A    between atoms: C_2  and  C_20
REMARK    2  A    between atoms: C_3  and  O_16
REMARK    3  A    between atoms: C_4  and  O_18
REMARK    4  A    between atoms: C_5  and  N_6
REMARK    5  A    between atoms: C_20  and  O_22
REMARK                            x       y       z     vdW  Elec       q    Type
REMARK                         _______ _______ _______ _____ _____    ______ ____
ROOT
ATOM      1  O   UNL     1      37.525 -23.604 -14.067  0.00  0.00    -0.333 OA
ATOM      2  C   UNL     1      38.400 -24.624 -13.530  0.00  0.00    +0.173 C 
ATOM      3  C   UNL     1      37.627 -25.308 -12.407  0.00  0.00    +0.171 C 
ATOM      4  C   UNL     1      36.188 -25.138 -12.855  0.00  0.00    +0.187 C 
ATOM      5  C   UNL     1      36.223 -23.746 -13.465  0.00  0.00    +0.225 C 
ENDROOT
BRANCH   5   6
ATOM      6  N   UNL     1      35.188 -23.509 -14.468  0.00  0.00    -0.247 N 
ATOM      7  N   UNL     1      34.267 -23.050 -16.448  0.00  0.00    -0.244 NA
ATOM      8  N   UNL     1      33.179 -23.786 -13.132  0.00  0.00    -0.228 NA
ATOM      9  N   UNL     1      31.167 -23.459 -14.474  0.00  0.00    -0.247 NA
ATOM     10  C   UNL     1      33.835 -23.535 -14.275  0.00  0.00    +0.151 C 
ATOM     11  C   UNL     1      35.397 -23.212 -15.790  0.00  0.00    +0.223 C 
ATOM     12  C   UNL     1      33.283 -23.250 -15.514  0.00  0.00    +0.122 C 
ATOM     13  C   UNL     1      31.895 -23.216 -15.591  0.00  0.00    +0.076 C 
ATOM     14  C   UNL     1      31.844 -23.724 -13.331  0.00  0.00    +0.252 C 
ATOM     15  C   UNL     1      31.147 -22.923 -16.844  0.00  0.00    +0.053 C 
ENDBRANCH   5   6
BRANCH   3  16
ATOM     16  O   UNL     1      37.836 -24.583 -11.195  0.00  0.00    -0.379 OA
ATOM     17  H   UNL     1      37.651 -23.642 -11.345  0.00  0.00    +0.211 HD
ENDBRANCH   3  16
BRANCH   4  18
ATOM     18  O   UNL     1      35.264 -25.224 -11.790  0.00  0.00    -0.378 OA
ATOM     19  H   UNL     1      34.395 -25.482 -12.136  0.00  0.00    +0.211 HD
ENDBRANCH   4  18
BRANCH   2  20
ATOM     20  C   UNL     1      38.776 -25.575 -14.658  0.00  0.00    +0.140 C 
ATOM     21  C   UNL     1      40.254 -25.489 -15.002  0.00  0.00    +0.034 C 
BRANCH  20  22
ATOM     22  O   UNL     1      38.461 -26.908 -14.269  0.00  0.00    -0.382 OA
ATOM     23  H   UNL     1      37.525 -27.086 -14.449  0.00  0.00    +0.210 HD
ENDBRANCH  20  22
ENDBRANCH   2  20
TORSDOF 5
ENDMDL
MODEL 4
REMARK VINA RESULT:      -8.2      5.003      8.031
REMARK  Name = 447724
REMARK  5 active torsions:
REMARK  status: ('A' for Active; 'I' for Inactive)
REMARK    1  A    between atoms: C_2  and  C_20
REMARK    2  A    between atoms: C_3  and  O_16
REMARK    3  A    between atoms: C_4  and  O_18
REMARK    4  A    between atoms: C_5  and  N_6
REMARK    5  A    between atoms: C_20  and  O_22
REMARK                            x       y       z     vdW  Elec       q    Type
REMARK                         _______ _______ _______ _____ _____    ______ ____
ROOT
ATOM      1  O   UNL     1      34.813 -24.541 -15.835  0.00  0.00    -0.333 OA
ATOM      2  C   UNL     1      35.247 -24.549 -14.455  0.00  0.00    +0.173 C 
ATOM      3  C   UNL     1      36.430 -23.591 -14.369  0.00  0.00    +0.171 C 
ATOM      4  C   UNL     1      36.129 -22.604 -15.480  0.00  0.00    +0.187 C 
ATOM      5  C   UNL     1      35.537 -23.517 -16.543  0.00  0.00    +0.225 C 
ENDROOT
BRANCH   5   6
ATOM      6  N   UNL     1      34.645 -22.839 -17.480  0.00  0.00    -0.247 N 
ATOM      7  N   UNL     1      32.746 -22.210 -18.468  0.00  0.00    -0.244 NA
ATOM      8  N   UNL     1      36.243 -21.612 -18.836  0.00  0.00    -0.228 NA
ATOM      9  N   UNL     1      35.124 -20.313 -20.572  0.00  0.00    -0.247 NA
ATOM     10  C   UNL     1      35.004 -21.995 -18.493  0.00  0.00    +0.151 C 
ATOM     11  C   UNL     1      33.278 -22.937 -17.507  0.00  0.00    +0.223 C 
ATOM     12  C   UNL     1      33.813 -21.615 -19.092  0.00  0.00    +0.122 C 
ATOM     13  C   UNL     1      33.902 -20.742 -20.170  0.00  0.00    +0.076 C 
ATOM     14  C   UNL     1      36.202 -20.769 -19.890  0.00  0.00    +0.252 C 
ATOM     15  C   UNL     1      32.720 -20.240 -20.924  0.00  0.00    +0.053 C 
ENDBRANCH   5   6
BRANCH   3  16
ATOM     16  O   UNL     1      37.626 -24.306 -14.680  0.00  0.00    -0.379 OA
ATOM     17  H   UNL     1      38.279 -23.695 -15.058  0.00  0.00    +0.211 HD
ENDBRANCH   3  16
BRANCH   4  18
ATOM     18  O   UNL     1      37.278 -21.927 -15.946  0.00  0.00    -0.378 OA
ATOM     19  H   UNL     1      37.799 -22.523 -16.507  0.00  0.00    +0.211 HD
ENDBRANCH   4  18
BRANCH   2  20
ATOM     20  C   UNL     1      34.074 -24.124 -13.581  0.00  0.00    +0.140 C 
ATOM     21  C   UNL     1      32.741 -24.526 -14.188  0.00  0.00    +0.034 C 
BRANCH  20  22
ATOM     22  O   UNL     1      34.206 -24.725 -12.297  0.00  0.00    -0.382 OA
ATOM     23  H   UNL     1      33.989 -25.669 -12.358  0.00  0.00    +0.210 HD
ENDBRANCH  20  22
ENDBRANCH   2  20
TORSDOF 5
ENDMDL
MODEL 5
REMARK VINA RESULT:      -8.2      7.416      9.070
REMARK  Name = 447724
REMARK  5 active torsions:
REMARK  status: ('A' for Active; 'I' for Inactive)
REMARK    1  A    between atoms: C_2  and  C_20
REMARK    2  A    between atoms: C_3  and  O_16
REMARK    3  A    between atoms: C_4  and  O_18
REMARK    4  A    between atoms: C_5  and  N_6
REMARK    5  A    between atoms: C_20  and  O_22
REMARK                            x       y       z     vdW  Elec       q    Type
REMARK                         _______ _______ _______ _____ _____    ______ ____
ROOT
ATOM      1  O   UNL     1      31.392 -24.683 -15.476  0.00  0.00    -0.333 OA
ATOM      2  C   UNL     1      30.083 -24.312 -14.982  0.00  0.00    +0.173 C 
ATOM      3  C   UNL     1      30.303 -23.676 -13.614  0.00  0.00    +0.171 C 
ATOM      4  C   UNL     1      31.695 -23.091 -13.749  0.00  0.00    +0.187 C 
ATOM      5  C   UNL     1      32.391 -24.156 -14.582  0.00  0.00    +0.225 C 
ENDROOT
BRANCH   5   6
ATOM      6  N   UNL     1      33.529 -23.660 -15.352  0.00  0.00    -0.247 N 
ATOM      7  N   UNL     1      34.698 -22.905 -17.095  0.00  0.00    -0.244 NA
ATOM      8  N   UNL     1      35.267 -23.655 -13.655  0.00  0.00    -0.228 NA
ATOM      9  N   UNL     1      37.393 -22.871 -14.562  0.00  0.00    -0.247 NA
ATOM     10  C   UNL     1      34.801 -23.452 -14.896  0.00  0.00    +0.151 C 
ATOM     11  C   UNL     1      33.519 -23.318 -16.679  0.00  0.00    +0.223 C 
ATOM     12  C   UNL     1      35.509 -22.983 -15.991  0.00  0.00    +0.122 C 
ATOM     13  C   UNL     1      36.853 -22.689 -15.792  0.00  0.00    +0.076 C 
ATOM     14  C   UNL     1      36.578 -23.336 -13.585  0.00  0.00    +0.252 C 
ATOM     15  C   UNL     1      37.753 -22.179 -16.864  0.00  0.00    +0.053 C 
ENDBRANCH   5   6
BRANCH   3  16
ATOM     16  O   UNL     1      30.312 -24.703 -12.623  0.00  0.00    -0.379 OA
ATOM     17  H   UNL     1      31.230 -24.922 -12.394  0.00  0.00    +0.211 HD
ENDBRANCH   3  16
BRANCH   4  18
ATOM     18  O   UNL     1      32.335 -22.893 -12.505  0.00  0.00    -0.378 OA
ATOM     19  H   UNL     1      33.243 -22.585 -12.653  0.00  0.00    +0.211 HD
ENDBRANCH   4  18
BRANCH   2  20
ATOM     20  C   UNL     1      29.444 -23.360 -15.985  0.00  0.00    +0.140 C 
ATOM     21  C   UNL     1      28.399 -24.057 -16.840  0.00  0.00    +0.034 C 
BRANCH  20  22
ATOM     22  O   UNL     1      28.833 -22.283 -15.282  0.00  0.00    -0.382 OA
ATOM     23  H   UNL     1      27.878 -22.286 -15.452  0.00  0.00    +0.210 HD
ENDBRANCH  20  22
ENDBRANCH   2  20
TORSDOF 5
ENDMDL
MODEL 6
REMARK VINA RESULT:      -8.1      5.600      8.215
REMARK  Name = 447724
REMARK  5 active torsions:
REMARK  status: ('A' for Active; 'I' for Inactive)
REMARK    1  A    between atoms: C_2  and  C_20
REMARK    2  A    between atoms: C_3  and  O_16
REMARK    3  A    between atoms: C_4  and  O_18
REMARK    4  A    between atoms: C_5  and  N_6
REMARK    5  A    between atoms: C_20  and  O_22
REMARK                            x       y       z     vdW  Elec       q    Type
REMARK                         _______ _______ _______ _____ _____    ______ ____
ROOT
ATOM      1  O   UNL     1      34.120 -24.086 -17.274  0.00  0.00    -0.333 OA
ATOM      2  C   UNL     1      33.016 -23.251 -17.696  0.00  0.00    +0.173 C 
ATOM      3  C   UNL     1      32.267 -22.852 -16.429  0.00  0.00    +0.171 C 
ATOM      4  C   UNL     1      33.365 -22.873 -15.384  0.00  0.00    +0.187 C 
ATOM      5  C   UNL     1      34.189 -24.070 -15.835  0.00  0.00    +0.225 C 
ENDROOT
BRANCH   5   6
ATOM      6  N   UNL     1      35.585 -24.026 -15.408  0.00  0.00    -0.247 N 
ATOM      7  N   UNL     1      37.540 -23.175 -14.751  0.00  0.00    -0.244 NA
ATOM      8  N   UNL     1      36.149 -26.388 -15.427  0.00  0.00    -0.228 NA
ATOM      9  N   UNL     1      38.467 -26.755 -14.758  0.00  0.00    -0.247 NA
ATOM     10  C   UNL     1      36.427 -25.090 -15.240  0.00  0.00    +0.151 C 
ATOM     11  C   UNL     1      36.302 -22.898 -15.103  0.00  0.00    +0.223 C 
ATOM     12  C   UNL     1      37.632 -24.541 -14.832  0.00  0.00    +0.122 C 
ATOM     13  C   UNL     1      38.676 -25.427 -14.588  0.00  0.00    +0.076 C 
ATOM     14  C   UNL     1      37.234 -27.147 -15.161  0.00  0.00    +0.252 C 
ATOM     15  C   UNL     1      40.032 -25.001 -14.146  0.00  0.00    +0.053 C 
ENDBRANCH   5   6
BRANCH   3  16
ATOM     16  O   UNL     1      31.303 -23.861 -16.126  0.00  0.00    -0.379 OA
ATOM     17  H   UNL     1      31.170 -23.902 -15.166  0.00  0.00    +0.211 HD
ENDBRANCH   3  16
BRANCH   4  18
ATOM     18  O   UNL     1      32.875 -23.036 -14.069  0.00  0.00    -0.378 OA
ATOM     19  H   UNL     1      33.030 -23.948 -13.776  0.00  0.00    +0.211 HD
ENDBRANCH   4  18
BRANCH   2  20
ATOM     20  C   UNL     1      33.580 -22.057 -18.454  0.00  0.00    +0.140 C 
ATOM     21  C   UNL     1      35.036 -22.264 -18.834  0.00  0.00    +0.034 C 
BRANCH  20  22
ATOM     22  O   UNL     1      32.812 -21.847 -19.635  0.00  0.00    -0.382 OA
ATOM     23  H   UNL     1      32.870 -22.632 -20.202  0.00  0.00    +0.210 HD
ENDBRANCH  20  22
ENDBRANCH   2  20
TORSDOF 5
ENDMDL
MODEL 7
REMARK VINA RESULT:      -8.1      6.758      9.835
REMARK  Name = 447724
REMARK  5 active torsions:
REMARK  status: ('A' for Active; 'I' for Inactive)
REMARK    1  A    between atoms: C_2  and  C_20
REMARK    2  A    between atoms: C_3  and  O_16
REMARK    3  A    between atoms: C_4  and  O_18
REMARK    4  A    between atoms: C_5  and  N_6
REMARK    5  A    between atoms: C_20  and  O_22
REMARK                            x       y       z     vdW  Elec       q    Type
REMARK                         _______ _______ _______ _____ _____    ______ ____
ROOT
ATOM      1  O   UNL     1      37.672 -23.599 -13.978  0.00  0.00    -0.333 OA
ATOM      2  C   UNL     1      38.145 -24.454 -12.910  0.00  0.00    +0.173 C 
ATOM      3  C   UNL     1      37.093 -24.389 -11.808  0.00  0.00    +0.171 C 
ATOM      4  C   UNL     1      35.823 -24.111 -12.588  0.00  0.00    +0.187 C 
ATOM      5  C   UNL     1      36.332 -23.169 -13.668  0.00  0.00    +0.225 C 
ENDROOT
BRANCH   5   6
ATOM      6  N   UNL     1      35.523 -23.163 -14.884  0.00  0.00    -0.247 N 
ATOM      7  N   UNL     1      33.802 -23.565 -16.246  0.00  0.00    -0.244 NA
ATOM      8  N   UNL     1      36.971 -21.935 -16.398  0.00  0.00    -0.228 NA
ATOM      9  N   UNL     1      35.956 -21.702 -18.606  0.00  0.00    -0.247 NA
ATOM     10  C   UNL     1      35.848 -22.600 -16.086  0.00  0.00    +0.151 C 
ATOM     11  C   UNL     1      34.284 -23.732 -15.032  0.00  0.00    +0.223 C 
ATOM     12  C   UNL     1      34.769 -22.859 -16.915  0.00  0.00    +0.122 C 
ATOM     13  C   UNL     1      34.849 -22.382 -18.219  0.00  0.00    +0.076 C 
ATOM     14  C   UNL     1      36.933 -21.524 -17.685  0.00  0.00    +0.252 C 
ATOM     15  C   UNL     1      33.778 -22.577 -19.235  0.00  0.00    +0.053 C 
ENDBRANCH   5   6
BRANCH   3  16
ATOM     16  O   UNL     1      37.382 -23.279 -10.959  0.00  0.00    -0.379 OA
ATOM     17  H   UNL     1      37.288 -23.549 -10.031  0.00  0.00    +0.211 HD
ENDBRANCH   3  16
BRANCH   4  18
ATOM     18  O   UNL     1      34.811 -23.515 -11.804  0.00  0.00    -0.378 OA
ATOM     19  H   UNL     1      33.944 -23.694 -12.202  0.00  0.00    +0.211 HD
ENDBRANCH   4  18
BRANCH   2  20
ATOM     20  C   UNL     1      38.335 -25.858 -13.468  0.00  0.00    +0.140 C 
ATOM     21  C   UNL     1      37.789 -25.984 -14.881  0.00  0.00    +0.034 C 
BRANCH  20  22
ATOM     22  O   UNL     1      39.723 -26.175 -13.471  0.00  0.00    -0.382 OA
ATOM     23  H   UNL     1      39.837 -27.132 -13.358  0.00  0.00    +0.210 HD
ENDBRANCH  20  22
ENDBRANCH   2  20
TORSDOF 5
ENDMDL
MODEL 8
REMARK VINA RESULT:      -8.0      0.932      2.008
REMARK  Name = 447724
REMARK  5 active torsions:
REMARK  status: ('A' for Active; 'I' for Inactive)
REMARK    1  A    between atoms: C_2  and  C_20
REMARK    2  A    between atoms: C_3  and  O_16
REMARK    3  A    between atoms: C_4  and  O_18
REMARK    4  A    between atoms: C_5  and  N_6
REMARK    5  A    between atoms: C_20  and  O_22
REMARK                            x       y       z     vdW  Elec       q    Type
REMARK                         _______ _______ _______ _____ _____    ______ ____
ROOT
ATOM      1  O   UNL     1      35.328 -16.560 -21.420  0.00  0.00    -0.333 OA
ATOM      2  C   UNL     1      34.492 -15.748 -22.278  0.00  0.00    +0.173 C 
ATOM      3  C   UNL     1      34.522 -16.405 -23.655  0.00  0.00    +0.171 C 
ATOM      4  C   UNL     1      34.754 -17.864 -23.312  0.00  0.00    +0.187 C 
ATOM      5  C   UNL     1      35.711 -17.750 -22.136  0.00  0.00    +0.225 C 
ENDROOT
BRANCH   5   6
ATOM      6  N   UNL     1      35.686 -18.898 -21.234  0.00  0.00    -0.247 N 
ATOM      7  N   UNL     1      36.438 -20.507 -19.883  0.00  0.00    -0.244 NA
ATOM      8  N   UNL     1      33.304 -19.366 -21.148  0.00  0.00    -0.228 NA
ATOM      9  N   UNL     1      32.824 -21.274 -19.705  0.00  0.00    -0.247 NA
ATOM     10  C   UNL     1      34.584 -19.593 -20.819  0.00  0.00    +0.151 C 
ATOM     11  C   UNL     1      36.775 -19.487 -20.645  0.00  0.00    +0.223 C 
ATOM     12  C   UNL     1      35.072 -20.584 -19.982  0.00  0.00    +0.122 C 
ATOM     13  C   UNL     1      34.137 -21.445 -19.416  0.00  0.00    +0.076 C 
ATOM     14  C   UNL     1      32.494 -20.261 -20.541  0.00  0.00    +0.252 C 
ATOM     15  C   UNL     1      34.495 -22.561 -18.498  0.00  0.00    +0.053 C 
ENDBRANCH   5   6
BRANCH   3  16
ATOM     16  O   UNL     1      35.643 -15.903 -24.381  0.00  0.00    -0.379 OA
ATOM     17  H   UNL     1      36.426 -16.441 -24.180  0.00  0.00    +0.211 HD
ENDBRANCH   3  16
BRANCH   4  18
ATOM     18  O   UNL     1      35.315 -18.600 -24.380  0.00  0.00    -0.378 OA
ATOM     19  H   UNL     1      36.274 -18.673 -24.253  0.00  0.00    +0.211 HD
ENDBRANCH   4  18
BRANCH   2  20
ATOM     20  C   UNL     1      33.095 -15.694 -21.676  0.00  0.00    +0.140 C 
ATOM     21  C   UNL     1      33.126 -15.298 -20.209  0.00  0.00    +0.034 C 
BRANCH  20  22
ATOM     22  O   UNL     1      32.311 -14.751 -22.399  0.00  0.00    -0.382 OA
ATOM     23  H   UNL     1      31.369 -14.922 -22.239  0.00  0.00    +0.210 HD
ENDBRANCH  20  22
ENDBRANCH   2  20
TORSDOF 5
ENDMDL
MODEL 9
REMARK VINA RESULT:      -7.8      4.847      7.604
REMARK  Name = 447724
REMARK  5 active torsions:
REMARK  status: ('A' for Active; 'I' for Inactive)
REMARK    1  A    between atoms: C_2  and  C_20
REMARK    2  A    between atoms: C_3  and  O_16
REMARK    3  A    between atoms: C_4  and  O_18
REMARK    4  A    between atoms: C_5  and  N_6
REMARK    5  A    between atoms: C_20  and  O_22
REMARK                            x       y       z     vdW  Elec       q    Type
REMARK                         _______ _______ _______ _____ _____    ______ ____
ROOT
ATOM      1  O   UNL     1      32.706 -23.903 -16.352  0.00  0.00    -0.333 OA
ATOM      2  C   UNL     1      32.787 -24.009 -14.911  0.00  0.00    +0.173 C 
ATOM      3  C   UNL     1      34.254 -23.810 -14.546  0.00  0.00    +0.171 C 
ATOM      4  C   UNL     1      34.749 -22.919 -15.668  0.00  0.00    +0.187 C 
ATOM      5  C   UNL     1      33.986 -23.480 -16.858  0.00  0.00    +0.225 C 
ENDROOT
BRANCH   5   6
ATOM      6  N   UNL     1      33.795 -22.525 -17.947  0.00  0.00    -0.247 N 
ATOM      7  N   UNL     1      32.738 -21.218 -19.414  0.00  0.00    -0.244 NA
ATOM      8  N   UNL     1      36.098 -22.060 -18.564  0.00  0.00    -0.228 NA
ATOM      9  N   UNL     1      36.220 -20.463 -20.405  0.00  0.00    -0.247 NA
ATOM     10  C   UNL     1      34.770 -21.915 -18.685  0.00  0.00    +0.151 C 
ATOM     11  C   UNL     1      32.591 -22.075 -18.424  0.00  0.00    +0.223 C 
ATOM     12  C   UNL     1      34.094 -21.108 -19.587  0.00  0.00    +0.122 C 
ATOM     13  C   UNL     1      34.870 -20.365 -20.470  0.00  0.00    +0.076 C 
ATOM     14  C   UNL     1      36.742 -21.293 -19.470  0.00  0.00    +0.252 C 
ATOM     15  C   UNL     1      34.300 -19.453 -21.500  0.00  0.00    +0.053 C 
ENDBRANCH   5   6
BRANCH   3  16
ATOM     16  O   UNL     1      34.921 -25.071 -14.611  0.00  0.00    -0.379 OA
ATOM     17  H   UNL     1      34.426 -25.725 -14.092  0.00  0.00    +0.211 HD
ENDBRANCH   3  16
BRANCH   4  18
ATOM     18  O   UNL     1      36.147 -22.991 -15.857  0.00  0.00    -0.378 OA
ATOM     19  H   UNL     1      36.440 -23.910 -15.758  0.00  0.00    +0.211 HD
ENDBRANCH   4  18
BRANCH   2  20
ATOM     20  C   UNL     1      31.874 -22.955 -14.300  0.00  0.00    +0.140 C 
ATOM     21  C   UNL     1      30.551 -22.853 -15.041  0.00  0.00    +0.034 C 
BRANCH  20  22
ATOM     22  O   UNL     1      31.625 -23.285 -12.937  0.00  0.00    -0.382 OA
ATOM     23  H   UNL     1      32.468 -23.405 -12.473  0.00  0.00    +0.210 HD
ENDBRANCH  20  22
ENDBRANCH   2  20
TORSDOF 5
ENDMDL
