MODEL 1
REMARK VINA RESULT:      -5.2      0.000      0.000
REMARK  Name = 62710
REMARK  9 active torsions:
REMARK  status: ('A' for Active; 'I' for Inactive)
REMARK    1  A    between atoms: C_1  and  C_2
REMARK    2  A    between atoms: C_1  and  C_8
REMARK    3  A    between atoms: C_1  and  C_14
REMARK    4  A    between atoms: C_1  and  C_21
REMARK    5  A    between atoms: C_14  and  C_15
REMARK    6  A    between atoms: C_15  and  N_17
REMARK    7  A    between atoms: C_21  and  C_22
REMARK    8  A    between atoms: C_21  and  O_24
REMARK    9  A    between atoms: O_24  and  C_26
REMARK                            x       y       z     vdW  Elec       q    Type
REMARK                         _______ _______ _______ _____ _____    ______ ____
ROOT
ATOM      1  C   UNL     1      34.884 -24.143 -14.231  0.00  0.00    +0.073 C 
ENDROOT
BRANCH   1   2
ATOM      2  C   UNL     1      35.610 -23.850 -12.880  0.00  0.00    -0.016 C 
ATOM      3  C   UNL     1      36.605 -22.922 -12.892  0.00  0.00    -0.004 C 
ATOM      4  C   UNL     1      35.198 -24.543 -11.783  0.00  0.00    -0.004 C 
ATOM      5  C   UNL     1      37.254 -22.660 -11.685  0.00  0.00    -0.000 C 
ATOM      6  C   UNL     1      35.846 -24.280 -10.576  0.00  0.00    -0.000 C 
ATOM      7  C   UNL     1      36.875 -23.339 -10.527  0.00  0.00    -0.000 C 
ENDBRANCH   1   2
BRANCH   1   8
ATOM      8  C   UNL     1      33.332 -24.163 -14.083  0.00  0.00    -0.016 C 
ATOM      9  C   UNL     1      32.678 -25.299 -14.453  0.00  0.00    -0.004 C 
ATOM     10  C   UNL     1      32.732 -23.042 -13.591  0.00  0.00    -0.004 C 
ATOM     11  C   UNL     1      31.289 -25.316 -14.319  0.00  0.00    -0.000 C 
ATOM     12  C   UNL     1      31.344 -23.060 -13.458  0.00  0.00    -0.000 C 
ATOM     13  C   UNL     1      30.623 -24.197 -13.822  0.00  0.00    -0.000 C 
ENDBRANCH   1   8
BRANCH   1  14
ATOM     14  C   UNL     1      35.486 -25.503 -14.786  0.00  0.00    -0.009 C 
BRANCH  14  15
ATOM     15  C   UNL     1      36.660 -26.163 -14.017  0.00  0.00    -0.058 C 
ATOM     16  C   UNL     1      36.712 -27.666 -14.316  0.00  0.00    -0.023 C 
BRANCH  15  17
ATOM     17  N   UNL     1      37.947 -25.576 -14.394  0.00  0.00    +0.385 N 
ATOM     18  C   UNL     1      38.566 -26.352 -15.467  0.00  0.00    -0.101 C 
ATOM     19  C   UNL     1      38.834 -25.507 -13.234  0.00  0.00    -0.101 C 
ATOM     20  H   UNL     1      37.785 -24.628 -14.732  0.00  0.00    -0.080 HD
ENDBRANCH  15  17
ENDBRANCH  14  15
ENDBRANCH   1  14
BRANCH   1  21
ATOM     21  C   UNL     1      35.233 -23.031 -15.328  0.00  0.00    +0.176 C 
BRANCH  21  22
ATOM     22  C   UNL     1      34.058 -22.528 -16.197  0.00  0.00    +0.044 C 
ATOM     23  C   UNL     1      33.912 -23.336 -17.483  0.00  0.00    +0.004 C 
ENDBRANCH  21  22
BRANCH  21  24
ATOM     24  O   UNL     1      36.279 -23.488 -16.192  0.00  0.00    -0.452 OA
BRANCH  24  26
ATOM     25  O   UNL     1      38.489 -22.986 -15.746  0.00  0.00    -0.250 OA
ATOM     26  C   UNL     1      37.397 -22.709 -16.223  0.00  0.00    +0.317 C 
ATOM     27  C   UNL     1      37.095 -21.428 -16.939  0.00  0.00    +0.121 C 
ENDBRANCH  24  26
ENDBRANCH  21  24
ENDBRANCH   1  21
TORSDOF 9
ENDMDL
MODEL 2
REMARK VINA RESULT:      -5.0      1.814      4.915
REMARK  Name = 62710
REMARK  9 active torsions:
REMARK  status: ('A' for Active; 'I' for Inactive)
REMARK    1  A    between atoms: C_1  and  C_2
REMARK    2  A    between atoms: C_1  and  C_8
REMARK    3  A    between atoms: C_1  and  C_14
REMARK    4  A    between atoms: C_1  and  C_21
REMARK    5  A    between atoms: C_14  and  C_15
REMARK    6  A    between atoms: C_15  and  N_17
REMARK    7  A    between atoms: C_21  and  C_22
REMARK    8  A    between atoms: C_21  and  O_24
REMARK    9  A    between atoms: O_24  and  C_26
REMARK                            x       y       z     vdW  Elec       q    Type
REMARK                         _______ _______ _______ _____ _____    ______ ____
ROOT
ATOM      1  C   UNL     1      35.751 -23.620 -15.146  0.00  0.00    +0.073 C 
ENDROOT
BRANCH   1   2
ATOM      2  C   UNL     1      36.664 -24.888 -15.128  0.00  0.00    -0.016 C 
ATOM      3  C   UNL     1      37.999 -24.696 -14.940  0.00  0.00    -0.004 C 
ATOM      4  C   UNL     1      36.062 -26.097 -15.300  0.00  0.00    -0.004 C 
ATOM      5  C   UNL     1      38.813 -25.828 -14.924  0.00  0.00    -0.000 C 
ATOM      6  C   UNL     1      36.878 -27.229 -15.283  0.00  0.00    -0.000 C 
ATOM      7  C   UNL     1      38.254 -27.094 -15.095  0.00  0.00    -0.000 C 
ENDBRANCH   1   2
BRANCH   1   8
ATOM      8  C   UNL     1      36.021 -22.709 -16.382  0.00  0.00    -0.016 C 
ATOM      9  C   UNL     1      37.035 -21.804 -16.288  0.00  0.00    -0.004 C 
ATOM     10  C   UNL     1      35.226 -22.877 -17.475  0.00  0.00    -0.004 C 
ATOM     11  C   UNL     1      37.277 -20.988 -17.394  0.00  0.00    -0.000 C 
ATOM     12  C   UNL     1      35.467 -22.062 -18.580  0.00  0.00    -0.000 C 
ATOM     13  C   UNL     1      36.493 -21.118 -18.540  0.00  0.00    -0.000 C 
ENDBRANCH   1   8
BRANCH   1  14
ATOM     14  C   UNL     1      35.964 -22.886 -13.755  0.00  0.00    -0.009 C 
BRANCH  14  15
ATOM     15  C   UNL     1      36.808 -23.594 -12.663  0.00  0.00    -0.058 C 
ATOM     16  C   UNL     1      37.345 -22.568 -11.659  0.00  0.00    -0.023 C 
BRANCH  15  17
ATOM     17  N   UNL     1      36.014 -24.581 -11.929  0.00  0.00    +0.385 N 
ATOM     18  C   UNL     1      35.631 -24.055 -10.620  0.00  0.00    -0.101 C 
ATOM     19  C   UNL     1      36.763 -25.828 -11.781  0.00  0.00    -0.101 C 
ATOM     20  H   UNL     1      35.165 -24.776 -12.460  0.00  0.00    -0.080 HD
ENDBRANCH  15  17
ENDBRANCH  14  15
ENDBRANCH   1  14
BRANCH   1  21
ATOM     21  C   UNL     1      34.203 -24.025 -15.194  0.00  0.00    +0.176 C 
BRANCH  21  22
ATOM     22  C   UNL     1      33.203 -22.885 -15.491  0.00  0.00    +0.044 C 
ATOM     23  C   UNL     1      32.271 -23.229 -16.649  0.00  0.00    +0.004 C 
ENDBRANCH  21  22
BRANCH  21  24
ATOM     24  O   UNL     1      33.815 -24.670 -13.977  0.00  0.00    -0.452 OA
BRANCH  24  26
ATOM     25  O   UNL     1      32.426 -23.273 -12.769  0.00  0.00    -0.250 OA
ATOM     26  C   UNL     1      32.621 -24.267 -13.456  0.00  0.00    +0.317 C 
ATOM     27  C   UNL     1      31.549 -25.237 -13.850  0.00  0.00    +0.121 C 
ENDBRANCH  24  26
ENDBRANCH  21  24
ENDBRANCH   1  21
TORSDOF 9
ENDMDL
MODEL 3
REMARK VINA RESULT:      -4.9      1.861      4.750
REMARK  Name = 62710
REMARK  9 active torsions:
REMARK  status: ('A' for Active; 'I' for Inactive)
REMARK    1  A    between atoms: C_1  and  C_2
REMARK    2  A    between atoms: C_1  and  C_8
REMARK    3  A    between atoms: C_1  and  C_14
REMARK    4  A    between atoms: C_1  and  C_21
REMARK    5  A    between atoms: C_14  and  C_15
REMARK    6  A    between atoms: C_15  and  N_17
REMARK    7  A    between atoms: C_21  and  C_22
REMARK    8  A    between atoms: C_21  and  O_24
REMARK    9  A    between atoms: O_24  and  C_26
REMARK                            x       y       z     vdW  Elec       q    Type
REMARK                         _______ _______ _______ _____ _____    ______ ____
ROOT
ATOM      1  C   UNL     1      35.934 -24.424 -14.635  0.00  0.00    +0.073 C 
ENDROOT
BRANCH   1   2
ATOM      2  C   UNL     1      36.149 -23.999 -13.147  0.00  0.00    -0.016 C 
ATOM      3  C   UNL     1      35.430 -24.657 -12.197  0.00  0.00    -0.004 C 
ATOM      4  C   UNL     1      37.041 -23.000 -12.903  0.00  0.00    -0.004 C 
ATOM      5  C   UNL     1      35.623 -24.277 -10.869  0.00  0.00    -0.000 C 
ATOM      6  C   UNL     1      37.234 -22.621 -11.574  0.00  0.00    -0.000 C 
ATOM      7  C   UNL     1      36.524 -23.260 -10.557  0.00  0.00    -0.000 C 
ENDBRANCH   1   2
BRANCH   1   8
ATOM      8  C   UNL     1      36.322 -23.297 -15.639  0.00  0.00    -0.016 C 
ATOM      9  C   UNL     1      37.510 -22.660 -15.443  0.00  0.00    -0.004 C 
ATOM     10  C   UNL     1      35.448 -23.023 -16.648  0.00  0.00    -0.004 C 
ATOM     11  C   UNL     1      37.858 -21.651 -16.342  0.00  0.00    -0.000 C 
ATOM     12  C   UNL     1      35.795 -22.015 -17.546  0.00  0.00    -0.000 C 
ATOM     13  C   UNL     1      37.000 -21.329 -17.394  0.00  0.00    -0.000 C 
ENDBRANCH   1   8
BRANCH   1  14
ATOM     14  C   UNL     1      34.423 -24.894 -14.759  0.00  0.00    -0.009 C 
BRANCH  14  15
ATOM     15  C   UNL     1      33.302 -23.830 -14.641  0.00  0.00    -0.058 C 
ATOM     16  C   UNL     1      32.573 -23.674 -15.980  0.00  0.00    -0.023 C 
BRANCH  15  17
ATOM     17  N   UNL     1      32.316 -24.201 -13.623  0.00  0.00    +0.385 N 
ATOM     18  C   UNL     1      31.421 -25.237 -14.136  0.00  0.00    -0.101 C 
ATOM     19  C   UNL     1      31.553 -23.027 -13.202  0.00  0.00    -0.101 C 
ATOM     20  H   UNL     1      32.810 -24.573 -12.813  0.00  0.00    -0.080 HD
ENDBRANCH  15  17
ENDBRANCH  14  15
ENDBRANCH   1  14
BRANCH   1  21
ATOM     21  C   UNL     1      36.822 -25.704 -15.004  0.00  0.00    +0.176 C 
BRANCH  21  22
ATOM     22  C   UNL     1      36.053 -26.981 -15.411  0.00  0.00    +0.044 C 
ATOM     23  C   UNL     1      36.654 -27.639 -16.650  0.00  0.00    +0.004 C 
ENDBRANCH  21  22
BRANCH  21  24
ATOM     24  O   UNL     1      37.710 -26.027 -13.928  0.00  0.00    -0.452 OA
BRANCH  24  26
ATOM     25  O   UNL     1      39.602 -26.803 -15.002  0.00  0.00    -0.250 OA
ATOM     26  C   UNL     1      39.036 -26.028 -14.243  0.00  0.00    +0.317 C 
ATOM     27  C   UNL     1      39.725 -24.917 -13.511  0.00  0.00    +0.121 C 
ENDBRANCH  24  26
ENDBRANCH  21  24
ENDBRANCH   1  21
TORSDOF 9
ENDMDL
MODEL 4
REMARK VINA RESULT:      -4.8      1.691      4.584
REMARK  Name = 62710
REMARK  9 active torsions:
REMARK  status: ('A' for Active; 'I' for Inactive)
REMARK    1  A    between atoms: C_1  and  C_2
REMARK    2  A    between atoms: C_1  and  C_8
REMARK    3  A    between atoms: C_1  and  C_14
REMARK    4  A    between atoms: C_1  and  C_21
REMARK    5  A    between atoms: C_14  and  C_15
REMARK    6  A    between atoms: C_15  and  N_17
REMARK    7  A    between atoms: C_21  and  C_22
REMARK    8  A    between atoms: C_21  and  O_24
REMARK    9  A    between atoms: O_24  and  C_26
REMARK                            x       y       z     vdW  Elec       q    Type
REMARK                         _______ _______ _______ _____ _____    ______ ____
ROOT
ATOM      1  C   UNL     1      35.760 -23.422 -14.997  0.00  0.00    +0.073 C 
ENDROOT
BRANCH   1   2
ATOM      2  C   UNL     1      36.075 -22.595 -16.284  0.00  0.00    -0.016 C 
ATOM      3  C   UNL     1      37.130 -21.737 -16.235  0.00  0.00    -0.004 C 
ATOM      4  C   UNL     1      35.272 -22.789 -17.366  0.00  0.00    -0.004 C 
ATOM      5  C   UNL     1      37.410 -20.998 -17.385  0.00  0.00    -0.000 C 
ATOM      6  C   UNL     1      35.553 -22.051 -18.516  0.00  0.00    -0.000 C 
ATOM      7  C   UNL     1      36.622 -21.155 -18.525  0.00  0.00    -0.000 C 
ENDBRANCH   1   2
BRANCH   1   8
ATOM      8  C   UNL     1      34.248 -23.781 -14.873  0.00  0.00    -0.016 C 
ATOM      9  C   UNL     1      33.387 -23.195 -15.751  0.00  0.00    -0.004 C 
ATOM     10  C   UNL     1      33.887 -24.658 -13.895  0.00  0.00    -0.004 C 
ATOM     11  C   UNL     1      32.034 -23.517 -15.641  0.00  0.00    -0.000 C 
ATOM     12  C   UNL     1      32.534 -24.979 -13.784  0.00  0.00    -0.000 C 
ATOM     13  C   UNL     1      31.608 -24.409 -14.657  0.00  0.00    -0.000 C 
ENDBRANCH   1   8
BRANCH   1  14
ATOM     14  C   UNL     1      36.317 -22.583 -13.770  0.00  0.00    -0.009 C 
BRANCH  14  15
ATOM     15  C   UNL     1      36.960 -23.344 -12.581  0.00  0.00    -0.058 C 
ATOM     16  C   UNL     1      38.109 -22.525 -11.984  0.00  0.00    -0.023 C 
BRANCH  15  17
ATOM     17  N   UNL     1      35.983 -23.604 -11.520  0.00  0.00    +0.385 N 
ATOM     18  C   UNL     1      36.438 -23.025 -10.257  0.00  0.00    -0.101 C 
ATOM     19  C   UNL     1      35.762 -25.041 -11.374  0.00  0.00    -0.101 C 
ATOM     20  H   UNL     1      35.100 -23.166 -11.778  0.00  0.00    -0.080 HD
ENDBRANCH  15  17
ENDBRANCH  14  15
ENDBRANCH   1  14
BRANCH   1  21
ATOM     21  C   UNL     1      36.570 -24.803 -14.986  0.00  0.00    +0.176 C 
BRANCH  21  22
ATOM     22  C   UNL     1      38.041 -24.742 -15.454  0.00  0.00    +0.044 C 
ATOM     23  C   UNL     1      39.011 -25.136 -14.344  0.00  0.00    +0.004 C 
ENDBRANCH  21  22
BRANCH  21  24
ATOM     24  O   UNL     1      35.883 -25.794 -15.758  0.00  0.00    -0.452 OA
BRANCH  24  26
ATOM     25  O   UNL     1      36.701 -27.732 -16.714  0.00  0.00    -0.250 OA
ATOM     26  C   UNL     1      36.439 -27.039 -15.740  0.00  0.00    +0.317 C 
ATOM     27  C   UNL     1      36.690 -27.454 -14.322  0.00  0.00    +0.121 C 
ENDBRANCH  24  26
ENDBRANCH  21  24
ENDBRANCH   1  21
TORSDOF 9
ENDMDL
MODEL 5
REMARK VINA RESULT:      -4.3      2.005      5.843
REMARK  Name = 62710
REMARK  9 active torsions:
REMARK  status: ('A' for Active; 'I' for Inactive)
REMARK    1  A    between atoms: C_1  and  C_2
REMARK    2  A    between atoms: C_1  and  C_8
REMARK    3  A    between atoms: C_1  and  C_14
REMARK    4  A    between atoms: C_1  and  C_21
REMARK    5  A    between atoms: C_14  and  C_15
REMARK    6  A    between atoms: C_15  and  N_17
REMARK    7  A    between atoms: C_21  and  C_22
REMARK    8  A    between atoms: C_21  and  O_24
REMARK    9  A    between atoms: O_24  and  C_26
REMARK                            x       y       z     vdW  Elec       q    Type
REMARK                         _______ _______ _______ _____ _____    ______ ____
ROOT
ATOM      1  C   UNL     1      35.915 -23.981 -14.876  0.00  0.00    +0.073 C 
ENDROOT
BRANCH   1   2
ATOM      2  C   UNL     1      36.204 -22.937 -16.002  0.00  0.00    -0.016 C 
ATOM      3  C   UNL     1      37.209 -22.045 -15.787  0.00  0.00    -0.004 C 
ATOM      4  C   UNL     1      35.431 -22.992 -17.121  0.00  0.00    -0.004 C 
ATOM      5  C   UNL     1      37.466 -21.113 -16.793  0.00  0.00    -0.000 C 
ATOM      6  C   UNL     1      35.689 -22.060 -18.127  0.00  0.00    -0.000 C 
ATOM      7  C   UNL     1      36.707 -21.120 -17.962  0.00  0.00    -0.000 C 
ENDBRANCH   1   2
BRANCH   1   8
ATOM      8  C   UNL     1      36.900 -25.189 -14.916  0.00  0.00    -0.016 C 
ATOM      9  C   UNL     1      38.227 -24.926 -14.758  0.00  0.00    -0.004 C 
ATOM     10  C   UNL     1      36.368 -26.429 -15.105  0.00  0.00    -0.004 C 
ATOM     11  C   UNL     1      39.108 -26.008 -14.793  0.00  0.00    -0.000 C 
ATOM     12  C   UNL     1      37.248 -27.510 -15.141  0.00  0.00    -0.000 C 
ATOM     13  C   UNL     1      38.618 -27.299 -14.984  0.00  0.00    -0.000 C 
ENDBRANCH   1   8
BRANCH   1  14
ATOM     14  C   UNL     1      34.391 -24.398 -15.023  0.00  0.00    -0.009 C 
BRANCH  14  15
ATOM     15  C   UNL     1      33.308 -23.290 -14.947  0.00  0.00    -0.058 C 
ATOM     16  C   UNL     1      32.440 -23.309 -16.210  0.00  0.00    -0.023 C 
BRANCH  15  17
ATOM     17  N   UNL     1      32.433 -23.474 -13.787  0.00  0.00    +0.385 N 
ATOM     18  C   UNL     1      32.071 -24.882 -13.641  0.00  0.00    -0.101 C 
ATOM     19  C   UNL     1      31.234 -22.648 -13.918  0.00  0.00    -0.101 C 
ATOM     20  H   UNL     1      32.937 -23.181 -12.951  0.00  0.00    -0.080 HD
ENDBRANCH  15  17
ENDBRANCH  14  15
ENDBRANCH   1  14
BRANCH   1  21
ATOM     21  C   UNL     1      36.050 -23.317 -13.426  0.00  0.00    +0.176 C 
BRANCH  21  22
ATOM     22  C   UNL     1      37.457 -23.337 -12.788  0.00  0.00    +0.044 C 
ATOM     23  C   UNL     1      37.605 -22.278 -11.698  0.00  0.00    +0.004 C 
ENDBRANCH  21  22
BRANCH  21  24
ATOM     24  O   UNL     1      35.124 -23.916 -12.512  0.00  0.00    -0.452 OA
BRANCH  24  26
ATOM     25  O   UNL     1      36.354 -25.752 -11.840  0.00  0.00    -0.250 OA
ATOM     26  C   UNL     1      35.671 -24.766 -11.598  0.00  0.00    +0.317 C 
ATOM     27  C   UNL     1      35.309 -24.316 -10.215  0.00  0.00    +0.121 C 
ENDBRANCH  24  26
ENDBRANCH  21  24
ENDBRANCH   1  21
TORSDOF 9
ENDMDL
MODEL 6
REMARK VINA RESULT:      -4.0      1.668      4.636
REMARK  Name = 62710
REMARK  9 active torsions:
REMARK  status: ('A' for Active; 'I' for Inactive)
REMARK    1  A    between atoms: C_1  and  C_2
REMARK    2  A    between atoms: C_1  and  C_8
REMARK    3  A    between atoms: C_1  and  C_14
REMARK    4  A    between atoms: C_1  and  C_21
REMARK    5  A    between atoms: C_14  and  C_15
REMARK    6  A    between atoms: C_15  and  N_17
REMARK    7  A    between atoms: C_21  and  C_22
REMARK    8  A    between atoms: C_21  and  O_24
REMARK    9  A    between atoms: O_24  and  C_26
REMARK                            x       y       z     vdW  Elec       q    Type
REMARK                         _______ _______ _______ _____ _____    ______ ____
ROOT
ATOM      1  C   UNL     1      34.974 -23.906 -14.428  0.00  0.00    +0.073 C 
ENDROOT
BRANCH   1   2
ATOM      2  C   UNL     1      33.418 -23.919 -14.294  0.00  0.00    -0.016 C 
ATOM      3  C   UNL     1      32.750 -22.783 -14.632  0.00  0.00    -0.004 C 
ATOM      4  C   UNL     1      32.837 -25.067 -13.848  0.00  0.00    -0.004 C 
ATOM      5  C   UNL     1      31.361 -22.795 -14.512  0.00  0.00    -0.000 C 
ATOM      6  C   UNL     1      31.447 -25.079 -13.729  0.00  0.00    -0.000 C 
ATOM      7  C   UNL     1      30.709 -23.942 -14.061  0.00  0.00    -0.000 C 
ENDBRANCH   1   2
BRANCH   1   8
ATOM      8  C   UNL     1      35.459 -23.115 -15.680  0.00  0.00    -0.016 C 
ATOM      9  C   UNL     1      34.661 -23.130 -16.784  0.00  0.00    -0.004 C 
ATOM     10  C   UNL     1      36.649 -22.458 -15.589  0.00  0.00    -0.004 C 
ATOM     11  C   UNL     1      35.094 -22.421 -17.904  0.00  0.00    -0.000 C 
ATOM     12  C   UNL     1      37.083 -21.749 -16.709  0.00  0.00    -0.000 C 
ATOM     13  C   UNL     1      36.305 -21.731 -17.866  0.00  0.00    -0.000 C 
ENDBRANCH   1   8
BRANCH   1  14
ATOM     14  C   UNL     1      35.445 -25.422 -14.413  0.00  0.00    -0.009 C 
BRANCH  14  15
ATOM     15  C   UNL     1      36.933 -25.735 -14.108  0.00  0.00    -0.058 C 
ATOM     16  C   UNL     1      37.042 -26.972 -13.209  0.00  0.00    -0.023 C 
BRANCH  15  17
ATOM     17  N   UNL     1      37.689 -25.993 -15.335  0.00  0.00    +0.385 N 
ATOM     18  C   UNL     1      37.332 -27.298 -15.889  0.00  0.00    -0.101 C 
ATOM     19  C   UNL     1      39.125 -25.924 -15.072  0.00  0.00    -0.101 C 
ATOM     20  H   UNL     1      37.452 -25.275 -16.019  0.00  0.00    -0.080 HD
ENDBRANCH  15  17
ENDBRANCH  14  15
ENDBRANCH   1  14
BRANCH   1  21
ATOM     21  C   UNL     1      35.658 -23.224 -13.151  0.00  0.00    +0.176 C 
BRANCH  21  22
ATOM     22  C   UNL     1      37.109 -23.653 -12.837  0.00  0.00    +0.044 C 
ATOM     23  C   UNL     1      37.989 -22.462 -12.465  0.00  0.00    +0.004 C 
ENDBRANCH  21  22
BRANCH  21  24
ATOM     24  O   UNL     1      34.856 -23.429 -11.983  0.00  0.00    -0.452 OA
BRANCH  24  26
ATOM     25  O   UNL     1      35.318 -25.395 -10.861  0.00  0.00    -0.250 OA
ATOM     26  C   UNL     1      35.430 -24.185 -11.004  0.00  0.00    +0.317 C 
ATOM     27  C   UNL     1      36.239 -23.305 -10.101  0.00  0.00    +0.121 C 
ENDBRANCH  24  26
ENDBRANCH  21  24
ENDBRANCH   1  21
TORSDOF 9
ENDMDL
MODEL 7
REMARK VINA RESULT:      -3.8      1.863      4.966
REMARK  Name = 62710
REMARK  9 active torsions:
REMARK  status: ('A' for Active; 'I' for Inactive)
REMARK    1  A    between atoms: C_1  and  C_2
REMARK    2  A    between atoms: C_1  and  C_8
REMARK    3  A    between atoms: C_1  and  C_14
REMARK    4  A    between atoms: C_1  and  C_21
REMARK    5  A    between atoms: C_14  and  C_15
REMARK    6  A    between atoms: C_15  and  N_17
REMARK    7  A    between atoms: C_21  and  C_22
REMARK    8  A    between atoms: C_21  and  O_24
REMARK    9  A    between atoms: O_24  and  C_26
REMARK                            x       y       z     vdW  Elec       q    Type
REMARK                         _______ _______ _______ _____ _____    ______ ____
ROOT
ATOM      1  C   UNL     1      35.893 -24.202 -14.585  0.00  0.00    +0.073 C 
ENDROOT
BRANCH   1   2
ATOM      2  C   UNL     1      36.148 -23.757 -13.109  0.00  0.00    -0.016 C 
ATOM      3  C   UNL     1      35.315 -24.250 -12.153  0.00  0.00    -0.004 C 
ATOM      4  C   UNL     1      37.187 -22.907 -12.882  0.00  0.00    -0.004 C 
ATOM      5  C   UNL     1      35.543 -23.852 -10.836  0.00  0.00    -0.000 C 
ATOM      6  C   UNL     1      37.415 -22.510 -11.564  0.00  0.00    -0.000 C 
ATOM      7  C   UNL     1      36.592 -22.982 -10.541  0.00  0.00    -0.000 C 
ENDBRANCH   1   2
BRANCH   1   8
ATOM      8  C   UNL     1      36.293 -23.105 -15.617  0.00  0.00    -0.016 C 
ATOM      9  C   UNL     1      35.510 -22.963 -16.722  0.00  0.00    -0.004 C 
ATOM     10  C   UNL     1      37.400 -22.358 -15.345  0.00  0.00    -0.004 C 
ATOM     11  C   UNL     1      35.867 -21.980 -17.645  0.00  0.00    -0.000 C 
ATOM     12  C   UNL     1      37.759 -21.376 -16.268  0.00  0.00    -0.000 C 
ATOM     13  C   UNL     1      36.992 -21.187 -17.418  0.00  0.00    -0.000 C 
ENDBRANCH   1   8
BRANCH   1  14
ATOM     14  C   UNL     1      34.368 -24.632 -14.673  0.00  0.00    -0.009 C 
BRANCH  14  15
ATOM     15  C   UNL     1      33.285 -23.523 -14.724  0.00  0.00    -0.058 C 
ATOM     16  C   UNL     1      32.614 -23.498 -16.101  0.00  0.00    -0.023 C 
BRANCH  15  17
ATOM     17  N   UNL     1      32.248 -23.739 -13.712  0.00  0.00    +0.385 N 
ATOM     18  C   UNL     1      31.845 -25.144 -13.689  0.00  0.00    -0.101 C 
ATOM     19  C   UNL     1      31.095 -22.879 -13.975  0.00  0.00    -0.101 C 
ATOM     20  H   UNL     1      32.630 -23.496 -12.799  0.00  0.00    -0.080 HD
ENDBRANCH  15  17
ENDBRANCH  14  15
ENDBRANCH   1  14
BRANCH   1  21
ATOM     21  C   UNL     1      36.738 -25.513 -14.947  0.00  0.00    +0.176 C 
BRANCH  21  22
ATOM     22  C   UNL     1      38.215 -25.292 -15.343  0.00  0.00    +0.044 C 
ATOM     23  C   UNL     1      39.167 -25.583 -14.187  0.00  0.00    +0.004 C 
ENDBRANCH  21  22
BRANCH  21  24
ATOM     24  O   UNL     1      36.091 -26.257 -15.985  0.00  0.00    -0.452 OA
BRANCH  24  26
ATOM     25  O   UNL     1      36.664 -28.108 -17.243  0.00  0.00    -0.250 OA
ATOM     26  C   UNL     1      36.554 -27.525 -16.173  0.00  0.00    +0.317 C 
ATOM     27  C   UNL     1      36.920 -28.126 -14.850  0.00  0.00    +0.121 C 
ENDBRANCH  24  26
ENDBRANCH  21  24
ENDBRANCH   1  21
TORSDOF 9
ENDMDL
MODEL 8
REMARK VINA RESULT:      -3.7      1.288      2.148
REMARK  Name = 62710
REMARK  9 active torsions:
REMARK  status: ('A' for Active; 'I' for Inactive)
REMARK    1  A    between atoms: C_1  and  C_2
REMARK    2  A    between atoms: C_1  and  C_8
REMARK    3  A    between atoms: C_1  and  C_14
REMARK    4  A    between atoms: C_1  and  C_21
REMARK    5  A    between atoms: C_14  and  C_15
REMARK    6  A    between atoms: C_15  and  N_17
REMARK    7  A    between atoms: C_21  and  C_22
REMARK    8  A    between atoms: C_21  and  O_24
REMARK    9  A    between atoms: O_24  and  C_26
REMARK                            x       y       z     vdW  Elec       q    Type
REMARK                         _______ _______ _______ _____ _____    ______ ____
ROOT
ATOM      1  C   UNL     1      34.825 -24.137 -14.670  0.00  0.00    +0.073 C 
ENDROOT
BRANCH   1   2
ATOM      2  C   UNL     1      35.650 -23.679 -13.425  0.00  0.00    -0.016 C 
ATOM      3  C   UNL     1      35.080 -23.843 -12.200  0.00  0.00    -0.004 C 
ATOM      4  C   UNL     1      36.883 -23.146 -13.651  0.00  0.00    -0.004 C 
ATOM      5  C   UNL     1      35.817 -23.433 -11.089  0.00  0.00    -0.000 C 
ATOM      6  C   UNL     1      37.619 -22.737 -12.539  0.00  0.00    -0.000 C 
ATOM      7  C   UNL     1      37.086 -22.880 -11.258  0.00  0.00    -0.000 C 
ENDBRANCH   1   2
BRANCH   1   8
ATOM      8  C   UNL     1      33.287 -24.053 -14.430  0.00  0.00    -0.016 C 
ATOM      9  C   UNL     1      32.613 -25.222 -14.247  0.00  0.00    -0.004 C 
ATOM     10  C   UNL     1      32.718 -22.814 -14.419  0.00  0.00    -0.004 C 
ATOM     11  C   UNL     1      31.236 -25.146 -14.033  0.00  0.00    -0.000 C 
ATOM     12  C   UNL     1      31.343 -22.738 -14.205  0.00  0.00    -0.000 C 
ATOM     13  C   UNL     1      30.602 -23.904 -14.012  0.00  0.00    -0.000 C 
ENDBRANCH   1   8
BRANCH   1  14
ATOM     14  C   UNL     1      35.332 -25.595 -15.039  0.00  0.00    -0.009 C 
BRANCH  14  15
ATOM     15  C   UNL     1      36.688 -26.079 -14.462  0.00  0.00    -0.058 C 
ATOM     16  C   UNL     1      36.529 -27.460 -13.817  0.00  0.00    -0.023 C 
BRANCH  15  17
ATOM     17  N   UNL     1      37.711 -26.175 -15.506  0.00  0.00    +0.385 N 
ATOM     18  C   UNL     1      37.633 -27.472 -16.176  0.00  0.00    -0.101 C 
ATOM     19  C   UNL     1      39.041 -25.973 -14.935  0.00  0.00    -0.101 C 
ATOM     20  H   UNL     1      37.541 -25.444 -16.195  0.00  0.00    -0.080 HD
ENDBRANCH  15  17
ENDBRANCH  14  15
ENDBRANCH   1  14
BRANCH   1  21
ATOM     21  C   UNL     1      35.150 -23.226 -15.945  0.00  0.00    +0.176 C 
BRANCH  21  22
ATOM     22  C   UNL     1      35.997 -21.959 -15.688  0.00  0.00    +0.044 C 
ATOM     23  C   UNL     1      37.069 -21.762 -16.756  0.00  0.00    +0.004 C 
ENDBRANCH  21  22
BRANCH  21  24
ATOM     24  O   UNL     1      33.941 -22.842 -16.609  0.00  0.00    -0.452 OA
BRANCH  24  26
ATOM     25  O   UNL     1      33.671 -24.330 -18.356  0.00  0.00    -0.250 OA
ATOM     26  C   UNL     1      33.855 -23.200 -17.921  0.00  0.00    +0.317 C 
ATOM     27  C   UNL     1      34.020 -21.987 -18.784  0.00  0.00    +0.121 C 
ENDBRANCH  24  26
ENDBRANCH  21  24
ENDBRANCH   1  21
TORSDOF 9
ENDMDL
MODEL 9
REMARK VINA RESULT:      -3.4      1.465      4.218
REMARK  Name = 62710
REMARK  9 active torsions:
REMARK  status: ('A' for Active; 'I' for Inactive)
REMARK    1  A    between atoms: C_1  and  C_2
REMARK    2  A    between atoms: C_1  and  C_8
REMARK    3  A    between atoms: C_1  and  C_14
REMARK    4  A    between atoms: C_1  and  C_21
REMARK    5  A    between atoms: C_14  and  C_15
REMARK    6  A    between atoms: C_15  and  N_17
REMARK    7  A    between atoms: C_21  and  C_22
REMARK    8  A    between atoms: C_21  and  O_24
REMARK    9  A    between atoms: O_24  and  C_26
REMARK                            x       y       z     vdW  Elec       q    Type
REMARK                         _______ _______ _______ _____ _____    ______ ____
ROOT
ATOM      1  C   UNL     1      34.783 -23.718 -15.368  0.00  0.00    +0.073 C 
ENDROOT
BRANCH   1   2
ATOM      2  C   UNL     1      33.398 -23.804 -14.651  0.00  0.00    -0.016 C 
ATOM      3  C   UNL     1      33.033 -25.010 -14.135  0.00  0.00    -0.004 C 
ATOM      4  C   UNL     1      32.650 -22.668 -14.591  0.00  0.00    -0.004 C 
ATOM      5  C   UNL     1      31.796 -25.086 -13.495  0.00  0.00    -0.000 C 
ATOM      6  C   UNL     1      31.413 -22.745 -13.951  0.00  0.00    -0.000 C 
ATOM      7  C   UNL     1      30.986 -23.955 -13.403  0.00  0.00    -0.000 C 
ENDBRANCH   1   2
BRANCH   1   8
ATOM      8  C   UNL     1      34.679 -23.092 -16.792  0.00  0.00    -0.016 C 
ATOM      9  C   UNL     1      35.783 -22.464 -17.286  0.00  0.00    -0.004 C 
ATOM     10  C   UNL     1      33.492 -23.214 -17.449  0.00  0.00    -0.004 C 
ATOM     11  C   UNL     1      35.690 -21.905 -18.561  0.00  0.00    -0.000 C 
ATOM     12  C   UNL     1      33.399 -22.654 -18.723  0.00  0.00    -0.000 C 
ATOM     13  C   UNL     1      34.499 -21.999 -19.279  0.00  0.00    -0.000 C 
ENDBRANCH   1   8
BRANCH   1  14
ATOM     14  C   UNL     1      35.391 -25.184 -15.361  0.00  0.00    -0.009 C 
BRANCH  14  15
ATOM     15  C   UNL     1      36.705 -25.439 -14.577  0.00  0.00    -0.058 C 
ATOM     16  C   UNL     1      36.457 -26.426 -13.431  0.00  0.00    -0.023 C 
BRANCH  15  17
ATOM     17  N   UNL     1      37.746 -25.995 -15.443  0.00  0.00    +0.385 N 
ATOM     18  C   UNL     1      37.374 -27.336 -15.891  0.00  0.00    -0.101 C 
ATOM     19  C   UNL     1      39.028 -26.028 -14.741  0.00  0.00    -0.101 C 
ATOM     20  H   UNL     1      37.842 -25.396 -16.262  0.00  0.00    -0.080 HD
ENDBRANCH  15  17
ENDBRANCH  14  15
ENDBRANCH   1  14
BRANCH   1  21
ATOM     21  C   UNL     1      35.809 -22.815 -14.535  0.00  0.00    +0.176 C 
BRANCH  21  22
ATOM     22  C   UNL     1      36.824 -21.989 -15.357  0.00  0.00    +0.044 C 
ATOM     23  C   UNL     1      38.127 -22.749 -15.585  0.00  0.00    +0.004 C 
ENDBRANCH  21  22
BRANCH  21  24
ATOM     24  O   UNL     1      36.528 -23.614 -13.589  0.00  0.00    -0.452 OA
BRANCH  24  26
ATOM     25  O   UNL     1      37.373 -22.360 -11.843  0.00  0.00    -0.250 OA
ATOM     26  C   UNL     1      36.550 -23.134 -12.314  0.00  0.00    +0.317 C 
ATOM     27  C   UNL     1      35.396 -23.700 -11.545  0.00  0.00    +0.121 C 
ENDBRANCH  24  26
ENDBRANCH  21  24
ENDBRANCH   1  21
TORSDOF 9
ENDMDL
