MODEL 1
REMARK VINA RESULT:      -8.2      0.000      0.000
REMARK  Name = 9842252
REMARK  1 active torsions:
REMARK  status: ('A' for Active; 'I' for Inactive)
REMARK    1  A    between atoms: C_15  and  C_24
REMARK                            x       y       z     vdW  Elec       q    Type
REMARK                         _______ _______ _______ _____ _____    ______ ____
ROOT
ATOM      1  N   UNL     1      37.445 -24.481 -15.355  0.00  0.00    -0.270 N 
ATOM      2  N   UNL     1      32.951 -23.837 -13.326  0.00  0.00    +0.384 N 
ATOM      3  N   UNL     1      35.817 -25.912 -14.927  0.00  0.00    -0.231 NA
ATOM      4  C   UNL     1      34.994 -23.615 -15.565  0.00  0.00    +0.063 C 
ATOM      5  C   UNL     1      34.864 -22.642 -14.348  0.00  0.00    -0.012 C 
ATOM      6  C   UNL     1      33.590 -24.338 -15.653  0.00  0.00    -0.012 C 
ATOM      7  C   UNL     1      35.303 -22.836 -16.882  0.00  0.00    -0.020 C 
ATOM      8  C   UNL     1      36.077 -24.665 -15.291  0.00  0.00    +0.115 C 
ATOM      9  C   UNL     1      34.269 -23.270 -13.082  0.00  0.00    -0.081 C 
ATOM     10  C   UNL     1      33.023 -24.883 -14.337  0.00  0.00    -0.081 C 
ATOM     11  C   UNL     1      36.481 -22.067 -17.054  0.00  0.00    -0.024 C 
ATOM     12  C   UNL     1      38.243 -23.367 -15.819  0.00  0.00    +0.101 C 
ATOM     13  C   UNL     1      37.584 -22.014 -16.032  0.00  0.00    +0.048 C 
ATOM     14  C   UNL     1      34.415 -22.880 -17.983  0.00  0.00    -0.004 C 
ATOM     15  C   UNL     1      38.045 -25.659 -14.974  0.00  0.00    +0.126 C 
ATOM     16  C   UNL     1      36.692 -21.344 -18.250  0.00  0.00    -0.005 C 
ATOM     17  C   UNL     1      37.017 -26.525 -14.720  0.00  0.00    +0.119 C 
ATOM     18  C   UNL     1      34.642 -22.165 -19.164  0.00  0.00    -0.000 C 
ATOM     19  C   UNL     1      35.778 -21.387 -19.295  0.00  0.00    -0.000 C 
ATOM     20  H   UNL     1      32.324 -23.100 -13.650  0.00  0.00    -0.085 HD
ATOM     21  H   UNL     1      32.599 -24.240 -12.458  0.00  0.00    -0.085 HD
ENDROOT
BRANCH  15  24
ATOM     22  O   UNL     1      40.242 -25.997 -15.815  0.00  0.00    -0.269 OA
ATOM     23  N   UNL     1      39.977 -26.069 -13.563  0.00  0.00    -0.324 N 
ATOM     24  C   UNL     1      39.448 -25.902 -14.849  0.00  0.00    +0.258 C 
ATOM     25  H   UNL     1      40.939 -26.237 -13.444  0.00  0.00    +0.145 HD
ATOM     26  H   UNL     1      39.385 -26.018 -12.777  0.00  0.00    +0.145 HD
ENDBRANCH  15  24
TORSDOF 1
ENDMDL
MODEL 2
REMARK VINA RESULT:      -8.1     14.636     16.598
REMARK  Name = 9842252
REMARK  1 active torsions:
REMARK  status: ('A' for Active; 'I' for Inactive)
REMARK    1  A    between atoms: C_15  and  C_24
REMARK                            x       y       z     vdW  Elec       q    Type
REMARK                         _______ _______ _______ _____ _____    ______ ____
ROOT
ATOM      1  N   UNL     1      32.841 -11.190 -23.521  0.00  0.00    -0.270 N 
ATOM      2  N   UNL     1      31.975  -6.333 -24.144  0.00  0.00    +0.384 N 
ATOM      3  N   UNL     1      34.188  -9.524 -24.061  0.00  0.00    -0.231 NA
ATOM      4  C   UNL     1      32.340  -8.851 -22.482  0.00  0.00    +0.063 C 
ATOM      5  C   UNL     1      31.026  -8.422 -23.212  0.00  0.00    -0.012 C 
ATOM      6  C   UNL     1      33.181  -7.518 -22.351  0.00  0.00    -0.012 C 
ATOM      7  C   UNL     1      32.035  -9.458 -21.076  0.00  0.00    -0.020 C 
ATOM      8  C   UNL     1      33.123  -9.849 -23.344  0.00  0.00    +0.115 C 
ATOM      9  C   UNL     1      31.235  -7.548 -24.454  0.00  0.00    -0.081 C 
ATOM     10  C   UNL     1      33.293  -6.658 -23.615  0.00  0.00    -0.081 C 
ATOM     11  C   UNL     1      31.263 -10.634 -20.906  0.00  0.00    -0.024 C 
ATOM     12  C   UNL     1      31.884 -12.064 -22.878  0.00  0.00    +0.101 C 
ATOM     13  C   UNL     1      30.756 -11.459 -22.058  0.00  0.00    +0.048 C 
ATOM     14  C   UNL     1      32.539  -8.861 -19.897  0.00  0.00    -0.004 C 
ATOM     15  C   UNL     1      33.754 -11.695 -24.419  0.00  0.00    +0.126 C 
ATOM     16  C   UNL     1      30.977 -11.118 -19.609  0.00  0.00    -0.005 C 
ATOM     17  C   UNL     1      34.574 -10.646 -24.732  0.00  0.00    +0.119 C 
ATOM     18  C   UNL     1      32.255  -9.357 -18.620  0.00  0.00    -0.000 C 
ATOM     19  C   UNL     1      31.464 -10.482 -18.474  0.00  0.00    -0.000 C 
ATOM     20  H   UNL     1      31.458  -5.794 -23.450  0.00  0.00    -0.085 HD
ATOM     21  H   UNL     1      32.088  -5.788 -24.999  0.00  0.00    -0.085 HD
ENDROOT
BRANCH  15  24
ATOM     22  O   UNL     1      34.169 -14.030 -24.265  0.00  0.00    -0.269 OA
ATOM     23  N   UNL     1      33.441 -13.240 -26.265  0.00  0.00    -0.324 N 
ATOM     24  C   UNL     1      33.804 -13.029 -24.928  0.00  0.00    +0.258 C 
ATOM     25  H   UNL     1      33.465 -14.148 -26.645  0.00  0.00    +0.145 HD
ATOM     26  H   UNL     1      33.163 -12.479 -26.825  0.00  0.00    +0.145 HD
ENDBRANCH  15  24
TORSDOF 1
ENDMDL
MODEL 3
REMARK VINA RESULT:      -7.4     16.046     18.536
REMARK  Name = 9842252
REMARK  1 active torsions:
REMARK  status: ('A' for Active; 'I' for Inactive)
REMARK    1  A    between atoms: C_15  and  C_24
REMARK                            x       y       z     vdW  Elec       q    Type
REMARK                         _______ _______ _______ _____ _____    ______ ____
ROOT
ATOM      1  N   UNL     1      32.925  -9.036 -23.386  0.00  0.00    -0.270 N 
ATOM      2  N   UNL     1      30.745  -5.332 -20.885  0.00  0.00    +0.384 N 
ATOM      3  N   UNL     1      30.798  -8.611 -22.967  0.00  0.00    -0.231 NA
ATOM      4  C   UNL     1      32.198  -6.534 -23.268  0.00  0.00    +0.063 C 
ATOM      5  C   UNL     1      32.868  -6.041 -21.944  0.00  0.00    -0.012 C 
ATOM      6  C   UNL     1      30.793  -5.808 -23.303  0.00  0.00    -0.012 C 
ATOM      7  C   UNL     1      33.055  -6.149 -24.515  0.00  0.00    -0.020 C 
ATOM      8  C   UNL     1      31.973  -8.050 -23.214  0.00  0.00    +0.115 C 
ATOM      9  C   UNL     1      31.968  -6.101 -20.706  0.00  0.00    -0.081 C 
ATOM     10  C   UNL     1      29.975  -5.851 -22.007  0.00  0.00    -0.081 C 
ATOM     11  C   UNL     1      34.373  -6.630 -24.712  0.00  0.00    -0.024 C 
ATOM     12  C   UNL     1      34.311  -8.971 -23.798  0.00  0.00    +0.101 C 
ATOM     13  C   UNL     1      35.027  -7.631 -23.798  0.00  0.00    +0.048 C 
ATOM     14  C   UNL     1      32.537  -5.305 -25.526  0.00  0.00    -0.004 C 
ATOM     15  C   UNL     1      32.310 -10.251 -23.195  0.00  0.00    +0.126 C 
ATOM     16  C   UNL     1      35.123  -6.215 -25.835  0.00  0.00    -0.005 C 
ATOM     17  C   UNL     1      30.998  -9.959 -22.942  0.00  0.00    +0.119 C 
ATOM     18  C   UNL     1      33.289  -4.910 -26.637  0.00  0.00    -0.000 C 
ATOM     19  C   UNL     1      34.589  -5.357 -26.788  0.00  0.00    -0.000 C 
ATOM     20  H   UNL     1      30.985  -4.358 -21.065  0.00  0.00    -0.085 HD
ATOM     21  H   UNL     1      30.182  -5.404 -20.037  0.00  0.00    -0.085 HD
ENDROOT
BRANCH  15  24
ATOM     22  O   UNL     1      33.854 -11.861 -24.015  0.00  0.00    -0.269 OA
ATOM     23  N   UNL     1      32.465 -12.520 -22.346  0.00  0.00    -0.324 N 
ATOM     24  C   UNL     1      32.930 -11.538 -23.231  0.00  0.00    +0.258 C 
ATOM     25  H   UNL     1      32.872 -13.416 -22.345  0.00  0.00    +0.145 HD
ATOM     26  H   UNL     1      31.730 -12.313 -21.723  0.00  0.00    +0.145 HD
ENDBRANCH  15  24
TORSDOF 1
ENDMDL
MODEL 4
REMARK VINA RESULT:      -7.4      2.677      4.951
REMARK  Name = 9842252
REMARK  1 active torsions:
REMARK  status: ('A' for Active; 'I' for Inactive)
REMARK    1  A    between atoms: C_15  and  C_24
REMARK                            x       y       z     vdW  Elec       q    Type
REMARK                         _______ _______ _______ _____ _____    ______ ____
ROOT
ATOM      1  N   UNL     1      33.562 -23.865 -14.699  0.00  0.00    -0.270 N 
ATOM      2  N   UNL     1      37.605 -26.534 -13.579  0.00  0.00    +0.384 N 
ATOM      3  N   UNL     1      34.683 -24.093 -12.809  0.00  0.00    -0.231 NA
ATOM      4  C   UNL     1      36.142 -24.200 -14.864  0.00  0.00    +0.063 C 
ATOM      5  C   UNL     1      36.267 -25.640 -15.461  0.00  0.00    -0.012 C 
ATOM      6  C   UNL     1      37.321 -24.097 -13.814  0.00  0.00    -0.012 C 
ATOM      7  C   UNL     1      36.288 -23.111 -15.973  0.00  0.00    -0.020 C 
ATOM      8  C   UNL     1      34.806 -24.047 -14.128  0.00  0.00    +0.115 C 
ATOM      9  C   UNL     1      36.441 -26.755 -14.424  0.00  0.00    -0.081 C 
ATOM     10  C   UNL     1      37.477 -25.279 -12.850  0.00  0.00    -0.081 C 
ATOM     11  C   UNL     1      35.385 -23.006 -17.061  0.00  0.00    -0.024 C 
ATOM     12  C   UNL     1      33.159 -23.620 -16.067  0.00  0.00    +0.101 C 
ATOM     13  C   UNL     1      34.153 -23.861 -17.191  0.00  0.00    +0.048 C 
ATOM     14  C   UNL     1      37.333 -22.158 -15.929  0.00  0.00    -0.004 C 
ATOM     15  C   UNL     1      32.634 -23.839 -13.683  0.00  0.00    +0.126 C 
ATOM     16  C   UNL     1      35.587 -22.031 -18.063  0.00  0.00    -0.005 C 
ATOM     17  C   UNL     1      33.354 -23.978 -12.529  0.00  0.00    +0.119 C 
ATOM     18  C   UNL     1      37.515 -21.192 -16.925  0.00  0.00    -0.000 C 
ATOM     19  C   UNL     1      36.647 -21.135 -18.001  0.00  0.00    -0.000 C 
ATOM     20  H   UNL     1      38.441 -26.500 -14.162  0.00  0.00    -0.085 HD
ATOM     21  H   UNL     1      37.676 -27.300 -12.908  0.00  0.00    -0.085 HD
ENDROOT
BRANCH  15  24
ATOM     22  O   UNL     1      30.627 -22.693 -14.239  0.00  0.00    -0.269 OA
ATOM     23  N   UNL     1      30.421 -24.811 -13.451  0.00  0.00    -0.324 N 
ATOM     24  C   UNL     1      31.216 -23.719 -13.823  0.00  0.00    +0.258 C 
ATOM     25  H   UNL     1      29.442 -24.760 -13.536  0.00  0.00    +0.145 HD
ATOM     26  H   UNL     1      30.843 -25.631 -13.105  0.00  0.00    +0.145 HD
ENDBRANCH  15  24
TORSDOF 1
ENDMDL
MODEL 5
REMARK VINA RESULT:      -6.9     15.269     17.711
REMARK  Name = 9842252
REMARK  1 active torsions:
REMARK  status: ('A' for Active; 'I' for Inactive)
REMARK    1  A    between atoms: C_15  and  C_24
REMARK                            x       y       z     vdW  Elec       q    Type
REMARK                         _______ _______ _______ _____ _____    ______ ____
ROOT
ATOM      1  N   UNL     1      33.444  -9.720 -23.544  0.00  0.00    -0.270 N 
ATOM      2  N   UNL     1      32.081  -6.939 -19.654  0.00  0.00    +0.384 N 
ATOM      3  N   UNL     1      31.563  -9.650 -22.387  0.00  0.00    -0.231 NA
ATOM      4  C   UNL     1      32.702  -7.409 -22.592  0.00  0.00    +0.063 C 
ATOM      5  C   UNL     1      33.755  -7.143 -21.467  0.00  0.00    -0.012 C 
ATOM      6  C   UNL     1      31.339  -6.863 -22.004  0.00  0.00    -0.012 C 
ATOM      7  C   UNL     1      33.079  -6.661 -23.910  0.00  0.00    -0.020 C 
ATOM      8  C   UNL     1      32.566  -8.915 -22.845  0.00  0.00    +0.115 C 
ATOM      9  C   UNL     1      33.322  -7.579 -20.063  0.00  0.00    -0.081 C 
ATOM     10  C   UNL     1      31.001  -7.285 -20.569  0.00  0.00    -0.081 C 
ATOM     11  C   UNL     1      34.274  -6.929 -24.623  0.00  0.00    -0.024 C 
ATOM     12  C   UNL     1      34.609  -9.405 -24.342  0.00  0.00    +0.101 C 
ATOM     13  C   UNL     1      35.233  -8.023 -24.236  0.00  0.00    +0.048 C 
ATOM     14  C   UNL     1      32.222  -5.682 -24.466  0.00  0.00    -0.004 C 
ATOM     15  C   UNL     1      32.974 -11.012 -23.475  0.00  0.00    +0.126 C 
ATOM     16  C   UNL     1      34.591  -6.193 -25.786  0.00  0.00    -0.005 C 
ATOM     17  C   UNL     1      31.811 -10.938 -22.759  0.00  0.00    +0.119 C 
ATOM     18  C   UNL     1      32.545  -4.967 -25.624  0.00  0.00    -0.000 C 
ATOM     19  C   UNL     1      33.737  -5.215 -26.281  0.00  0.00    -0.000 C 
ATOM     20  H   UNL     1      32.210  -5.927 -19.655  0.00  0.00    -0.085 HD
ATOM     21  H   UNL     1      31.836  -7.260 -18.718  0.00  0.00    -0.085 HD
ENDROOT
BRANCH  15  24
ATOM     22  O   UNL     1      33.652 -12.450 -25.242  0.00  0.00    -0.269 OA
ATOM     23  N   UNL     1      34.168 -13.097 -23.129  0.00  0.00    -0.324 N 
ATOM     24  C   UNL     1      33.596 -12.178 -24.019  0.00  0.00    +0.258 C 
ATOM     25  H   UNL     1      34.604 -13.910 -23.473  0.00  0.00    +0.145 HD
ATOM     26  H   UNL     1      34.133 -12.930 -22.159  0.00  0.00    +0.145 HD
ENDBRANCH  15  24
TORSDOF 1
ENDMDL
MODEL 6
REMARK VINA RESULT:      -6.8     15.941     18.682
REMARK  Name = 9842252
REMARK  1 active torsions:
REMARK  status: ('A' for Active; 'I' for Inactive)
REMARK    1  A    between atoms: C_15  and  C_24
REMARK                            x       y       z     vdW  Elec       q    Type
REMARK                         _______ _______ _______ _____ _____    ______ ____
ROOT
ATOM      1  N   UNL     1      31.798  -6.560 -22.422  0.00  0.00    -0.270 N 
ATOM      2  N   UNL     1      34.824  -9.630 -24.900  0.00  0.00    +0.384 N 
ATOM      3  N   UNL     1      31.653  -7.433 -24.447  0.00  0.00    -0.231 NA
ATOM      4  C   UNL     1      32.763  -8.957 -22.770  0.00  0.00    +0.063 C 
ATOM      5  C   UNL     1      34.305  -8.730 -22.652  0.00  0.00    -0.012 C 
ATOM      6  C   UNL     1      32.602 -10.037 -23.914  0.00  0.00    -0.012 C 
ATOM      7  C   UNL     1      32.161  -9.476 -21.426  0.00  0.00    -0.020 C 
ATOM      8  C   UNL     1      32.070  -7.662 -23.209  0.00  0.00    +0.115 C 
ATOM      9  C   UNL     1      35.029  -8.516 -23.986  0.00  0.00    -0.081 C 
ATOM     10  C   UNL     1      33.407  -9.794 -25.196  0.00  0.00    -0.081 C 
ATOM     11  C   UNL     1      32.208  -8.719 -20.229  0.00  0.00    -0.024 C 
ATOM     12  C   UNL     1      31.925  -6.342 -20.997  0.00  0.00    +0.101 C 
ATOM     13  C   UNL     1      32.745  -7.315 -20.165  0.00  0.00    +0.048 C 
ATOM     14  C   UNL     1      31.518 -10.734 -21.350  0.00  0.00    -0.004 C 
ATOM     15  C   UNL     1      31.226  -5.601 -23.226  0.00  0.00    +0.126 C 
ATOM     16  C   UNL     1      31.689  -9.253 -19.028  0.00  0.00    -0.005 C 
ATOM     17  C   UNL     1      31.146  -6.168 -24.468  0.00  0.00    +0.119 C 
ATOM     18  C   UNL     1      31.001 -11.245 -20.154  0.00  0.00    -0.000 C 
ATOM     19  C   UNL     1      31.096 -10.508 -18.988  0.00  0.00    -0.000 C 
ATOM     20  H   UNL     1      35.179 -10.485 -24.471  0.00  0.00    -0.085 HD
ATOM     21  H   UNL     1      35.323  -9.441 -25.769  0.00  0.00    -0.085 HD
ENDROOT
BRANCH  15  24
ATOM     22  O   UNL     1      29.917  -4.030 -22.015  0.00  0.00    -0.269 OA
ATOM     23  N   UNL     1      31.487  -3.196 -23.425  0.00  0.00    -0.324 N 
ATOM     24  C   UNL     1      30.830  -4.284 -22.836  0.00  0.00    +0.258 C 
ATOM     25  H   UNL     1      31.237  -2.276 -23.177  0.00  0.00    +0.145 HD
ATOM     26  H   UNL     1      32.200  -3.351 -24.087  0.00  0.00    +0.145 HD
ENDBRANCH  15  24
TORSDOF 1
ENDMDL
MODEL 7
REMARK VINA RESULT:      -6.8      1.760      2.283
REMARK  Name = 9842252
REMARK  1 active torsions:
REMARK  status: ('A' for Active; 'I' for Inactive)
REMARK    1  A    between atoms: C_15  and  C_24
REMARK                            x       y       z     vdW  Elec       q    Type
REMARK                         _______ _______ _______ _____ _____    ______ ____
ROOT
ATOM      1  N   UNL     1      38.277 -24.895 -14.545  0.00  0.00    -0.270 N 
ATOM      2  N   UNL     1      35.615 -23.490 -10.587  0.00  0.00    +0.384 N 
ATOM      3  N   UNL     1      37.259 -26.073 -12.978  0.00  0.00    -0.231 NA
ATOM      4  C   UNL     1      36.063 -23.930 -13.561  0.00  0.00    +0.063 C 
ATOM      5  C   UNL     1      36.559 -22.698 -12.735  0.00  0.00    -0.012 C 
ATOM      6  C   UNL     1      34.898 -24.553 -12.693  0.00  0.00    -0.012 C 
ATOM      7  C   UNL     1      35.540 -23.496 -14.966  0.00  0.00    -0.020 C 
ATOM      8  C   UNL     1      37.188 -24.963 -13.698  0.00  0.00    +0.115 C 
ATOM      9  C   UNL     1      36.805 -22.978 -11.248  0.00  0.00    -0.081 C 
ATOM     10  C   UNL     1      35.190 -24.742 -11.199  0.00  0.00    -0.081 C 
ATOM     11  C   UNL     1      36.371 -22.871 -15.929  0.00  0.00    -0.024 C 
ATOM     12  C   UNL     1      38.607 -23.976 -15.613  0.00  0.00    +0.101 C 
ATOM     13  C   UNL     1      37.848 -22.664 -15.729  0.00  0.00    +0.048 C 
ATOM     14  C   UNL     1      34.198 -23.727 -15.350  0.00  0.00    -0.004 C 
ATOM     15  C   UNL     1      39.067 -25.994 -14.301  0.00  0.00    +0.126 C 
ATOM     16  C   UNL     1      35.838 -22.456 -17.170  0.00  0.00    -0.005 C 
ATOM     17  C   UNL     1      38.413 -26.705 -13.333  0.00  0.00    +0.119 C 
ATOM     18  C   UNL     1      33.686 -23.318 -16.587  0.00  0.00    -0.000 C 
ATOM     19  C   UNL     1      34.504 -22.672 -17.495  0.00  0.00    -0.000 C 
ATOM     20  H   UNL     1      34.864 -22.805 -10.670  0.00  0.00    -0.085 HD
ATOM     21  H   UNL     1      35.828 -23.660  -9.604  0.00  0.00    -0.085 HD
ENDROOT
BRANCH  15  24
ATOM     22  O   UNL     1      40.615 -26.021 -16.105  0.00  0.00    -0.269 OA
ATOM     23  N   UNL     1      41.281 -26.981 -14.160  0.00  0.00    -0.324 N 
ATOM     24  C   UNL     1      40.319 -26.301 -14.919  0.00  0.00    +0.258 C 
ATOM     25  H   UNL     1      42.153 -27.206 -14.556  0.00  0.00    +0.145 HD
ATOM     26  H   UNL     1      41.084 -27.233 -13.228  0.00  0.00    +0.145 HD
ENDBRANCH  15  24
TORSDOF 1
ENDMDL
MODEL 8
REMARK VINA RESULT:      -5.3     11.543     14.244
REMARK  Name = 9842252
REMARK  1 active torsions:
REMARK  status: ('A' for Active; 'I' for Inactive)
REMARK    1  A    between atoms: C_15  and  C_24
REMARK                            x       y       z     vdW  Elec       q    Type
REMARK                         _______ _______ _______ _____ _____    ______ ____
ROOT
ATOM      1  N   UNL     1      33.301 -13.171 -24.861  0.00  0.00    -0.270 N 
ATOM      2  N   UNL     1      34.516 -16.050 -20.993  0.00  0.00    +0.384 N 
ATOM      3  N   UNL     1      32.658 -15.209 -24.299  0.00  0.00    -0.231 NA
ATOM      4  C   UNL     1      33.099 -13.711 -22.317  0.00  0.00    +0.063 C 
ATOM      5  C   UNL     1      34.590 -13.727 -21.847  0.00  0.00    -0.012 C 
ATOM      6  C   UNL     1      32.409 -14.880 -21.507  0.00  0.00    -0.012 C 
ATOM      7  C   UNL     1      32.420 -12.340 -22.004  0.00  0.00    -0.020 C 
ATOM      8  C   UNL     1      33.013 -14.027 -23.815  0.00  0.00    +0.115 C 
ATOM      9  C   UNL     1      35.245 -15.113 -21.834  0.00  0.00    -0.081 C 
ATOM     10  C   UNL     1      33.153 -16.220 -21.480  0.00  0.00    -0.081 C 
ATOM     11  C   UNL     1      32.871 -11.120 -22.569  0.00  0.00    -0.024 C 
ATOM     12  C   UNL     1      33.603 -11.756 -24.889  0.00  0.00    +0.101 C 
ATOM     13  C   UNL     1      33.969 -11.047 -23.595  0.00  0.00    +0.048 C 
ATOM     14  C   UNL     1      31.300 -12.258 -21.145  0.00  0.00    -0.004 C 
ATOM     15  C   UNL     1      33.153 -13.877 -26.033  0.00  0.00    +0.126 C 
ATOM     16  C   UNL     1      32.251  -9.901 -22.218  0.00  0.00    -0.005 C 
ATOM     17  C   UNL     1      32.752 -15.129 -25.656  0.00  0.00    +0.119 C 
ATOM     18  C   UNL     1      30.691 -11.043 -20.813  0.00  0.00    -0.000 C 
ATOM     19  C   UNL     1      31.173  -9.859 -21.342  0.00  0.00    -0.000 C 
ATOM     20  H   UNL     1      34.490 -15.694 -20.038  0.00  0.00    -0.085 HD
ATOM     21  H   UNL     1      34.990 -16.953 -21.017  0.00  0.00    -0.085 HD
ENDROOT
BRANCH  15  24
ATOM     22  O   UNL     1      34.483 -13.523 -27.971  0.00  0.00    -0.269 OA
ATOM     23  N   UNL     1      32.364 -12.713 -28.012  0.00  0.00    -0.324 N 
ATOM     24  C   UNL     1      33.397 -13.395 -27.356  0.00  0.00    +0.258 C 
ATOM     25  H   UNL     1      32.500 -12.370 -28.924  0.00  0.00    +0.145 HD
ATOM     26  H   UNL     1      31.499 -12.577 -27.559  0.00  0.00    +0.145 HD
ENDBRANCH  15  24
TORSDOF 1
ENDMDL
