MODEL 1
REMARK VINA RESULT:      -7.5      0.000      0.000
REMARK  Name = 1549107
REMARK  8 active torsions:
REMARK  status: ('A' for Active; 'I' for Inactive)
REMARK    1  A    between atoms: C_1  and  C_4
REMARK    2  A    between atoms: C_2  and  C_10
REMARK    3  A    between atoms: C_4  and  C_5
REMARK    4  A    between atoms: C_5  and  C_6
REMARK    5  A    between atoms: C_10  and  C_11
REMARK    6  A    between atoms: C_11  and  C_12
REMARK    7  A    between atoms: C_14  and  C_15
REMARK    8  A    between atoms: C_15  and  O_16
REMARK                            x       y       z     vdW  Elec       q    Type
REMARK                         _______ _______ _______ _____ _____    ______ ____
ROOT
ATOM      1  C   UNL     1      35.011 -16.644 -22.195  0.00  0.00    -0.048 C 
ATOM      2  C   UNL     1      35.539 -17.882 -22.135  0.00  0.00    -0.034 C 
ATOM      3  C   UNL     1      34.988 -15.906 -23.510  0.00  0.00    +0.026 C 
ENDROOT
BRANCH   1   4
ATOM      4  C   UNL     1      34.462 -15.870 -21.013  0.00  0.00    +0.026 C 
BRANCH   4   5
ATOM      5  C   UNL     1      32.937 -15.693 -21.032  0.00  0.00    +0.030 C 
BRANCH   5   6
ATOM      6  C   UNL     1      32.499 -14.358 -20.495  0.00  0.00    -0.034 C 
ATOM      7  C   UNL     1      32.198 -13.241 -21.183  0.00  0.00    -0.048 C 
ATOM      8  C   UNL     1      31.765 -11.936 -20.580  0.00  0.00    +0.026 C 
ATOM      9  C   UNL     1      32.288 -13.225 -22.686  0.00  0.00    +0.026 C 
ENDBRANCH   5   6
ENDBRANCH   4   5
ENDBRANCH   1   4
BRANCH   2  10
ATOM     10  C   UNL     1      35.665 -18.795 -20.947  0.00  0.00    +0.030 C 
BRANCH  10  11
ATOM     11  C   UNL     1      35.037 -20.165 -21.228  0.00  0.00    +0.026 C 
BRANCH  11  12
ATOM     12  C   UNL     1      33.754 -20.371 -20.451  0.00  0.00    -0.045 C 
ATOM     13  C   UNL     1      32.655 -19.387 -20.757  0.00  0.00    +0.026 C 
ATOM     14  C   UNL     1      33.568 -21.333 -19.528  0.00  0.00    -0.003 C 
BRANCH  14  15
ATOM     15  C   UNL     1      34.537 -22.396 -19.121  0.00  0.00    +0.163 C 
BRANCH  15  16
ATOM     16  O   UNL     1      33.865 -23.649 -19.131  0.00  0.00    -0.377 OA
ATOM     17  H   UNL     1      34.336 -24.273 -18.555  0.00  0.00    +0.211 HD
ENDBRANCH  15  16
ENDBRANCH  14  15
ENDBRANCH  11  12
ENDBRANCH  10  11
ENDBRANCH   2  10
TORSDOF 8
ENDMDL
MODEL 2
REMARK VINA RESULT:      -7.5      3.418      6.999
REMARK  Name = 1549107
REMARK  8 active torsions:
REMARK  status: ('A' for Active; 'I' for Inactive)
REMARK    1  A    between atoms: C_1  and  C_4
REMARK    2  A    between atoms: C_2  and  C_10
REMARK    3  A    between atoms: C_4  and  C_5
REMARK    4  A    between atoms: C_5  and  C_6
REMARK    5  A    between atoms: C_10  and  C_11
REMARK    6  A    between atoms: C_11  and  C_12
REMARK    7  A    between atoms: C_14  and  C_15
REMARK    8  A    between atoms: C_15  and  O_16
REMARK                            x       y       z     vdW  Elec       q    Type
REMARK                         _______ _______ _______ _____ _____    ______ ____
ROOT
ATOM      1  C   UNL     1      34.683 -16.658 -23.968  0.00  0.00    -0.048 C 
ATOM      2  C   UNL     1      34.178 -15.420 -24.133  0.00  0.00    -0.034 C 
ATOM      3  C   UNL     1      34.587 -17.658 -25.093  0.00  0.00    +0.026 C 
ENDROOT
BRANCH   1   4
ATOM      4  C   UNL     1      35.317 -17.182 -22.695  0.00  0.00    +0.026 C 
BRANCH   4   5
ATOM      5  C   UNL     1      35.357 -18.713 -22.596  0.00  0.00    +0.030 C 
BRANCH   5   6
ATOM      6  C   UNL     1      34.230 -19.273 -21.772  0.00  0.00    -0.034 C 
ATOM      7  C   UNL     1      34.302 -20.118 -20.727  0.00  0.00    -0.048 C 
ATOM      8  C   UNL     1      33.130 -20.640 -19.945  0.00  0.00    +0.026 C 
ATOM      9  C   UNL     1      35.636 -20.629 -20.251  0.00  0.00    +0.026 C 
ENDBRANCH   5   6
ENDBRANCH   4   5
ENDBRANCH   1   4
BRANCH   2  10
ATOM     10  C   UNL     1      34.161 -14.274 -23.160  0.00  0.00    +0.030 C 
BRANCH  10  11
ATOM     11  C   UNL     1      32.727 -13.891 -22.775  0.00  0.00    +0.026 C 
BRANCH  11  12
ATOM     12  C   UNL     1      32.527 -13.877 -21.275  0.00  0.00    -0.045 C 
ATOM     13  C   UNL     1      32.900 -15.153 -20.567  0.00  0.00    +0.026 C 
ATOM     14  C   UNL     1      32.033 -12.834 -20.582  0.00  0.00    -0.003 C 
BRANCH  14  15
ATOM     15  C   UNL     1      31.636 -11.497 -21.119  0.00  0.00    +0.163 C 
BRANCH  15  16
ATOM     16  O   UNL     1      30.244 -11.519 -21.408  0.00  0.00    -0.377 OA
ATOM     17  H   UNL     1      29.945 -10.623 -21.629  0.00  0.00    +0.211 HD
ENDBRANCH  15  16
ENDBRANCH  14  15
ENDBRANCH  11  12
ENDBRANCH  10  11
ENDBRANCH   2  10
TORSDOF 8
ENDMDL
MODEL 3
REMARK VINA RESULT:      -7.4      1.570      2.456
REMARK  Name = 1549107
REMARK  8 active torsions:
REMARK  status: ('A' for Active; 'I' for Inactive)
REMARK    1  A    between atoms: C_1  and  C_4
REMARK    2  A    between atoms: C_2  and  C_10
REMARK    3  A    between atoms: C_4  and  C_5
REMARK    4  A    between atoms: C_5  and  C_6
REMARK    5  A    between atoms: C_10  and  C_11
REMARK    6  A    between atoms: C_11  and  C_12
REMARK    7  A    between atoms: C_14  and  C_15
REMARK    8  A    between atoms: C_15  and  O_16
REMARK                            x       y       z     vdW  Elec       q    Type
REMARK                         _______ _______ _______ _____ _____    ______ ____
ROOT
ATOM      1  C   UNL     1      34.791 -17.939 -23.680  0.00  0.00    -0.048 C 
ATOM      2  C   UNL     1      34.491 -18.875 -22.757  0.00  0.00    -0.034 C 
ATOM      3  C   UNL     1      34.471 -18.195 -25.132  0.00  0.00    +0.026 C 
ENDROOT
BRANCH   1   4
ATOM      4  C   UNL     1      35.492 -16.626 -23.397  0.00  0.00    +0.026 C 
BRANCH   4   5
ATOM      5  C   UNL     1      34.588 -15.392 -23.520  0.00  0.00    +0.030 C 
BRANCH   5   6
ATOM      6  C   UNL     1      33.386 -15.458 -22.617  0.00  0.00    -0.034 C 
ATOM      7  C   UNL     1      33.346 -15.366 -21.275  0.00  0.00    -0.048 C 
ATOM      8  C   UNL     1      32.104 -15.440 -20.433  0.00  0.00    +0.026 C 
ATOM      9  C   UNL     1      34.615 -15.177 -20.486  0.00  0.00    +0.026 C 
ENDBRANCH   5   6
ENDBRANCH   4   5
ENDBRANCH   1   4
BRANCH   2  10
ATOM     10  C   UNL     1      34.715 -18.836 -21.271  0.00  0.00    +0.030 C 
BRANCH  10  11
ATOM     11  C   UNL     1      34.225 -20.125 -20.600  0.00  0.00    +0.026 C 
BRANCH  11  12
ATOM     12  C   UNL     1      35.348 -20.868 -19.910  0.00  0.00    -0.045 C 
ATOM     13  C   UNL     1      36.723 -20.291 -20.122  0.00  0.00    +0.026 C 
ATOM     14  C   UNL     1      35.184 -21.979 -19.168  0.00  0.00    -0.003 C 
BRANCH  14  15
ATOM     15  C   UNL     1      33.897 -22.666 -18.840  0.00  0.00    +0.163 C 
BRANCH  15  16
ATOM     16  O   UNL     1      33.888 -23.938 -19.476  0.00  0.00    -0.377 OA
ATOM     17  H   UNL     1      33.445 -23.867 -20.336  0.00  0.00    +0.211 HD
ENDBRANCH  15  16
ENDBRANCH  14  15
ENDBRANCH  11  12
ENDBRANCH  10  11
ENDBRANCH   2  10
TORSDOF 8
ENDMDL
MODEL 4
REMARK VINA RESULT:      -7.4      3.402      7.690
REMARK  Name = 1549107
REMARK  8 active torsions:
REMARK  status: ('A' for Active; 'I' for Inactive)
REMARK    1  A    between atoms: C_1  and  C_4
REMARK    2  A    between atoms: C_2  and  C_10
REMARK    3  A    between atoms: C_4  and  C_5
REMARK    4  A    between atoms: C_5  and  C_6
REMARK    5  A    between atoms: C_10  and  C_11
REMARK    6  A    between atoms: C_11  and  C_12
REMARK    7  A    between atoms: C_14  and  C_15
REMARK    8  A    between atoms: C_15  and  O_16
REMARK                            x       y       z     vdW  Elec       q    Type
REMARK                         _______ _______ _______ _____ _____    ______ ____
ROOT
ATOM      1  C   UNL     1      34.363 -19.955 -20.869  0.00  0.00    -0.048 C 
ATOM      2  C   UNL     1      34.306 -19.073 -21.886  0.00  0.00    -0.034 C 
ATOM      3  C   UNL     1      33.089 -20.386 -20.184  0.00  0.00    +0.026 C 
ENDROOT
BRANCH   1   4
ATOM      4  C   UNL     1      35.634 -20.540 -20.288  0.00  0.00    +0.026 C 
BRANCH   4   5
ATOM      5  C   UNL     1      35.401 -21.662 -19.267  0.00  0.00    +0.030 C 
BRANCH   5   6
ATOM      6  C   UNL     1      36.478 -21.730 -18.220  0.00  0.00    -0.034 C 
ATOM      7  C   UNL     1      36.406 -22.253 -16.982  0.00  0.00    -0.048 C 
ATOM      8  C   UNL     1      37.526 -22.288 -15.983  0.00  0.00    +0.026 C 
ATOM      9  C   UNL     1      35.122 -22.868 -16.489  0.00  0.00    +0.026 C 
ENDBRANCH   5   6
ENDBRANCH   4   5
ENDBRANCH   1   4
BRANCH   2  10
ATOM     10  C   UNL     1      35.434 -18.509 -22.705  0.00  0.00    +0.030 C 
BRANCH  10  11
ATOM     11  C   UNL     1      35.335 -16.982 -22.811  0.00  0.00    +0.026 C 
BRANCH  11  12
ATOM     12  C   UNL     1      34.547 -16.548 -24.027  0.00  0.00    -0.045 C 
ATOM     13  C   UNL     1      34.646 -17.467 -25.217  0.00  0.00    +0.026 C 
ATOM     14  C   UNL     1      33.814 -15.420 -24.098  0.00  0.00    -0.003 C 
BRANCH  14  15
ATOM     15  C   UNL     1      33.592 -14.416 -23.013  0.00  0.00    +0.163 C 
BRANCH  15  16
ATOM     16  O   UNL     1      34.272 -13.217 -23.360  0.00  0.00    -0.377 OA
ATOM     17  H   UNL     1      35.231 -13.367 -23.325  0.00  0.00    +0.211 HD
ENDBRANCH  15  16
ENDBRANCH  14  15
ENDBRANCH  11  12
ENDBRANCH  10  11
ENDBRANCH   2  10
TORSDOF 8
ENDMDL
MODEL 5
REMARK VINA RESULT:      -7.3      1.851      2.465
REMARK  Name = 1549107
REMARK  8 active torsions:
REMARK  status: ('A' for Active; 'I' for Inactive)
REMARK    1  A    between atoms: C_1  and  C_4
REMARK    2  A    between atoms: C_2  and  C_10
REMARK    3  A    between atoms: C_4  and  C_5
REMARK    4  A    between atoms: C_5  and  C_6
REMARK    5  A    between atoms: C_10  and  C_11
REMARK    6  A    between atoms: C_11  and  C_12
REMARK    7  A    between atoms: C_14  and  C_15
REMARK    8  A    between atoms: C_15  and  O_16
REMARK                            x       y       z     vdW  Elec       q    Type
REMARK                         _______ _______ _______ _____ _____    ______ ____
ROOT
ATOM      1  C   UNL     1      34.766 -17.705 -23.581  0.00  0.00    -0.048 C 
ATOM      2  C   UNL     1      34.647 -18.757 -22.747  0.00  0.00    -0.034 C 
ATOM      3  C   UNL     1      34.574 -17.904 -25.064  0.00  0.00    +0.026 C 
ENDROOT
BRANCH   1   4
ATOM      4  C   UNL     1      35.138 -16.297 -23.164  0.00  0.00    +0.026 C 
BRANCH   4   5
ATOM      5  C   UNL     1      33.948 -15.440 -22.711  0.00  0.00    +0.030 C 
BRANCH   5   6
ATOM      6  C   UNL     1      34.087 -13.995 -23.104  0.00  0.00    -0.034 C 
ATOM      7  C   UNL     1      33.678 -13.396 -24.238  0.00  0.00    -0.048 C 
ATOM      8  C   UNL     1      33.850 -11.941 -24.567  0.00  0.00    +0.026 C 
ATOM      9  C   UNL     1      32.986 -14.193 -25.313  0.00  0.00    +0.026 C 
ENDBRANCH   5   6
ENDBRANCH   4   5
ENDBRANCH   1   4
BRANCH   2  10
ATOM     10  C   UNL     1      34.794 -18.793 -21.251  0.00  0.00    +0.030 C 
BRANCH  10  11
ATOM     11  C   UNL     1      34.293 -20.122 -20.674  0.00  0.00    +0.026 C 
BRANCH  11  12
ATOM     12  C   UNL     1      35.376 -20.856 -19.915  0.00  0.00    -0.045 C 
ATOM     13  C   UNL     1      36.766 -20.297 -20.081  0.00  0.00    +0.026 C 
ATOM     14  C   UNL     1      35.169 -21.947 -19.154  0.00  0.00    -0.003 C 
BRANCH  14  15
ATOM     15  C   UNL     1      33.863 -22.615 -18.866  0.00  0.00    +0.163 C 
BRANCH  15  16
ATOM     16  O   UNL     1      33.887 -23.919 -19.433  0.00  0.00    -0.377 OA
ATOM     17  H   UNL     1      33.303 -23.945 -20.208  0.00  0.00    +0.211 HD
ENDBRANCH  15  16
ENDBRANCH  14  15
ENDBRANCH  11  12
ENDBRANCH  10  11
ENDBRANCH   2  10
TORSDOF 8
ENDMDL
MODEL 6
REMARK VINA RESULT:      -7.3      6.393      9.061
REMARK  Name = 1549107
REMARK  8 active torsions:
REMARK  status: ('A' for Active; 'I' for Inactive)
REMARK    1  A    between atoms: C_1  and  C_4
REMARK    2  A    between atoms: C_2  and  C_10
REMARK    3  A    between atoms: C_4  and  C_5
REMARK    4  A    between atoms: C_5  and  C_6
REMARK    5  A    between atoms: C_10  and  C_11
REMARK    6  A    between atoms: C_11  and  C_12
REMARK    7  A    between atoms: C_14  and  C_15
REMARK    8  A    between atoms: C_15  and  O_16
REMARK                            x       y       z     vdW  Elec       q    Type
REMARK                         _______ _______ _______ _____ _____    ______ ____
ROOT
ATOM      1  C   UNL     1      33.628 -12.708 -24.626  0.00  0.00    -0.048 C 
ATOM      2  C   UNL     1      33.835 -11.402 -24.885  0.00  0.00    -0.034 C 
ATOM      3  C   UNL     1      33.174 -13.625 -25.734  0.00  0.00    +0.026 C 
ENDROOT
BRANCH   1   4
ATOM      4  C   UNL     1      33.763 -13.362 -23.265  0.00  0.00    +0.026 C 
BRANCH   4   5
ATOM      5  C   UNL     1      32.425 -13.650 -22.571  0.00  0.00    +0.030 C 
BRANCH   5   6
ATOM      6  C   UNL     1      32.320 -13.002 -21.218  0.00  0.00    -0.034 C 
ATOM      7  C   UNL     1      31.616 -11.909 -20.869  0.00  0.00    -0.048 C 
ATOM      8  C   UNL     1      31.555 -11.314 -19.492  0.00  0.00    +0.026 C 
ATOM      9  C   UNL     1      30.803 -11.167 -21.898  0.00  0.00    +0.026 C 
ENDBRANCH   5   6
ENDBRANCH   4   5
ENDBRANCH   1   4
BRANCH   2  10
ATOM     10  C   UNL     1      34.285 -10.317 -23.946  0.00  0.00    +0.030 C 
BRANCH  10  11
ATOM     11  C   UNL     1      33.162  -9.307 -23.685  0.00  0.00    +0.026 C 
BRANCH  11  12
ATOM     12  C   UNL     1      33.692  -7.993 -23.154  0.00  0.00    -0.045 C 
ATOM     13  C   UNL     1      34.682  -7.293 -24.049  0.00  0.00    +0.026 C 
ATOM     14  C   UNL     1      33.352  -7.457 -21.967  0.00  0.00    -0.003 C 
BRANCH  14  15
ATOM     15  C   UNL     1      32.377  -8.003 -20.974  0.00  0.00    +0.163 C 
BRANCH  15  16
ATOM     16  O   UNL     1      32.979  -7.977 -19.686  0.00  0.00    -0.377 OA
ATOM     17  H   UNL     1      32.970  -7.069 -19.343  0.00  0.00    +0.211 HD
ENDBRANCH  15  16
ENDBRANCH  14  15
ENDBRANCH  11  12
ENDBRANCH  10  11
ENDBRANCH   2  10
TORSDOF 8
ENDMDL
MODEL 7
REMARK VINA RESULT:      -7.3      4.210      7.605
REMARK  Name = 1549107
REMARK  8 active torsions:
REMARK  status: ('A' for Active; 'I' for Inactive)
REMARK    1  A    between atoms: C_1  and  C_4
REMARK    2  A    between atoms: C_2  and  C_10
REMARK    3  A    between atoms: C_4  and  C_5
REMARK    4  A    between atoms: C_5  and  C_6
REMARK    5  A    between atoms: C_10  and  C_11
REMARK    6  A    between atoms: C_11  and  C_12
REMARK    7  A    between atoms: C_14  and  C_15
REMARK    8  A    between atoms: C_15  and  O_16
REMARK                            x       y       z     vdW  Elec       q    Type
REMARK                         _______ _______ _______ _____ _____    ______ ____
ROOT
ATOM      1  C   UNL     1      35.771 -22.055 -18.040  0.00  0.00    -0.048 C 
ATOM      2  C   UNL     1      36.540 -21.468 -18.977  0.00  0.00    -0.034 C 
ATOM      3  C   UNL     1      36.324 -22.280 -16.654  0.00  0.00    +0.026 C 
ENDROOT
BRANCH   1   4
ATOM      4  C   UNL     1      34.367 -22.580 -18.264  0.00  0.00    +0.026 C 
BRANCH   4   5
ATOM      5  C   UNL     1      33.712 -23.178 -17.011  0.00  0.00    +0.030 C 
BRANCH   5   6
ATOM      6  C   UNL     1      32.210 -23.108 -17.050  0.00  0.00    -0.034 C 
ATOM      7  C   UNL     1      31.352 -23.030 -16.015  0.00  0.00    -0.048 C 
ATOM      8  C   UNL     1      29.856 -22.963 -16.126  0.00  0.00    +0.026 C 
ATOM      9  C   UNL     1      31.866 -23.008 -14.600  0.00  0.00    +0.026 C 
ENDBRANCH   5   6
ENDBRANCH   4   5
ENDBRANCH   1   4
BRANCH   2  10
ATOM     10  C   UNL     1      36.201 -21.147 -20.407  0.00  0.00    +0.030 C 
BRANCH  10  11
ATOM     11  C   UNL     1      35.788 -19.679 -20.564  0.00  0.00    +0.026 C 
BRANCH  11  12
ATOM     12  C   UNL     1      34.506 -19.532 -21.354  0.00  0.00    -0.045 C 
ATOM     13  C   UNL     1      33.259 -19.987 -20.641  0.00  0.00    +0.026 C 
ATOM     14  C   UNL     1      34.434 -19.056 -22.611  0.00  0.00    -0.003 C 
BRANCH  14  15
ATOM     15  C   UNL     1      35.561 -18.545 -23.450  0.00  0.00    +0.163 C 
BRANCH  15  16
ATOM     16  O   UNL     1      35.799 -17.185 -23.108  0.00  0.00    -0.377 OA
ATOM     17  H   UNL     1      36.636 -17.116 -22.622  0.00  0.00    +0.211 HD
ENDBRANCH  15  16
ENDBRANCH  14  15
ENDBRANCH  11  12
ENDBRANCH  10  11
ENDBRANCH   2  10
TORSDOF 8
ENDMDL
MODEL 8
REMARK VINA RESULT:      -7.3      1.719      2.347
REMARK  Name = 1549107
REMARK  8 active torsions:
REMARK  status: ('A' for Active; 'I' for Inactive)
REMARK    1  A    between atoms: C_1  and  C_4
REMARK    2  A    between atoms: C_2  and  C_10
REMARK    3  A    between atoms: C_4  and  C_5
REMARK    4  A    between atoms: C_5  and  C_6
REMARK    5  A    between atoms: C_10  and  C_11
REMARK    6  A    between atoms: C_11  and  C_12
REMARK    7  A    between atoms: C_14  and  C_15
REMARK    8  A    between atoms: C_15  and  O_16
REMARK                            x       y       z     vdW  Elec       q    Type
REMARK                         _______ _______ _______ _____ _____    ______ ____
ROOT
ATOM      1  C   UNL     1      34.573 -16.084 -21.432  0.00  0.00    -0.048 C 
ATOM      2  C   UNL     1      35.027 -17.220 -20.868  0.00  0.00    -0.034 C 
ATOM      3  C   UNL     1      33.805 -15.092 -20.595  0.00  0.00    +0.026 C 
ENDROOT
BRANCH   1   4
ATOM      4  C   UNL     1      34.719 -15.715 -22.894  0.00  0.00    +0.026 C 
BRANCH   4   5
ATOM      5  C   UNL     1      33.506 -14.981 -23.481  0.00  0.00    +0.030 C 
BRANCH   5   6
ATOM      6  C   UNL     1      33.837 -13.592 -23.952  0.00  0.00    -0.034 C 
ATOM      7  C   UNL     1      33.290 -12.426 -23.562  0.00  0.00    -0.048 C 
ATOM      8  C   UNL     1      33.671 -11.068 -24.077  0.00  0.00    +0.026 C 
ATOM      9  C   UNL     1      32.194 -12.408 -22.529  0.00  0.00    +0.026 C 
ENDBRANCH   5   6
ENDBRANCH   4   5
ENDBRANCH   1   4
BRANCH   2  10
ATOM     10  C   UNL     1      35.807 -18.339 -21.501  0.00  0.00    +0.030 C 
BRANCH  10  11
ATOM     11  C   UNL     1      34.883 -19.476 -21.952  0.00  0.00    +0.026 C 
BRANCH  11  12
ATOM     12  C   UNL     1      34.148 -20.105 -20.789  0.00  0.00    -0.045 C 
ATOM     13  C   UNL     1      32.681 -19.772 -20.703  0.00  0.00    +0.026 C 
ATOM     14  C   UNL     1      34.722 -20.892 -19.860  0.00  0.00    -0.003 C 
BRANCH  14  15
ATOM     15  C   UNL     1      36.148 -21.337 -19.807  0.00  0.00    +0.163 C 
BRANCH  15  16
ATOM     16  O   UNL     1      36.746 -20.802 -18.633  0.00  0.00    -0.377 OA
ATOM     17  H   UNL     1      37.658 -21.128 -18.557  0.00  0.00    +0.211 HD
ENDBRANCH  15  16
ENDBRANCH  14  15
ENDBRANCH  11  12
ENDBRANCH  10  11
ENDBRANCH   2  10
TORSDOF 8
ENDMDL
MODEL 9
REMARK VINA RESULT:      -7.2      3.475      7.738
REMARK  Name = 1549107
REMARK  8 active torsions:
REMARK  status: ('A' for Active; 'I' for Inactive)
REMARK    1  A    between atoms: C_1  and  C_4
REMARK    2  A    between atoms: C_2  and  C_10
REMARK    3  A    between atoms: C_4  and  C_5
REMARK    4  A    between atoms: C_5  and  C_6
REMARK    5  A    between atoms: C_10  and  C_11
REMARK    6  A    between atoms: C_11  and  C_12
REMARK    7  A    between atoms: C_14  and  C_15
REMARK    8  A    between atoms: C_15  and  O_16
REMARK                            x       y       z     vdW  Elec       q    Type
REMARK                         _______ _______ _______ _____ _____    ______ ____
ROOT
ATOM      1  C   UNL     1      35.021 -21.006 -19.707  0.00  0.00    -0.048 C 
ATOM      2  C   UNL     1      35.254 -20.055 -20.633  0.00  0.00    -0.034 C 
ATOM      3  C   UNL     1      36.176 -21.592 -18.934  0.00  0.00    +0.026 C 
ENDROOT
BRANCH   1   4
ATOM      4  C   UNL     1      33.666 -21.605 -19.391  0.00  0.00    +0.026 C 
BRANCH   4   5
ATOM      5  C   UNL     1      33.727 -22.897 -18.566  0.00  0.00    +0.030 C 
BRANCH   5   6
ATOM      6  C   UNL     1      32.736 -22.913 -17.434  0.00  0.00    -0.034 C 
ATOM      7  C   UNL     1      32.946 -23.246 -16.147  0.00  0.00    -0.048 C 
ATOM      8  C   UNL     1      31.905 -23.240 -15.064  0.00  0.00    +0.026 C 
ATOM      9  C   UNL     1      34.313 -23.676 -15.684  0.00  0.00    +0.026 C 
ENDBRANCH   5   6
ENDBRANCH   4   5
ENDBRANCH   1   4
BRANCH   2  10
ATOM     10  C   UNL     1      34.268 -19.336 -21.512  0.00  0.00    +0.030 C 
BRANCH  10  11
ATOM     11  C   UNL     1      34.963 -18.694 -22.718  0.00  0.00    +0.026 C 
BRANCH  11  12
ATOM     12  C   UNL     1      34.846 -17.185 -22.704  0.00  0.00    -0.045 C 
ATOM     13  C   UNL     1      34.821 -16.558 -21.335  0.00  0.00    +0.026 C 
ATOM     14  C   UNL     1      34.745 -16.418 -23.805  0.00  0.00    -0.003 C 
BRANCH  14  15
ATOM     15  C   UNL     1      34.775 -16.871 -25.229  0.00  0.00    +0.163 C 
BRANCH  15  16
ATOM     16  O   UNL     1      33.632 -16.348 -25.895  0.00  0.00    -0.377 OA
ATOM     17  H   UNL     1      33.814 -15.440 -26.185  0.00  0.00    +0.211 HD
ENDBRANCH  15  16
ENDBRANCH  14  15
ENDBRANCH  11  12
ENDBRANCH  10  11
ENDBRANCH   2  10
TORSDOF 8
ENDMDL
