MODEL 1
REMARK VINA RESULT:      -7.6      0.000      0.000
REMARK  Name = 689043
REMARK  5 active torsions:
REMARK  status: ('A' for Active; 'I' for Inactive)
REMARK    1  A    between atoms: C_1  and  C_11
REMARK    2  A    between atoms: C_4  and  O_7
REMARK    3  A    between atoms: C_5  and  O_9
REMARK    4  A    between atoms: C_12  and  C_14
REMARK    5  A    between atoms: C_14  and  O_15
REMARK                            x       y       z     vdW  Elec       q    Type
REMARK                         _______ _______ _______ _____ _____    ______ ____
ROOT
ATOM      1  C   UNL     1      34.828 -19.509 -21.225  0.00  0.00    +0.003 C 
ATOM      2  C   UNL     1      33.687 -20.145 -20.735  0.00  0.00    +0.040 C 
ATOM      3  C   UNL     1      36.088 -19.884 -20.762  0.00  0.00    +0.003 C 
ATOM      4  C   UNL     1      33.807 -21.157 -19.782  0.00  0.00    +0.167 C 
ATOM      5  C   UNL     1      35.068 -21.532 -19.319  0.00  0.00    +0.167 C 
ATOM      6  C   UNL     1      36.209 -20.896 -19.809  0.00  0.00    +0.040 C 
ENDROOT
BRANCH   4   7
ATOM      7  O   UNL     1      32.687 -21.770 -19.309  0.00  0.00    -0.503 OA
ATOM      8  H   UNL     1      31.970 -21.256 -18.994  0.00  0.00    +0.292 HD
ENDBRANCH   4   7
BRANCH   5   9
ATOM      9  O   UNL     1      35.199 -22.517 -18.388  0.00  0.00    -0.503 OA
ATOM     10  H   UNL     1      35.961 -22.549 -17.843  0.00  0.00    +0.292 HD
ENDBRANCH   5   9
BRANCH   1  11
ATOM     11  C   UNL     1      34.701 -18.455 -22.219  0.00  0.00    +0.007 C 
ATOM     12  C   UNL     1      35.167 -18.575 -23.459  0.00  0.00    +0.082 C 
BRANCH  12  14
ATOM     13  O   UNL     1      34.414 -17.452 -25.455  0.00  0.00    -0.245 OA
ATOM     14  C   UNL     1      35.003 -17.437 -24.387  0.00  0.00    +0.338 C 
BRANCH  14  15
ATOM     15  O   UNL     1      35.619 -16.354 -23.859  0.00  0.00    -0.477 OA
ATOM     16  H   UNL     1      35.948 -16.382 -22.982  0.00  0.00    +0.295 HD
ENDBRANCH  14  15
ENDBRANCH  12  14
ENDBRANCH   1  11
TORSDOF 5
ENDMDL
MODEL 2
REMARK VINA RESULT:      -7.4      0.766      1.825
REMARK  Name = 689043
REMARK  5 active torsions:
REMARK  status: ('A' for Active; 'I' for Inactive)
REMARK    1  A    between atoms: C_1  and  C_11
REMARK    2  A    between atoms: C_4  and  O_7
REMARK    3  A    between atoms: C_5  and  O_9
REMARK    4  A    between atoms: C_12  and  C_14
REMARK    5  A    between atoms: C_14  and  O_15
REMARK                            x       y       z     vdW  Elec       q    Type
REMARK                         _______ _______ _______ _____ _____    ______ ____
ROOT
ATOM      1  C   UNL     1      34.533 -19.689 -21.181  0.00  0.00    +0.003 C 
ATOM      2  C   UNL     1      35.717 -20.185 -20.634  0.00  0.00    +0.040 C 
ATOM      3  C   UNL     1      33.304 -20.195 -20.756  0.00  0.00    +0.003 C 
ATOM      4  C   UNL     1      35.673 -21.184 -19.662  0.00  0.00    +0.167 C 
ATOM      5  C   UNL     1      34.444 -21.689 -19.238  0.00  0.00    +0.167 C 
ATOM      6  C   UNL     1      33.260 -21.194 -19.784  0.00  0.00    +0.040 C 
ENDROOT
BRANCH   4   7
ATOM      7  O   UNL     1      36.835 -21.662 -19.137  0.00  0.00    -0.503 OA
ATOM      8  H   UNL     1      37.200 -22.462 -19.459  0.00  0.00    +0.292 HD
ENDBRANCH   4   7
BRANCH   5   9
ATOM      9  O   UNL     1      34.387 -22.666 -18.291  0.00  0.00    -0.503 OA
ATOM     10  H   UNL     1      34.946 -22.624 -17.540  0.00  0.00    +0.292 HD
ENDBRANCH   5   9
BRANCH   1  11
ATOM     11  C   UNL     1      34.580 -18.646 -22.193  0.00  0.00    +0.007 C 
ATOM     12  C   UNL     1      34.873 -18.891 -23.467  0.00  0.00    +0.082 C 
BRANCH  12  14
ATOM     13  O   UNL     1      34.458 -17.740 -25.544  0.00  0.00    -0.245 OA
ATOM     14  C   UNL     1      34.911 -17.757 -24.412  0.00  0.00    +0.338 C 
BRANCH  14  15
ATOM     15  O   UNL     1      35.541 -16.716 -23.817  0.00  0.00    -0.477 OA
ATOM     16  H   UNL     1      36.415 -16.490 -24.070  0.00  0.00    +0.295 HD
ENDBRANCH  14  15
ENDBRANCH  12  14
ENDBRANCH   1  11
TORSDOF 5
ENDMDL
MODEL 3
REMARK VINA RESULT:      -7.4      1.088      1.228
REMARK  Name = 689043
REMARK  5 active torsions:
REMARK  status: ('A' for Active; 'I' for Inactive)
REMARK    1  A    between atoms: C_1  and  C_11
REMARK    2  A    between atoms: C_4  and  O_7
REMARK    3  A    between atoms: C_5  and  O_9
REMARK    4  A    between atoms: C_12  and  C_14
REMARK    5  A    between atoms: C_14  and  O_15
REMARK                            x       y       z     vdW  Elec       q    Type
REMARK                         _______ _______ _______ _____ _____    ______ ____
ROOT
ATOM      1  C   UNL     1      34.536 -19.636 -20.900  0.00  0.00    +0.003 C 
ATOM      2  C   UNL     1      33.453 -20.322 -20.349  0.00  0.00    +0.040 C 
ATOM      3  C   UNL     1      35.838 -20.020 -20.581  0.00  0.00    +0.003 C 
ATOM      4  C   UNL     1      33.672 -21.392 -19.481  0.00  0.00    +0.167 C 
ATOM      5  C   UNL     1      34.975 -21.775 -19.163  0.00  0.00    +0.167 C 
ATOM      6  C   UNL     1      36.058 -21.090 -19.713  0.00  0.00    +0.040 C 
ENDROOT
BRANCH   4   7
ATOM      7  O   UNL     1      32.608 -22.052 -18.948  0.00  0.00    -0.503 OA
ATOM      8  H   UNL     1      32.113 -21.661 -18.255  0.00  0.00    +0.292 HD
ENDBRANCH   4   7
BRANCH   5   9
ATOM      9  O   UNL     1      35.202 -22.816 -18.315  0.00  0.00    -0.503 OA
ATOM     10  H   UNL     1      35.224 -22.671 -17.390  0.00  0.00    +0.292 HD
ENDBRANCH   5   9
BRANCH   1  11
ATOM     11  C   UNL     1      34.306 -18.523 -21.806  0.00  0.00    +0.007 C 
ATOM     12  C   UNL     1      35.104 -17.459 -21.857  0.00  0.00    +0.082 C 
BRANCH  12  14
ATOM     13  O   UNL     1      33.750 -15.708 -22.812  0.00  0.00    -0.245 OA
ATOM     14  C   UNL     1      34.772 -16.373 -22.802  0.00  0.00    +0.338 C 
BRANCH  14  15
ATOM     15  O   UNL     1      35.798 -16.227 -23.673  0.00  0.00    -0.477 OA
ATOM     16  H   UNL     1      36.680 -16.363 -23.386  0.00  0.00    +0.295 HD
ENDBRANCH  14  15
ENDBRANCH  12  14
ENDBRANCH   1  11
TORSDOF 5
ENDMDL
MODEL 4
REMARK VINA RESULT:      -7.3      1.225      5.726
REMARK  Name = 689043
REMARK  5 active torsions:
REMARK  status: ('A' for Active; 'I' for Inactive)
REMARK    1  A    between atoms: C_1  and  C_11
REMARK    2  A    between atoms: C_4  and  O_7
REMARK    3  A    between atoms: C_5  and  O_9
REMARK    4  A    between atoms: C_12  and  C_14
REMARK    5  A    between atoms: C_14  and  O_15
REMARK                            x       y       z     vdW  Elec       q    Type
REMARK                         _______ _______ _______ _____ _____    ______ ____
ROOT
ATOM      1  C   UNL     1      34.236 -19.075 -21.465  0.00  0.00    +0.003 C 
ATOM      2  C   UNL     1      34.227 -17.761 -20.997  0.00  0.00    +0.040 C 
ATOM      3  C   UNL     1      34.738 -19.359 -22.735  0.00  0.00    +0.003 C 
ATOM      4  C   UNL     1      34.723 -16.732 -21.797  0.00  0.00    +0.167 C 
ATOM      5  C   UNL     1      35.225 -17.016 -23.066  0.00  0.00    +0.167 C 
ATOM      6  C   UNL     1      35.233 -18.330 -23.535  0.00  0.00    +0.040 C 
ENDROOT
BRANCH   4   7
ATOM      7  O   UNL     1      34.708 -15.452 -21.330  0.00  0.00    -0.503 OA
ATOM      8  H   UNL     1      35.509 -14.971 -21.258  0.00  0.00    +0.292 HD
ENDBRANCH   4   7
BRANCH   5   9
ATOM      9  O   UNL     1      35.710 -16.020 -23.858  0.00  0.00    -0.503 OA
ATOM     10  H   UNL     1      36.577 -16.080 -24.209  0.00  0.00    +0.292 HD
ENDBRANCH   5   9
BRANCH   1  11
ATOM     11  C   UNL     1      33.720 -20.148 -20.630  0.00  0.00    +0.007 C 
ATOM     12  C   UNL     1      34.508 -20.945 -19.913  0.00  0.00    +0.082 C 
BRANCH  12  14
ATOM     13  O   UNL     1      32.690 -22.199 -18.947  0.00  0.00    -0.245 OA
ATOM     14  C   UNL     1      33.884 -22.016 -19.110  0.00  0.00    +0.338 C 
BRANCH  14  15
ATOM     15  O   UNL     1      34.864 -22.781 -18.572  0.00  0.00    -0.477 OA
ATOM     16  H   UNL     1      35.353 -23.368 -19.115  0.00  0.00    +0.295 HD
ENDBRANCH  14  15
ENDBRANCH  12  14
ENDBRANCH   1  11
TORSDOF 5
ENDMDL
MODEL 5
REMARK VINA RESULT:      -7.2      1.281      5.964
REMARK  Name = 689043
REMARK  5 active torsions:
REMARK  status: ('A' for Active; 'I' for Inactive)
REMARK    1  A    between atoms: C_1  and  C_11
REMARK    2  A    between atoms: C_4  and  O_7
REMARK    3  A    between atoms: C_5  and  O_9
REMARK    4  A    between atoms: C_12  and  C_14
REMARK    5  A    between atoms: C_14  and  O_15
REMARK                            x       y       z     vdW  Elec       q    Type
REMARK                         _______ _______ _______ _____ _____    ______ ____
ROOT
ATOM      1  C   UNL     1      34.641 -18.804 -22.627  0.00  0.00    +0.003 C 
ATOM      2  C   UNL     1      34.800 -17.431 -22.436  0.00  0.00    +0.040 C 
ATOM      3  C   UNL     1      34.524 -19.318 -23.919  0.00  0.00    +0.003 C 
ATOM      4  C   UNL     1      34.845 -16.574 -23.535  0.00  0.00    +0.167 C 
ATOM      5  C   UNL     1      34.728 -17.089 -24.826  0.00  0.00    +0.167 C 
ATOM      6  C   UNL     1      34.568 -18.461 -25.018  0.00  0.00    +0.040 C 
ENDROOT
BRANCH   4   7
ATOM      7  O   UNL     1      34.999 -15.235 -23.337  0.00  0.00    -0.503 OA
ATOM      8  H   UNL     1      34.387 -14.767 -22.804  0.00  0.00    +0.292 HD
ENDBRANCH   4   7
BRANCH   5   9
ATOM      9  O   UNL     1      34.768 -16.262 -25.907  0.00  0.00    -0.503 OA
ATOM     10  H   UNL     1      34.564 -15.353 -25.810  0.00  0.00    +0.292 HD
ENDBRANCH   5   9
BRANCH   1  11
ATOM     11  C   UNL     1      34.596 -19.697 -21.481  0.00  0.00    +0.007 C 
ATOM     12  C   UNL     1      33.459 -20.058 -20.892  0.00  0.00    +0.082 C 
BRANCH  12  14
ATOM     13  O   UNL     1      32.580 -21.385 -19.082  0.00  0.00    -0.245 OA
ATOM     14  C   UNL     1      33.525 -20.957 -19.722  0.00  0.00    +0.338 C 
BRANCH  14  15
ATOM     15  O   UNL     1      34.824 -21.239 -19.465  0.00  0.00    -0.477 OA
ATOM     16  H   UNL     1      35.482 -20.587 -19.604  0.00  0.00    +0.295 HD
ENDBRANCH  14  15
ENDBRANCH  12  14
ENDBRANCH   1  11
TORSDOF 5
ENDMDL
MODEL 6
REMARK VINA RESULT:      -7.0      1.043      5.794
REMARK  Name = 689043
REMARK  5 active torsions:
REMARK  status: ('A' for Active; 'I' for Inactive)
REMARK    1  A    between atoms: C_1  and  C_11
REMARK    2  A    between atoms: C_4  and  O_7
REMARK    3  A    between atoms: C_5  and  O_9
REMARK    4  A    between atoms: C_12  and  C_14
REMARK    5  A    between atoms: C_14  and  O_15
REMARK                            x       y       z     vdW  Elec       q    Type
REMARK                         _______ _______ _______ _____ _____    ______ ____
ROOT
ATOM      1  C   UNL     1      34.827 -19.003 -21.595  0.00  0.00    +0.003 C 
ATOM      2  C   UNL     1      34.756 -19.123 -22.983  0.00  0.00    +0.040 C 
ATOM      3  C   UNL     1      34.899 -17.739 -21.008  0.00  0.00    +0.003 C 
ATOM      4  C   UNL     1      34.754 -17.981 -23.783  0.00  0.00    +0.167 C 
ATOM      5  C   UNL     1      34.825 -16.718 -23.196  0.00  0.00    +0.167 C 
ATOM      6  C   UNL     1      34.897 -16.597 -21.808  0.00  0.00    +0.040 C 
ENDROOT
BRANCH   4   7
ATOM      7  O   UNL     1      34.685 -18.110 -25.137  0.00  0.00    -0.503 OA
ATOM      8  H   UNL     1      35.455 -18.324 -25.627  0.00  0.00    +0.292 HD
ENDBRANCH   4   7
BRANCH   5   9
ATOM      9  O   UNL     1      34.826 -15.595 -23.967  0.00  0.00    -0.503 OA
ATOM     10  H   UNL     1      35.545 -15.423 -24.542  0.00  0.00    +0.292 HD
ENDBRANCH   5   9
BRANCH   1  11
ATOM     11  C   UNL     1      34.828 -20.194 -20.761  0.00  0.00    +0.007 C 
ATOM     12  C   UNL     1      33.730 -20.666 -20.177  0.00  0.00    +0.082 C 
BRANCH  12  14
ATOM     13  O   UNL     1      34.841 -22.553 -19.170  0.00  0.00    -0.245 OA
ATOM     14  C   UNL     1      33.842 -21.874 -19.335  0.00  0.00    +0.338 C 
BRANCH  14  15
ATOM     15  O   UNL     1      32.638 -22.117 -18.763  0.00  0.00    -0.477 OA
ATOM     16  H   UNL     1      32.590 -22.590 -17.955  0.00  0.00    +0.295 HD
ENDBRANCH  14  15
ENDBRANCH  12  14
ENDBRANCH   1  11
TORSDOF 5
ENDMDL
MODEL 7
REMARK VINA RESULT:      -6.9      5.175      7.463
REMARK  Name = 689043
REMARK  5 active torsions:
REMARK  status: ('A' for Active; 'I' for Inactive)
REMARK    1  A    between atoms: C_1  and  C_11
REMARK    2  A    between atoms: C_4  and  O_7
REMARK    3  A    between atoms: C_5  and  O_9
REMARK    4  A    between atoms: C_12  and  C_14
REMARK    5  A    between atoms: C_14  and  O_15
REMARK                            x       y       z     vdW  Elec       q    Type
REMARK                         _______ _______ _______ _____ _____    ______ ____
ROOT
ATOM      1  C   UNL     1      31.878 -23.340 -16.127  0.00  0.00    +0.003 C 
ATOM      2  C   UNL     1      32.749 -23.852 -15.165  0.00  0.00    +0.040 C 
ATOM      3  C   UNL     1      30.503 -23.337 -15.890  0.00  0.00    +0.003 C 
ATOM      4  C   UNL     1      32.247 -24.359 -13.967  0.00  0.00    +0.167 C 
ATOM      5  C   UNL     1      30.872 -24.356 -13.731  0.00  0.00    +0.167 C 
ATOM      6  C   UNL     1      30.000 -23.845 -14.692  0.00  0.00    +0.040 C 
ENDROOT
BRANCH   4   7
ATOM      7  O   UNL     1      33.106 -24.858 -13.036  0.00  0.00    -0.503 OA
ATOM      8  H   UNL     1      34.004 -25.009 -13.261  0.00  0.00    +0.292 HD
ENDBRANCH   4   7
BRANCH   5   9
ATOM      9  O   UNL     1      30.369 -24.850 -12.566  0.00  0.00    -0.503 OA
ATOM     10  H   UNL     1      30.689 -25.662 -12.224  0.00  0.00    +0.292 HD
ENDBRANCH   5   9
BRANCH   1  11
ATOM     11  C   UNL     1      32.403 -22.810 -17.375  0.00  0.00    +0.007 C 
ATOM     12  C   UNL     1      33.611 -23.120 -17.838  0.00  0.00    +0.082 C 
BRANCH  12  14
ATOM     13  O   UNL     1      35.203 -22.438 -19.515  0.00  0.00    -0.245 OA
ATOM     14  C   UNL     1      34.056 -22.513 -19.109  0.00  0.00    +0.338 C 
BRANCH  14  15
ATOM     15  O   UNL     1      32.970 -22.043 -19.769  0.00  0.00    -0.477 OA
ATOM     16  H   UNL     1      32.178 -22.543 -19.783  0.00  0.00    +0.295 HD
ENDBRANCH  14  15
ENDBRANCH  12  14
ENDBRANCH   1  11
TORSDOF 5
ENDMDL
MODEL 8
REMARK VINA RESULT:      -6.8      7.958      9.046
REMARK  Name = 689043
REMARK  5 active torsions:
REMARK  status: ('A' for Active; 'I' for Inactive)
REMARK    1  A    between atoms: C_1  and  C_11
REMARK    2  A    between atoms: C_4  and  O_7
REMARK    3  A    between atoms: C_5  and  O_9
REMARK    4  A    between atoms: C_12  and  C_14
REMARK    5  A    between atoms: C_14  and  O_15
REMARK                            x       y       z     vdW  Elec       q    Type
REMARK                         _______ _______ _______ _____ _____    ______ ____
ROOT
ATOM      1  C   UNL     1      30.761 -23.772 -15.438  0.00  0.00    +0.003 C 
ATOM      2  C   UNL     1      31.980 -23.100 -15.532  0.00  0.00    +0.040 C 
ATOM      3  C   UNL     1      30.591 -24.777 -14.485  0.00  0.00    +0.003 C 
ATOM      4  C   UNL     1      33.027 -23.430 -14.672  0.00  0.00    +0.167 C 
ATOM      5  C   UNL     1      32.856 -24.434 -13.719  0.00  0.00    +0.167 C 
ATOM      6  C   UNL     1      31.639 -25.107 -13.626  0.00  0.00    +0.040 C 
ENDROOT
BRANCH   4   7
ATOM      7  O   UNL     1      34.213 -22.768 -14.773  0.00  0.00    -0.503 OA
ATOM      8  H   UNL     1      34.463 -22.378 -15.587  0.00  0.00    +0.292 HD
ENDBRANCH   4   7
BRANCH   5   9
ATOM      9  O   UNL     1      33.872 -24.767 -12.875  0.00  0.00    -0.503 OA
ATOM     10  H   UNL     1      33.707 -24.863 -11.958  0.00  0.00    +0.292 HD
ENDBRANCH   5   9
BRANCH   1  11
ATOM     11  C   UNL     1      29.669 -23.426 -16.334  0.00  0.00    +0.007 C 
ATOM     12  C   UNL     1      28.520 -22.913 -15.904  0.00  0.00    +0.082 C 
BRANCH  12  14
ATOM     13  O   UNL     1      27.448 -22.964 -18.063  0.00  0.00    -0.245 OA
ATOM     14  C   UNL     1      27.467 -22.613 -16.896  0.00  0.00    +0.338 C 
BRANCH  14  15
ATOM     15  O   UNL     1      26.505 -21.871 -16.296  0.00  0.00    -0.477 OA
ATOM     16  H   UNL     1      25.816 -22.293 -15.822  0.00  0.00    +0.295 HD
ENDBRANCH  14  15
ENDBRANCH  12  14
ENDBRANCH   1  11
TORSDOF 5
ENDMDL
MODEL 9
REMARK VINA RESULT:      -6.8      7.360      8.376
REMARK  Name = 689043
REMARK  5 active torsions:
REMARK  status: ('A' for Active; 'I' for Inactive)
REMARK    1  A    between atoms: C_1  and  C_11
REMARK    2  A    between atoms: C_4  and  O_7
REMARK    3  A    between atoms: C_5  and  O_9
REMARK    4  A    between atoms: C_12  and  C_14
REMARK    5  A    between atoms: C_14  and  O_15
REMARK                            x       y       z     vdW  Elec       q    Type
REMARK                         _______ _______ _______ _____ _____    ______ ____
ROOT
ATOM      1  C   UNL     1      31.762 -23.281 -15.988  0.00  0.00    +0.003 C 
ATOM      2  C   UNL     1      31.783 -23.874 -14.725  0.00  0.00    +0.040 C 
ATOM      3  C   UNL     1      32.945 -23.145 -16.714  0.00  0.00    +0.003 C 
ATOM      4  C   UNL     1      32.987 -24.333 -14.190  0.00  0.00    +0.167 C 
ATOM      5  C   UNL     1      34.169 -24.197 -14.918  0.00  0.00    +0.167 C 
ATOM      6  C   UNL     1      34.148 -23.603 -16.179  0.00  0.00    +0.040 C 
ENDROOT
BRANCH   4   7
ATOM      7  O   UNL     1      32.997 -24.909 -12.956  0.00  0.00    -0.503 OA
ATOM      8  H   UNL     1      33.616 -24.627 -12.313  0.00  0.00    +0.292 HD
ENDBRANCH   4   7
BRANCH   5   9
ATOM      9  O   UNL     1      35.351 -24.640 -14.405  0.00  0.00    -0.503 OA
ATOM     10  H   UNL     1      36.009 -24.025 -14.146  0.00  0.00    +0.292 HD
ENDBRANCH   5   9
BRANCH   1  11
ATOM     11  C   UNL     1      30.506 -22.804 -16.545  0.00  0.00    +0.007 C 
ATOM     12  C   UNL     1      29.342 -23.404 -16.316  0.00  0.00    +0.082 C 
BRANCH  12  14
ATOM     13  O   UNL     1      27.708 -21.708 -16.833  0.00  0.00    -0.245 OA
ATOM     14  C   UNL     1      28.126 -22.849 -16.944  0.00  0.00    +0.338 C 
BRANCH  14  15
ATOM     15  O   UNL     1      27.535 -23.820 -17.679  0.00  0.00    -0.477 OA
ATOM     16  H   UNL     1      27.844 -24.009 -18.543  0.00  0.00    +0.295 HD
ENDBRANCH  14  15
ENDBRANCH  12  14
ENDBRANCH   1  11
TORSDOF 5
ENDMDL
