MODEL 1
REMARK VINA RESULT:     -10.1      0.000      0.000
REMARK  Name = 9946267
REMARK  6 active torsions:
REMARK  status: ('A' for Active; 'I' for Inactive)
REMARK    1  A    between atoms: C_2  and  O_17
REMARK    2  A    between atoms: C_3  and  N_7
REMARK    3  A    between atoms: C_4  and  O_19
REMARK    4  A    between atoms: C_5  and  C_21
REMARK    5  A    between atoms: C_21  and  O_22
REMARK    6  A    between atoms: O_22  and  S_23
REMARK                            x       y       z     vdW  Elec       q    Type
REMARK                         _______ _______ _______ _____ _____    ______ ____
ROOT
ATOM      1  O   UNL     1      37.052 -23.469 -14.879  0.00  0.00    -0.335 OA
ATOM      2  C   UNL     1      35.289 -24.165 -13.458  0.00  0.00    +0.183 C 
ATOM      3  C   UNL     1      35.711 -23.123 -14.483  0.00  0.00    +0.209 C 
ATOM      4  C   UNL     1      36.602 -24.443 -12.753  0.00  0.00    +0.171 C 
ATOM      5  C   UNL     1      37.607 -24.378 -13.900  0.00  0.00    +0.178 C 
ENDROOT
BRANCH   3   7
ATOM      6  O   UNL     1      33.043 -22.465 -19.769  0.00  0.00    -0.221 OA
ATOM      7  N   UNL     1      34.848 -23.065 -15.661  0.00  0.00    -0.210 NA
ATOM      8  N   UNL     1      33.013 -23.291 -16.935  0.00  0.00    -0.242 NA
ATOM      9  N   UNL     1      36.301 -22.105 -17.363  0.00  0.00    -0.259 NA
ATOM     10  N   UNL     1      35.258 -21.822 -19.516  0.00  0.00    -0.183 NA
ATOM     11  C   UNL     1      35.154 -22.609 -16.898  0.00  0.00    +0.173 C 
ATOM     12  C   UNL     1      33.533 -23.469 -15.732  0.00  0.00    +0.205 C 
ATOM     13  C   UNL     1      34.032 -22.750 -17.667  0.00  0.00    +0.167 C 
ATOM     14  C   UNL     1      34.037 -22.347 -19.064  0.00  0.00    +0.168 C 
ATOM     15  C   UNL     1      36.268 -21.733 -18.693  0.00  0.00    +0.211 C 
ATOM     16  H   UNL     1      37.104 -22.008 -16.802  0.00  0.00    +0.127 HD
ENDBRANCH   3   7
BRANCH   2  17
ATOM     17  O   UNL     1      34.288 -23.676 -12.589  0.00  0.00    -0.378 OA
ATOM     18  H   UNL     1      33.640 -24.377 -12.416  0.00  0.00    +0.211 HD
ENDBRANCH   2  17
BRANCH   4  19
ATOM     19  O   UNL     1      36.883 -23.387 -11.835  0.00  0.00    -0.379 OA
ATOM     20  H   UNL     1      36.977 -23.752 -10.942  0.00  0.00    +0.211 HD
ENDBRANCH   4  19
BRANCH   5  21
ATOM     21  C   UNL     1      37.831 -25.727 -14.570  0.00  0.00    +0.209 C 
BRANCH  21  22
ATOM     22  O   UNL     1      38.989 -26.323 -14.011  0.00  0.00    -0.198 OA
BRANCH  22  23
ATOM     23  S   UNL     1      40.473 -25.874 -14.536  0.00  0.00    +0.239 S 
ATOM     24  O   UNL     1      41.460 -27.012 -13.911  0.00  0.00    -0.022 OA
ATOM     25  O   UNL     1      40.492 -26.023 -15.980  0.00  0.00    -0.116 OA
ATOM     26  O   UNL     1      40.819 -24.602 -13.931  0.00  0.00    -0.116 OA
ENDBRANCH  22  23
ENDBRANCH  21  22
ENDBRANCH   5  21
TORSDOF 6
ENDMDL
MODEL 2
REMARK VINA RESULT:     -10.0      1.837      3.114
REMARK  Name = 9946267
REMARK  6 active torsions:
REMARK  status: ('A' for Active; 'I' for Inactive)
REMARK    1  A    between atoms: C_2  and  O_17
REMARK    2  A    between atoms: C_3  and  N_7
REMARK    3  A    between atoms: C_4  and  O_19
REMARK    4  A    between atoms: C_5  and  C_21
REMARK    5  A    between atoms: C_21  and  O_22
REMARK    6  A    between atoms: O_22  and  S_23
REMARK                            x       y       z     vdW  Elec       q    Type
REMARK                         _______ _______ _______ _____ _____    ______ ____
ROOT
ATOM      1  O   UNL     1      36.749 -23.408 -14.153  0.00  0.00    -0.335 OA
ATOM      2  C   UNL     1      35.457 -24.894 -12.837  0.00  0.00    +0.183 C 
ATOM      3  C   UNL     1      35.450 -23.548 -13.546  0.00  0.00    +0.209 C 
ATOM      4  C   UNL     1      36.898 -24.985 -12.375  0.00  0.00    +0.171 C 
ATOM      5  C   UNL     1      37.654 -24.357 -13.543  0.00  0.00    +0.178 C 
ENDROOT
BRANCH   3   7
ATOM      6  O   UNL     1      30.545 -23.024 -16.886  0.00  0.00    -0.221 OA
ATOM      7  N   UNL     1      34.412 -23.418 -14.566  0.00  0.00    -0.210 NA
ATOM      8  N   UNL     1      33.475 -23.238 -16.599  0.00  0.00    -0.242 NA
ATOM      9  N   UNL     1      32.358 -23.354 -13.261  0.00  0.00    -0.259 NA
ATOM     10  N   UNL     1      30.351 -23.143 -14.576  0.00  0.00    -0.183 NA
ATOM     11  C   UNL     1      33.073 -23.338 -14.391  0.00  0.00    +0.173 C 
ATOM     12  C   UNL     1      34.609 -23.354 -15.928  0.00  0.00    +0.205 C 
ATOM     13  C   UNL     1      32.510 -23.229 -15.632  0.00  0.00    +0.167 C 
ATOM     14  C   UNL     1      31.068 -23.122 -15.783  0.00  0.00    +0.168 C 
ATOM     15  C   UNL     1      30.992 -23.251 -13.444  0.00  0.00    +0.211 C 
ATOM     16  H   UNL     1      32.772 -23.432 -12.372  0.00  0.00    +0.127 HD
ENDBRANCH   3   7
BRANCH   2  17
ATOM     17  O   UNL     1      34.531 -24.934 -11.771  0.00  0.00    -0.378 OA
ATOM     18  H   UNL     1      33.794 -25.520 -12.005  0.00  0.00    +0.211 HD
ENDBRANCH   2  17
BRANCH   4  19
ATOM     19  O   UNL     1      37.079 -24.168 -11.218  0.00  0.00    -0.379 OA
ATOM     20  H   UNL     1      37.671 -23.431 -11.433  0.00  0.00    +0.211 HD
ENDBRANCH   4  19
BRANCH   5  21
ATOM     21  C   UNL     1      38.066 -25.374 -14.598  0.00  0.00    +0.209 C 
BRANCH  21  22
ATOM     22  O   UNL     1      39.079 -26.203 -14.056  0.00  0.00    -0.198 OA
BRANCH  22  23
ATOM     23  S   UNL     1      40.646 -25.942 -14.452  0.00  0.00    +0.239 S 
ATOM     24  O   UNL     1      40.655 -26.068 -16.078  0.00  0.00    -0.022 OA
ATOM     25  O   UNL     1      40.962 -24.565 -14.118  0.00  0.00    -0.116 OA
ATOM     26  O   UNL     1      41.450 -27.025 -13.916  0.00  0.00    -0.116 OA
ENDBRANCH  22  23
ENDBRANCH  21  22
ENDBRANCH   5  21
TORSDOF 6
ENDMDL
MODEL 3
REMARK VINA RESULT:     -10.0      4.639      7.938
REMARK  Name = 9946267
REMARK  6 active torsions:
REMARK  status: ('A' for Active; 'I' for Inactive)
REMARK    1  A    between atoms: C_2  and  O_17
REMARK    2  A    between atoms: C_3  and  N_7
REMARK    3  A    between atoms: C_4  and  O_19
REMARK    4  A    between atoms: C_5  and  C_21
REMARK    5  A    between atoms: C_21  and  O_22
REMARK    6  A    between atoms: O_22  and  S_23
REMARK                            x       y       z     vdW  Elec       q    Type
REMARK                         _______ _______ _______ _____ _____    ______ ____
ROOT
ATOM      1  O   UNL     1      31.504 -24.281 -15.984  0.00  0.00    -0.335 OA
ATOM      2  C   UNL     1      31.757 -22.974 -14.026  0.00  0.00    +0.183 C 
ATOM      3  C   UNL     1      32.426 -24.015 -14.910  0.00  0.00    +0.209 C 
ATOM      4  C   UNL     1      30.298 -23.369 -14.146  0.00  0.00    +0.171 C 
ATOM      5  C   UNL     1      30.195 -23.794 -15.608  0.00  0.00    +0.178 C 
ENDROOT
BRANCH   3   7
ATOM      6  O   UNL     1      38.029 -22.413 -16.148  0.00  0.00    -0.221 OA
ATOM      7  N   UNL     1      33.713 -23.593 -15.457  0.00  0.00    -0.210 NA
ATOM      8  N   UNL     1      35.235 -22.911 -16.962  0.00  0.00    -0.242 NA
ATOM      9  N   UNL     1      35.185 -23.650 -13.519  0.00  0.00    -0.259 NA
ATOM     10  N   UNL     1      37.460 -23.007 -13.978  0.00  0.00    -0.183 NA
ATOM     11  C   UNL     1      34.891 -23.448 -14.807  0.00  0.00    +0.173 C 
ATOM     12  C   UNL     1      33.972 -23.254 -16.767  0.00  0.00    +0.205 C 
ATOM     13  C   UNL     1      35.812 -23.032 -15.729  0.00  0.00    +0.167 C 
ATOM     14  C   UNL     1      37.190 -22.785 -15.338  0.00  0.00    +0.168 C 
ATOM     15  C   UNL     1      36.503 -23.404 -13.184  0.00  0.00    +0.211 C 
ATOM     16  H   UNL     1      34.516 -23.949 -12.862  0.00  0.00    +0.127 HD
ENDBRANCH   3   7
BRANCH   2  17
ATOM     17  O   UNL     1      32.236 -23.023 -12.697  0.00  0.00    -0.378 OA
ATOM     18  H   UNL     1      31.491 -23.160 -12.091  0.00  0.00    +0.211 HD
ENDBRANCH   2  17
BRANCH   4  19
ATOM     19  O   UNL     1      30.042 -24.502 -13.318  0.00  0.00    -0.379 OA
ATOM     20  H   UNL     1      30.426 -25.294 -13.726  0.00  0.00    +0.211 HD
ENDBRANCH   4  19
BRANCH   5  21
ATOM     21  C   UNL     1      29.825 -22.645 -16.535  0.00  0.00    +0.209 C 
BRANCH  21  22
ATOM     22  O   UNL     1      28.671 -22.004 -16.023  0.00  0.00    -0.198 OA
BRANCH  22  23
ATOM     23  S   UNL     1      27.199 -22.343 -16.656  0.00  0.00    +0.239 S 
ATOM     24  O   UNL     1      26.869 -21.037 -17.575  0.00  0.00    -0.022 OA
ATOM     25  O   UNL     1      27.355 -23.478 -17.548  0.00  0.00    -0.116 OA
ATOM     26  O   UNL     1      26.227 -22.389 -15.580  0.00  0.00    -0.116 OA
ENDBRANCH  22  23
ENDBRANCH  21  22
ENDBRANCH   5  21
TORSDOF 6
ENDMDL
MODEL 4
REMARK VINA RESULT:      -9.8      4.239      6.999
REMARK  Name = 9946267
REMARK  6 active torsions:
REMARK  status: ('A' for Active; 'I' for Inactive)
REMARK    1  A    between atoms: C_2  and  O_17
REMARK    2  A    between atoms: C_3  and  N_7
REMARK    3  A    between atoms: C_4  and  O_19
REMARK    4  A    between atoms: C_5  and  C_21
REMARK    5  A    between atoms: C_21  and  O_22
REMARK    6  A    between atoms: O_22  and  S_23
REMARK                            x       y       z     vdW  Elec       q    Type
REMARK                         _______ _______ _______ _____ _____    ______ ____
ROOT
ATOM      1  O   UNL     1      32.031 -25.397 -14.598  0.00  0.00    -0.335 OA
ATOM      2  C   UNL     1      31.591 -23.305 -13.579  0.00  0.00    +0.183 C 
ATOM      3  C   UNL     1      32.660 -24.358 -13.824  0.00  0.00    +0.209 C 
ATOM      4  C   UNL     1      30.347 -24.162 -13.454  0.00  0.00    +0.171 C 
ATOM      5  C   UNL     1      30.596 -25.250 -14.496  0.00  0.00    +0.178 C 
ENDROOT
BRANCH   3   7
ATOM      6  O   UNL     1      36.793 -22.221 -17.546  0.00  0.00    -0.221 OA
ATOM      7  N   UNL     1      33.836 -23.858 -14.535  0.00  0.00    -0.210 NA
ATOM      8  N   UNL     1      35.964 -23.243 -14.904  0.00  0.00    -0.242 NA
ATOM      9  N   UNL     1      32.971 -23.363 -16.756  0.00  0.00    -0.259 NA
ATOM     10  N   UNL     1      34.613 -22.497 -18.292  0.00  0.00    -0.183 NA
ATOM     11  C   UNL     1      33.920 -23.436 -15.818  0.00  0.00    +0.173 C 
ATOM     12  C   UNL     1      35.106 -23.722 -14.019  0.00  0.00    +0.205 C 
ATOM     13  C   UNL     1      35.218 -23.064 -16.035  0.00  0.00    +0.167 C 
ATOM     14  C   UNL     1      35.635 -22.559 -17.332  0.00  0.00    +0.168 C 
ATOM     15  C   UNL     1      33.405 -22.879 -17.976  0.00  0.00    +0.211 C 
ATOM     16  H   UNL     1      32.039 -23.633 -16.591  0.00  0.00    +0.127 HD
ENDBRANCH   3   7
BRANCH   2  17
ATOM     17  O   UNL     1      31.856 -22.543 -12.418  0.00  0.00    -0.378 OA
ATOM     18  H   UNL     1      32.786 -22.654 -12.166  0.00  0.00    +0.211 HD
ENDBRANCH   2  17
BRANCH   4  19
ATOM     19  O   UNL     1      30.311 -24.764 -12.161  0.00  0.00    -0.379 OA
ATOM     20  H   UNL     1      31.166 -25.182 -11.975  0.00  0.00    +0.211 HD
ENDBRANCH   4  19
BRANCH   5  21
ATOM     21  C   UNL     1      30.051 -24.889 -15.872  0.00  0.00    +0.209 C 
BRANCH  21  22
ATOM     22  O   UNL     1      28.780 -24.283 -15.710  0.00  0.00    -0.198 OA
BRANCH  22  23
ATOM     23  S   UNL     1      28.416 -22.917 -16.537  0.00  0.00    +0.239 S 
ATOM     24  O   UNL     1      29.850 -22.458 -17.164  0.00  0.00    -0.022 OA
ATOM     25  O   UNL     1      27.553 -23.289 -17.643  0.00  0.00    -0.116 OA
ATOM     26  O   UNL     1      27.995 -21.899 -15.594  0.00  0.00    -0.116 OA
ENDBRANCH  22  23
ENDBRANCH  21  22
ENDBRANCH   5  21
TORSDOF 6
ENDMDL
MODEL 5
REMARK VINA RESULT:      -9.7      2.464      4.035
REMARK  Name = 9946267
REMARK  6 active torsions:
REMARK  status: ('A' for Active; 'I' for Inactive)
REMARK    1  A    between atoms: C_2  and  O_17
REMARK    2  A    between atoms: C_3  and  N_7
REMARK    3  A    between atoms: C_4  and  O_19
REMARK    4  A    between atoms: C_5  and  C_21
REMARK    5  A    between atoms: C_21  and  O_22
REMARK    6  A    between atoms: O_22  and  S_23
REMARK                            x       y       z     vdW  Elec       q    Type
REMARK                         _______ _______ _______ _____ _____    ______ ____
ROOT
ATOM      1  O   UNL     1      35.573 -24.705 -15.749  0.00  0.00    -0.335 OA
ATOM      2  C   UNL     1      36.213 -22.427 -15.649  0.00  0.00    +0.183 C 
ATOM      3  C   UNL     1      35.558 -23.488 -16.519  0.00  0.00    +0.209 C 
ATOM      4  C   UNL     1      37.256 -23.244 -14.911  0.00  0.00    +0.171 C 
ATOM      5  C   UNL     1      36.525 -24.562 -14.669  0.00  0.00    +0.178 C 
ENDROOT
BRANCH   3   7
ATOM      6  O   UNL     1      29.718 -22.481 -17.134  0.00  0.00    -0.221 OA
ATOM      7  N   UNL     1      34.187 -23.171 -16.913  0.00  0.00    -0.210 NA
ATOM      8  N   UNL     1      32.469 -22.522 -18.206  0.00  0.00    -0.242 NA
ATOM      9  N   UNL     1      32.909 -23.636 -14.894  0.00  0.00    -0.259 NA
ATOM     10  N   UNL     1      30.542 -23.242 -15.102  0.00  0.00    -0.183 NA
ATOM     11  C   UNL     1      33.062 -23.253 -16.165  0.00  0.00    +0.173 C 
ATOM     12  C   UNL     1      33.775 -22.721 -18.149  0.00  0.00    +0.205 C 
ATOM     13  C   UNL     1      32.021 -22.857 -16.959  0.00  0.00    +0.167 C 
ATOM     14  C   UNL     1      30.663 -22.833 -16.440  0.00  0.00    +0.168 C 
ATOM     15  C   UNL     1      31.606 -23.601 -14.436  0.00  0.00    +0.211 C 
ATOM     16  H   UNL     1      33.664 -23.920 -14.330  0.00  0.00    +0.127 HD
ENDBRANCH   3   7
BRANCH   2  17
ATOM     17  O   UNL     1      36.773 -21.383 -16.420  0.00  0.00    -0.378 OA
ATOM     18  H   UNL     1      36.293 -20.559 -16.243  0.00  0.00    +0.211 HD
ENDBRANCH   2  17
BRANCH   4  19
ATOM     19  O   UNL     1      38.368 -23.486 -15.773  0.00  0.00    -0.379 OA
ATOM     20  H   UNL     1      38.905 -22.681 -15.840  0.00  0.00    +0.211 HD
ENDBRANCH   4  19
BRANCH   5  21
ATOM     21  C   UNL     1      35.764 -24.585 -13.351  0.00  0.00    +0.209 C 
BRANCH  21  22
ATOM     22  O   UNL     1      36.194 -23.489 -12.562  0.00  0.00    -0.198 OA
BRANCH  22  23
ATOM     23  S   UNL     1      37.258 -23.730 -11.340  0.00  0.00    +0.239 S 
ATOM     24  O   UNL     1      37.826 -25.233 -11.620  0.00  0.00    -0.022 OA
ATOM     25  O   UNL     1      38.359 -22.804 -11.527  0.00  0.00    -0.116 OA
ATOM     26  O   UNL     1      36.530 -23.755 -10.085  0.00  0.00    -0.116 OA
ENDBRANCH  22  23
ENDBRANCH  21  22
ENDBRANCH   5  21
TORSDOF 6
ENDMDL
MODEL 6
REMARK VINA RESULT:      -9.6      2.304      3.593
REMARK  Name = 9946267
REMARK  6 active torsions:
REMARK  status: ('A' for Active; 'I' for Inactive)
REMARK    1  A    between atoms: C_2  and  O_17
REMARK    2  A    between atoms: C_3  and  N_7
REMARK    3  A    between atoms: C_4  and  O_19
REMARK    4  A    between atoms: C_5  and  C_21
REMARK    5  A    between atoms: C_21  and  O_22
REMARK    6  A    between atoms: O_22  and  S_23
REMARK                            x       y       z     vdW  Elec       q    Type
REMARK                         _______ _______ _______ _____ _____    ______ ____
ROOT
ATOM      1  O   UNL     1      35.250 -24.312 -15.802  0.00  0.00    -0.335 OA
ATOM      2  C   UNL     1      36.467 -22.281 -15.765  0.00  0.00    +0.183 C 
ATOM      3  C   UNL     1      35.826 -23.320 -16.672  0.00  0.00    +0.209 C 
ATOM      4  C   UNL     1      36.950 -23.142 -14.614  0.00  0.00    +0.171 C 
ATOM      5  C   UNL     1      35.828 -24.168 -14.483  0.00  0.00    +0.178 C 
ENDROOT
BRANCH   3   7
ATOM      6  O   UNL     1      32.429 -20.625 -20.757  0.00  0.00    -0.221 OA
ATOM      7  N   UNL     1      34.795 -22.782 -17.557  0.00  0.00    -0.210 NA
ATOM      8  N   UNL     1      32.759 -22.406 -18.426  0.00  0.00    -0.242 NA
ATOM      9  N   UNL     1      36.061 -21.384 -19.096  0.00  0.00    -0.259 NA
ATOM     10  N   UNL     1      34.723 -20.275 -20.764  0.00  0.00    -0.183 NA
ATOM     11  C   UNL     1      34.949 -21.937 -18.603  0.00  0.00    +0.173 C 
ATOM     12  C   UNL     1      33.443 -23.039 -17.488  0.00  0.00    +0.205 C 
ATOM     13  C   UNL     1      33.706 -21.713 -19.126  0.00  0.00    +0.167 C 
ATOM     14  C   UNL     1      33.534 -20.838 -20.275  0.00  0.00    +0.168 C 
ATOM     15  C   UNL     1      35.858 -20.558 -20.186  0.00  0.00    +0.211 C 
ATOM     16  H   UNL     1      36.953 -21.551 -18.714  0.00  0.00    +0.127 HD
ENDBRANCH   3   7
BRANCH   2  17
ATOM     17  O   UNL     1      37.514 -21.588 -16.414  0.00  0.00    -0.378 OA
ATOM     18  H   UNL     1      38.252 -22.196 -16.574  0.00  0.00    +0.211 HD
ENDBRANCH   2  17
BRANCH   4  19
ATOM     19  O   UNL     1      38.148 -23.817 -14.995  0.00  0.00    -0.379 OA
ATOM     20  H   UNL     1      37.960 -24.758 -15.131  0.00  0.00    +0.211 HD
ENDBRANCH   4  19
BRANCH   5  21
ATOM     21  C   UNL     1      34.731 -23.729 -13.523  0.00  0.00    +0.209 C 
BRANCH  21  22
ATOM     22  O   UNL     1      34.713 -24.617 -12.420  0.00  0.00    -0.198 OA
BRANCH  22  23
ATOM     23  S   UNL     1      35.949 -24.612 -11.346  0.00  0.00    +0.239 S 
ATOM     24  O   UNL     1      35.213 -24.875  -9.915  0.00  0.00    -0.022 OA
ATOM     25  O   UNL     1      36.783 -25.765 -11.629  0.00  0.00    -0.116 OA
ATOM     26  O   UNL     1      36.531 -23.283 -11.311  0.00  0.00    -0.116 OA
ENDBRANCH  22  23
ENDBRANCH  21  22
ENDBRANCH   5  21
TORSDOF 6
ENDMDL
MODEL 7
REMARK VINA RESULT:      -9.1      6.748     10.850
REMARK  Name = 9946267
REMARK  6 active torsions:
REMARK  status: ('A' for Active; 'I' for Inactive)
REMARK    1  A    between atoms: C_2  and  O_17
REMARK    2  A    between atoms: C_3  and  N_7
REMARK    3  A    between atoms: C_4  and  O_19
REMARK    4  A    between atoms: C_5  and  C_21
REMARK    5  A    between atoms: C_21  and  O_22
REMARK    6  A    between atoms: O_22  and  S_23
REMARK                            x       y       z     vdW  Elec       q    Type
REMARK                         _______ _______ _______ _____ _____    ______ ____
ROOT
ATOM      1  O   UNL     1      34.758 -17.100 -20.841  0.00  0.00    -0.335 OA
ATOM      2  C   UNL     1      34.207 -17.949 -22.982  0.00  0.00    +0.183 C 
ATOM      3  C   UNL     1      34.863 -18.286 -21.652  0.00  0.00    +0.209 C 
ATOM      4  C   UNL     1      34.566 -16.484 -23.133  0.00  0.00    +0.171 C 
ATOM      5  C   UNL     1      34.460 -15.974 -21.699  0.00  0.00    +0.178 C 
ENDROOT
BRANCH   3   7
ATOM      6  O   UNL     1      33.348 -23.083 -18.461  0.00  0.00    -0.221 OA
ATOM      7  N   UNL     1      34.250 -19.415 -20.955  0.00  0.00    -0.210 NA
ATOM      8  N   UNL     1      32.663 -20.841 -20.255  0.00  0.00    -0.242 NA
ATOM      9  N   UNL     1      36.131 -20.437 -19.796  0.00  0.00    -0.259 NA
ATOM     10  N   UNL     1      35.559 -22.381 -18.494  0.00  0.00    -0.183 NA
ATOM     11  C   UNL     1      34.848 -20.328 -20.155  0.00  0.00    +0.173 C 
ATOM     12  C   UNL     1      32.919 -19.769 -20.986  0.00  0.00    +0.205 C 
ATOM     13  C   UNL     1      33.876 -21.192 -19.733  0.00  0.00    +0.167 C 
ATOM     14  C   UNL     1      34.204 -22.299 -18.850  0.00  0.00    +0.168 C 
ATOM     15  C   UNL     1      36.404 -21.500 -18.957  0.00  0.00    +0.211 C 
ATOM     16  H   UNL     1      36.825 -19.810 -20.104  0.00  0.00    +0.127 HD
ENDBRANCH   3   7
BRANCH   2  17
ATOM     17  O   UNL     1      34.705 -18.752 -24.034  0.00  0.00    -0.378 OA
ATOM     18  H   UNL     1      34.613 -18.276 -24.874  0.00  0.00    +0.211 HD
ENDBRANCH   2  17
BRANCH   4  19
ATOM     19  O   UNL     1      35.922 -16.368 -23.563  0.00  0.00    -0.379 OA
ATOM     20  H   UNL     1      36.019 -15.578 -24.118  0.00  0.00    +0.211 HD
ENDBRANCH   4  19
BRANCH   5  21
ATOM     21  C   UNL     1      33.067 -15.462 -21.354  0.00  0.00    +0.209 C 
BRANCH  21  22
ATOM     22  O   UNL     1      33.092 -14.046 -21.357  0.00  0.00    -0.198 OA
BRANCH  22  23
ATOM     23  S   UNL     1      32.661 -13.225 -22.707  0.00  0.00    +0.239 S 
ATOM     24  O   UNL     1      34.090 -12.830 -23.385  0.00  0.00    -0.022 OA
ATOM     25  O   UNL     1      31.997 -14.159 -23.597  0.00  0.00    -0.116 OA
ATOM     26  O   UNL     1      31.998 -11.996 -22.314  0.00  0.00    -0.116 OA
ENDBRANCH  22  23
ENDBRANCH  21  22
ENDBRANCH   5  21
TORSDOF 6
ENDMDL
MODEL 8
REMARK VINA RESULT:      -9.1      3.248      6.591
REMARK  Name = 9946267
REMARK  6 active torsions:
REMARK  status: ('A' for Active; 'I' for Inactive)
REMARK    1  A    between atoms: C_2  and  O_17
REMARK    2  A    between atoms: C_3  and  N_7
REMARK    3  A    between atoms: C_4  and  O_19
REMARK    4  A    between atoms: C_5  and  C_21
REMARK    5  A    between atoms: C_21  and  O_22
REMARK    6  A    between atoms: O_22  and  S_23
REMARK                            x       y       z     vdW  Elec       q    Type
REMARK                         _______ _______ _______ _____ _____    ______ ____
ROOT
ATOM      1  O   UNL     1      32.682 -24.519 -15.645  0.00  0.00    -0.335 OA
ATOM      2  C   UNL     1      32.414 -22.910 -13.928  0.00  0.00    +0.183 C 
ATOM      3  C   UNL     1      33.054 -24.244 -14.281  0.00  0.00    +0.209 C 
ATOM      4  C   UNL     1      31.122 -22.976 -14.719  0.00  0.00    +0.171 C 
ATOM      5  C   UNL     1      31.563 -23.675 -16.002  0.00  0.00    +0.178 C 
ENDROOT
BRANCH   3   7
ATOM      6  O   UNL     1      38.804 -24.267 -12.722  0.00  0.00    -0.221 OA
ATOM      7  N   UNL     1      34.510 -24.258 -14.155  0.00  0.00    -0.210 NA
ATOM      8  N   UNL     1      36.671 -24.295 -14.763  0.00  0.00    -0.242 NA
ATOM      9  N   UNL     1      34.857 -24.202 -11.746  0.00  0.00    -0.259 NA
ATOM     10  N   UNL     1      37.170 -24.209 -11.074  0.00  0.00    -0.183 NA
ATOM     11  C   UNL     1      35.251 -24.237 -13.022  0.00  0.00    +0.173 C 
ATOM     12  C   UNL     1      35.419 -24.292 -15.189  0.00  0.00    +0.205 C 
ATOM     13  C   UNL     1      36.565 -24.260 -13.401  0.00  0.00    +0.167 C 
ATOM     14  C   UNL     1      37.622 -24.247 -12.403  0.00  0.00    +0.168 C 
ATOM     15  C   UNL     1      35.889 -24.190 -10.826  0.00  0.00    +0.211 C 
ATOM     16  H   UNL     1      33.909 -24.186 -11.482  0.00  0.00    +0.127 HD
ENDBRANCH   3   7
BRANCH   2  17
ATOM     17  O   UNL     1      32.204 -22.777 -12.537  0.00  0.00    -0.378 OA
ATOM     18  H   UNL     1      31.430 -23.299 -12.276  0.00  0.00    +0.211 HD
ENDBRANCH   2  17
BRANCH   4  19
ATOM     19  O   UNL     1      30.189 -23.812 -14.036  0.00  0.00    -0.379 OA
ATOM     20  H   UNL     1      29.297 -23.442 -14.127  0.00  0.00    +0.211 HD
ENDBRANCH   4  19
BRANCH   5  21
ATOM     21  C   UNL     1      32.020 -22.702 -17.081  0.00  0.00    +0.209 C 
BRANCH  21  22
ATOM     22  O   UNL     1      33.366 -22.995 -17.413  0.00  0.00    -0.198 OA
BRANCH  22  23
ATOM     23  S   UNL     1      33.921 -22.685 -18.921  0.00  0.00    +0.239 S 
ATOM     24  O   UNL     1      33.883 -24.144 -19.649  0.00  0.00    -0.022 OA
ATOM     25  O   UNL     1      32.945 -21.840 -19.585  0.00  0.00    -0.116 OA
ATOM     26  O   UNL     1      35.307 -22.266 -18.833  0.00  0.00    -0.116 OA
ENDBRANCH  22  23
ENDBRANCH  21  22
ENDBRANCH   5  21
TORSDOF 6
ENDMDL
MODEL 9
REMARK VINA RESULT:      -9.0      2.880      4.886
REMARK  Name = 9946267
REMARK  6 active torsions:
REMARK  status: ('A' for Active; 'I' for Inactive)
REMARK    1  A    between atoms: C_2  and  O_17
REMARK    2  A    between atoms: C_3  and  N_7
REMARK    3  A    between atoms: C_4  and  O_19
REMARK    4  A    between atoms: C_5  and  C_21
REMARK    5  A    between atoms: C_21  and  O_22
REMARK    6  A    between atoms: O_22  and  S_23
REMARK                            x       y       z     vdW  Elec       q    Type
REMARK                         _______ _______ _______ _____ _____    ______ ____
ROOT
ATOM      1  O   UNL     1      34.875 -24.594 -15.761  0.00  0.00    -0.335 OA
ATOM      2  C   UNL     1      36.016 -22.549 -15.406  0.00  0.00    +0.183 C 
ATOM      3  C   UNL     1      35.516 -23.515 -16.469  0.00  0.00    +0.209 C 
ATOM      4  C   UNL     1      36.392 -23.500 -14.287  0.00  0.00    +0.171 C 
ATOM      5  C   UNL     1      35.295 -24.558 -14.377  0.00  0.00    +0.178 C 
ENDROOT
BRANCH   3   7
ATOM      6  O   UNL     1      32.543 -20.632 -20.752  0.00  0.00    -0.221 OA
ATOM      7  N   UNL     1      34.575 -22.921 -17.417  0.00  0.00    -0.210 NA
ATOM      8  N   UNL     1      32.624 -22.438 -18.418  0.00  0.00    -0.242 NA
ATOM      9  N   UNL     1      36.012 -21.583 -18.856  0.00  0.00    -0.259 NA
ATOM     10  N   UNL     1      34.847 -20.400 -20.602  0.00  0.00    -0.183 NA
ATOM     11  C   UNL     1      34.843 -22.081 -18.444  0.00  0.00    +0.173 C 
ATOM     12  C   UNL     1      33.211 -23.109 -17.441  0.00  0.00    +0.205 C 
ATOM     13  C   UNL     1      33.650 -21.791 -19.048  0.00  0.00    +0.167 C 
ATOM     14  C   UNL     1      33.601 -20.904 -20.198  0.00  0.00    +0.168 C 
ATOM     15  C   UNL     1      35.925 -20.743 -19.951  0.00  0.00    +0.211 C 
ATOM     16  H   UNL     1      36.866 -21.796 -18.416  0.00  0.00    +0.127 HD
ENDBRANCH   3   7
BRANCH   2  17
ATOM     17  O   UNL     1      37.107 -21.777 -15.866  0.00  0.00    -0.378 OA
ATOM     18  H   UNL     1      37.063 -20.891 -15.475  0.00  0.00    +0.211 HD
ENDBRANCH   2  17
BRANCH   4  19
ATOM     19  O   UNL     1      37.647 -24.112 -14.583  0.00  0.00    -0.379 OA
ATOM     20  H   UNL     1      37.506 -25.045 -14.807  0.00  0.00    +0.211 HD
ENDBRANCH   4  19
BRANCH   5  21
ATOM     21  C   UNL     1      34.083 -24.231 -13.516  0.00  0.00    +0.209 C 
BRANCH  21  22
ATOM     22  O   UNL     1      32.923 -24.723 -14.162  0.00  0.00    -0.198 OA
BRANCH  22  23
ATOM     23  S   UNL     1      31.505 -23.916 -14.021  0.00  0.00    +0.239 S 
ATOM     24  O   UNL     1      30.606 -24.507 -15.247  0.00  0.00    -0.022 OA
ATOM     25  O   UNL     1      30.881 -24.334 -12.779  0.00  0.00    -0.116 OA
ATOM     26  O   UNL     1      31.742 -22.508 -14.280  0.00  0.00    -0.116 OA
ENDBRANCH  22  23
ENDBRANCH  21  22
ENDBRANCH   5  21
TORSDOF 6
ENDMDL
