MODEL 1
REMARK VINA RESULT:      -4.5      0.000      0.000
REMARK  Name = 6503
REMARK  7 active torsions:
REMARK  status: ('A' for Active; 'I' for Inactive)
REMARK    1  A    between atoms: C_1  and  N_2
REMARK    2  A    between atoms: C_1  and  C_6
REMARK    3  A    between atoms: C_1  and  C_9
REMARK    4  A    between atoms: C_1  and  C_12
REMARK    5  A    between atoms: C_6  and  O_7
REMARK    6  A    between atoms: C_9  and  O_10
REMARK    7  A    between atoms: C_12  and  O_13
REMARK                            x       y       z     vdW  Elec       q    Type
REMARK                         _______ _______ _______ _____ _____    ______ ____
ROOT
ATOM      1  C   UNL     1      38.636 -25.381 -14.228  0.00  0.00    +0.033 C 
ENDROOT
BRANCH   1   2
ATOM      2  N   UNL     1      38.579 -25.256 -12.763  0.00  0.00    +0.388 N 
ATOM      3  H   UNL     1      38.855 -24.312 -12.491  0.00  0.00    -0.089 HD
ATOM      4  H   UNL     1      39.216 -25.931 -12.339  0.00  0.00    -0.089 HD
ATOM      5  H   UNL     1      37.628 -25.438 -12.443  0.00  0.00    -0.089 HD
ENDBRANCH   1   2
BRANCH   1   6
ATOM      6  C   UNL     1      37.906 -26.685 -14.607  0.00  0.00    +0.122 C 
BRANCH   6   7
ATOM      7  O   UNL     1      37.346 -26.579 -15.910  0.00  0.00    -0.384 OA
ATOM      8  H   UNL     1      37.717 -27.272 -16.480  0.00  0.00    +0.210 HD
ENDBRANCH   6   7
ENDBRANCH   1   6
BRANCH   1   9
ATOM      9  C   UNL     1      37.965 -24.145 -14.865  0.00  0.00    +0.122 C 
BRANCH   9  10
ATOM     10  O   UNL     1      38.757 -23.623 -15.926  0.00  0.00    -0.384 OA
ATOM     11  H   UNL     1      38.473 -22.716 -16.124  0.00  0.00    +0.210 HD
ENDBRANCH   9  10
ENDBRANCH   1   9
BRANCH   1  12
ATOM     12  C   UNL     1      40.118 -25.409 -14.660  0.00  0.00    +0.122 C 
BRANCH  12  13
ATOM     13  O   UNL     1      40.258 -25.931 -15.976  0.00  0.00    -0.384 OA
ATOM     14  H   UNL     1      41.200 -25.992 -16.201  0.00  0.00    +0.210 HD
ENDBRANCH  12  13
ENDBRANCH   1  12
TORSDOF 7
ENDMDL
MODEL 2
REMARK VINA RESULT:      -4.5      0.067      2.411
REMARK  Name = 6503
REMARK  7 active torsions:
REMARK  status: ('A' for Active; 'I' for Inactive)
REMARK    1  A    between atoms: C_1  and  N_2
REMARK    2  A    between atoms: C_1  and  C_6
REMARK    3  A    between atoms: C_1  and  C_9
REMARK    4  A    between atoms: C_1  and  C_12
REMARK    5  A    between atoms: C_6  and  O_7
REMARK    6  A    between atoms: C_9  and  O_10
REMARK    7  A    between atoms: C_12  and  O_13
REMARK                            x       y       z     vdW  Elec       q    Type
REMARK                         _______ _______ _______ _____ _____    ______ ____
ROOT
ATOM      1  C   UNL     1      38.654 -25.307 -14.228  0.00  0.00    +0.033 C 
ENDROOT
BRANCH   1   2
ATOM      2  N   UNL     1      38.580 -25.128 -12.769  0.00  0.00    +0.388 N 
ATOM      3  H   UNL     1      38.481 -24.136 -12.552  0.00  0.00    -0.089 HD
ATOM      4  H   UNL     1      39.434 -25.485 -12.339  0.00  0.00    -0.089 HD
ATOM      5  H   UNL     1      37.776 -25.639 -12.404  0.00  0.00    -0.089 HD
ENDBRANCH   1   2
BRANCH   1   6
ATOM      6  C   UNL     1      37.949 -24.098 -14.876  0.00  0.00    +0.122 C 
BRANCH   6   7
ATOM      7  O   UNL     1      38.733 -23.581 -15.944  0.00  0.00    -0.384 OA
ATOM      8  H   UNL     1      39.624 -23.373 -15.620  0.00  0.00    +0.210 HD
ENDBRANCH   6   7
ENDBRANCH   1   6
BRANCH   1   9
ATOM      9  C   UNL     1      40.138 -25.395 -14.649  0.00  0.00    +0.122 C 
BRANCH   9  10
ATOM     10  O   UNL     1      40.264 -25.916 -15.967  0.00  0.00    -0.384 OA
ATOM     11  H   UNL     1      41.202 -26.059 -16.169  0.00  0.00    +0.210 HD
ENDBRANCH   9  10
ENDBRANCH   1   9
BRANCH   1  12
ATOM     12  C   UNL     1      37.963 -26.637 -14.593  0.00  0.00    +0.122 C 
BRANCH  12  13
ATOM     13  O   UNL     1      37.365 -26.566 -15.883  0.00  0.00    -0.384 OA
ATOM     14  H   UNL     1      37.695 -25.782 -16.350  0.00  0.00    +0.210 HD
ENDBRANCH  12  13
ENDBRANCH   1  12
TORSDOF 7
ENDMDL
MODEL 3
REMARK VINA RESULT:      -4.4      1.782      2.492
REMARK  Name = 6503
REMARK  7 active torsions:
REMARK  status: ('A' for Active; 'I' for Inactive)
REMARK    1  A    between atoms: C_1  and  N_2
REMARK    2  A    between atoms: C_1  and  C_6
REMARK    3  A    between atoms: C_1  and  C_9
REMARK    4  A    between atoms: C_1  and  C_12
REMARK    5  A    between atoms: C_6  and  O_7
REMARK    6  A    between atoms: C_9  and  O_10
REMARK    7  A    between atoms: C_12  and  O_13
REMARK                            x       y       z     vdW  Elec       q    Type
REMARK                         _______ _______ _______ _____ _____    ______ ____
ROOT
ATOM      1  C   UNL     1      38.622 -25.456 -14.341  0.00  0.00    +0.033 C 
ENDROOT
BRANCH   1   2
ATOM      2  N   UNL     1      38.216 -24.399 -15.281  0.00  0.00    +0.388 N 
ATOM      3  H   UNL     1      37.249 -24.131 -15.095  0.00  0.00    -0.089 HD
ATOM      4  H   UNL     1      38.295 -24.747 -16.237  0.00  0.00    -0.089 HD
ATOM      5  H   UNL     1      38.823 -23.588 -15.163  0.00  0.00    -0.089 HD
ENDBRANCH   1   2
BRANCH   1   6
ATOM      6  C   UNL     1      37.669 -26.650 -14.550  0.00  0.00    +0.122 C 
BRANCH   6   7
ATOM      7  O   UNL     1      37.362 -26.802 -15.931  0.00  0.00    -0.384 OA
ATOM      8  H   UNL     1      38.135 -26.554 -16.463  0.00  0.00    +0.210 HD
ENDBRANCH   6   7
ENDBRANCH   1   6
BRANCH   1   9
ATOM      9  C   UNL     1      40.091 -25.842 -14.622  0.00  0.00    +0.122 C 
BRANCH   9  10
ATOM     10  O   UNL     1      40.336 -25.937 -16.020  0.00  0.00    -0.384 OA
ATOM     11  H   UNL     1      40.535 -26.858 -16.251  0.00  0.00    +0.210 HD
ENDBRANCH   9  10
ENDBRANCH   1   9
BRANCH   1  12
ATOM     12  C   UNL     1      38.531 -24.896 -12.906  0.00  0.00    +0.122 C 
BRANCH  12  13
ATOM     13  O   UNL     1      37.882 -25.817 -12.036  0.00  0.00    -0.384 OA
ATOM     14  H   UNL     1      37.617 -26.604 -12.538  0.00  0.00    +0.210 HD
ENDBRANCH  12  13
ENDBRANCH   1  12
TORSDOF 7
ENDMDL
MODEL 4
REMARK VINA RESULT:      -4.4      1.778      2.450
REMARK  Name = 6503
REMARK  7 active torsions:
REMARK  status: ('A' for Active; 'I' for Inactive)
REMARK    1  A    between atoms: C_1  and  N_2
REMARK    2  A    between atoms: C_1  and  C_6
REMARK    3  A    between atoms: C_1  and  C_9
REMARK    4  A    between atoms: C_1  and  C_12
REMARK    5  A    between atoms: C_6  and  O_7
REMARK    6  A    between atoms: C_9  and  O_10
REMARK    7  A    between atoms: C_12  and  O_13
REMARK                            x       y       z     vdW  Elec       q    Type
REMARK                         _______ _______ _______ _____ _____    ______ ____
ROOT
ATOM      1  C   UNL     1      38.658 -25.434 -14.314  0.00  0.00    +0.033 C 
ENDROOT
BRANCH   1   2
ATOM      2  N   UNL     1      38.282 -24.359 -15.247  0.00  0.00    +0.388 N 
ATOM      3  H   UNL     1      39.113 -23.828 -15.508  0.00  0.00    -0.089 HD
ATOM      4  H   UNL     1      37.609 -23.738 -14.796  0.00  0.00    -0.089 HD
ATOM      5  H   UNL     1      37.862 -24.767 -16.082  0.00  0.00    -0.089 HD
ENDBRANCH   1   2
BRANCH   1   6
ATOM      6  C   UNL     1      38.525 -24.869 -12.885  0.00  0.00    +0.122 C 
BRANCH   6   7
ATOM      7  O   UNL     1      37.860 -25.803 -12.043  0.00  0.00    -0.384 OA
ATOM      8  H   UNL     1      38.281 -26.674 -12.129  0.00  0.00    +0.210 HD
ENDBRANCH   6   7
ENDBRANCH   1   6
BRANCH   1   9
ATOM      9  C   UNL     1      37.726 -26.645 -14.539  0.00  0.00    +0.122 C 
BRANCH   9  10
ATOM     10  O   UNL     1      37.391 -26.783 -15.915  0.00  0.00    -0.384 OA
ATOM     11  H   UNL     1      36.622 -27.368 -16.002  0.00  0.00    +0.210 HD
ENDBRANCH   9  10
ENDBRANCH   1   9
BRANCH   1  12
ATOM     12  C   UNL     1      40.106 -25.867 -14.625  0.00  0.00    +0.122 C 
BRANCH  12  13
ATOM     13  O   UNL     1      40.332 -25.929 -16.029  0.00  0.00    -0.384 OA
ATOM     14  H   UNL     1      39.482 -26.000 -16.491  0.00  0.00    +0.210 HD
ENDBRANCH  12  13
ENDBRANCH   1  12
TORSDOF 7
ENDMDL
MODEL 5
REMARK VINA RESULT:      -4.3      1.501      2.445
REMARK  Name = 6503
REMARK  7 active torsions:
REMARK  status: ('A' for Active; 'I' for Inactive)
REMARK    1  A    between atoms: C_1  and  N_2
REMARK    2  A    between atoms: C_1  and  C_6
REMARK    3  A    between atoms: C_1  and  C_9
REMARK    4  A    between atoms: C_1  and  C_12
REMARK    5  A    between atoms: C_6  and  O_7
REMARK    6  A    between atoms: C_9  and  O_10
REMARK    7  A    between atoms: C_12  and  O_13
REMARK                            x       y       z     vdW  Elec       q    Type
REMARK                         _______ _______ _______ _____ _____    ______ ____
ROOT
ATOM      1  C   UNL     1      38.749 -25.412 -14.220  0.00  0.00    +0.033 C 
ENDROOT
BRANCH   1   2
ATOM      2  N   UNL     1      38.221 -26.783 -14.306  0.00  0.00    +0.388 N 
ATOM      3  H   UNL     1      37.712 -26.898 -15.182  0.00  0.00    -0.089 HD
ATOM      4  H   UNL     1      37.591 -26.954 -13.521  0.00  0.00    -0.089 HD
ATOM      5  H   UNL     1      38.995 -27.447 -14.272  0.00  0.00    -0.089 HD
ENDBRANCH   1   2
BRANCH   1   6
ATOM      6  C   UNL     1      40.226 -25.459 -14.662  0.00  0.00    +0.122 C 
BRANCH   6   7
ATOM      7  O   UNL     1      40.327 -25.919 -16.005  0.00  0.00    -0.384 OA
ATOM      8  H   UNL     1      39.609 -26.546 -16.186  0.00  0.00    +0.210 HD
ENDBRANCH   6   7
ENDBRANCH   1   6
BRANCH   1   9
ATOM      9  C   UNL     1      37.909 -24.492 -15.132  0.00  0.00    +0.122 C 
BRANCH   9  10
ATOM     10  O   UNL     1      38.728 -23.520 -15.771  0.00  0.00    -0.384 OA
ATOM     11  H   UNL     1      39.575 -23.925 -16.020  0.00  0.00    +0.210 HD
ENDBRANCH   9  10
ENDBRANCH   1   9
BRANCH   1  12
ATOM     12  C   UNL     1      38.604 -24.922 -12.764  0.00  0.00    +0.122 C 
BRANCH  12  13
ATOM     13  O   UNL     1      38.231 -23.549 -12.720  0.00  0.00    -0.384 OA
ATOM     14  H   UNL     1      38.986 -23.000 -12.986  0.00  0.00    +0.210 HD
ENDBRANCH  12  13
ENDBRANCH   1  12
TORSDOF 7
ENDMDL
MODEL 6
REMARK VINA RESULT:      -4.3      1.771      2.504
REMARK  Name = 6503
REMARK  7 active torsions:
REMARK  status: ('A' for Active; 'I' for Inactive)
REMARK    1  A    between atoms: C_1  and  N_2
REMARK    2  A    between atoms: C_1  and  C_6
REMARK    3  A    between atoms: C_1  and  C_9
REMARK    4  A    between atoms: C_1  and  C_12
REMARK    5  A    between atoms: C_6  and  O_7
REMARK    6  A    between atoms: C_9  and  O_10
REMARK    7  A    between atoms: C_12  and  O_13
REMARK                            x       y       z     vdW  Elec       q    Type
REMARK                         _______ _______ _______ _____ _____    ______ ____
ROOT
ATOM      1  C   UNL     1      38.184 -25.790 -13.890  0.00  0.00    +0.033 C 
ENDROOT
BRANCH   1   2
ATOM      2  N   UNL     1      39.583 -26.220 -14.049  0.00  0.00    +0.388 N 
ATOM      3  H   UNL     1      40.190 -25.619 -13.490  0.00  0.00    -0.089 HD
ATOM      4  H   UNL     1      39.849 -26.152 -15.032  0.00  0.00    -0.089 HD
ATOM      5  H   UNL     1      39.678 -27.186 -13.737  0.00  0.00    -0.089 HD
ENDBRANCH   1   2
BRANCH   1   6
ATOM      6  C   UNL     1      37.293 -26.881 -14.515  0.00  0.00    +0.122 C 
BRANCH   6   7
ATOM      7  O   UNL     1      37.300 -26.775 -15.934  0.00  0.00    -0.384 OA
ATOM      8  H   UNL     1      38.047 -26.221 -16.212  0.00  0.00    +0.210 HD
ENDBRANCH   6   7
ENDBRANCH   1   6
BRANCH   1   9
ATOM      9  C   UNL     1      37.885 -25.599 -12.387  0.00  0.00    +0.122 C 
BRANCH   9  10
ATOM     10  O   UNL     1      36.807 -26.429 -11.971  0.00  0.00    -0.384 OA
ATOM     11  H   UNL     1      36.387 -26.045 -11.185  0.00  0.00    +0.210 HD
ENDBRANCH   9  10
ENDBRANCH   1   9
BRANCH   1  12
ATOM     12  C   UNL     1      38.007 -24.431 -14.599  0.00  0.00    +0.122 C 
BRANCH  12  13
ATOM     13  O   UNL     1      39.054 -24.200 -15.534  0.00  0.00    -0.384 OA
ATOM     14  H   UNL     1      39.907 -24.201 -15.072  0.00  0.00    +0.210 HD
ENDBRANCH  12  13
ENDBRANCH   1  12
TORSDOF 7
ENDMDL
MODEL 7
REMARK VINA RESULT:      -4.2      1.781      2.344
REMARK  Name = 6503
REMARK  7 active torsions:
REMARK  status: ('A' for Active; 'I' for Inactive)
REMARK    1  A    between atoms: C_1  and  N_2
REMARK    2  A    between atoms: C_1  and  C_6
REMARK    3  A    between atoms: C_1  and  C_9
REMARK    4  A    between atoms: C_1  and  C_12
REMARK    5  A    between atoms: C_6  and  O_7
REMARK    6  A    between atoms: C_9  and  O_10
REMARK    7  A    between atoms: C_12  and  O_13
REMARK                            x       y       z     vdW  Elec       q    Type
REMARK                         _______ _______ _______ _____ _____    ______ ____
ROOT
ATOM      1  C   UNL     1      38.554 -25.621 -14.192  0.00  0.00    +0.033 C 
ENDROOT
BRANCH   1   2
ATOM      2  N   UNL     1      37.867 -26.914 -14.346  0.00  0.00    +0.388 N 
ATOM      3  H   UNL     1      38.111 -27.524 -13.566  0.00  0.00    -0.089 HD
ATOM      4  H   UNL     1      38.157 -27.350 -15.222  0.00  0.00    -0.089 HD
ATOM      5  H   UNL     1      36.859 -26.763 -14.359  0.00  0.00    -0.089 HD
ENDBRANCH   1   2
BRANCH   1   6
ATOM      6  C   UNL     1      37.760 -24.579 -15.005  0.00  0.00    +0.122 C 
BRANCH   6   7
ATOM      7  O   UNL     1      38.646 -23.654 -15.624  0.00  0.00    -0.384 OA
ATOM      8  H   UNL     1      38.380 -22.749 -15.396  0.00  0.00    +0.210 HD
ENDBRANCH   6   7
ENDBRANCH   1   6
BRANCH   1   9
ATOM      9  C   UNL     1      38.608 -25.256 -12.692  0.00  0.00    +0.122 C 
BRANCH   9  10
ATOM     10  O   UNL     1      38.661 -23.846 -12.511  0.00  0.00    -0.384 OA
ATOM     11  H   UNL     1      39.119 -23.441 -13.265  0.00  0.00    +0.210 HD
ENDBRANCH   9  10
ENDBRANCH   1   9
BRANCH   1  12
ATOM     12  C   UNL     1      39.999 -25.770 -14.710  0.00  0.00    +0.122 C 
BRANCH  12  13
ATOM     13  O   UNL     1      40.842 -24.755 -14.178  0.00  0.00    -0.384 OA
ATOM     14  H   UNL     1      40.827 -23.981 -14.762  0.00  0.00    +0.210 HD
ENDBRANCH  12  13
ENDBRANCH   1  12
TORSDOF 7
ENDMDL
MODEL 8
REMARK VINA RESULT:      -4.2      1.786      2.964
REMARK  Name = 6503
REMARK  7 active torsions:
REMARK  status: ('A' for Active; 'I' for Inactive)
REMARK    1  A    between atoms: C_1  and  N_2
REMARK    2  A    between atoms: C_1  and  C_6
REMARK    3  A    between atoms: C_1  and  C_9
REMARK    4  A    between atoms: C_1  and  C_12
REMARK    5  A    between atoms: C_6  and  O_7
REMARK    6  A    between atoms: C_9  and  O_10
REMARK    7  A    between atoms: C_12  and  O_13
REMARK                            x       y       z     vdW  Elec       q    Type
REMARK                         _______ _______ _______ _____ _____    ______ ____
ROOT
ATOM      1  C   UNL     1      38.077 -25.682 -14.197  0.00  0.00    +0.033 C 
ENDROOT
BRANCH   1   2
ATOM      2  N   UNL     1      37.642 -24.562 -15.048  0.00  0.00    +0.388 N 
ATOM      3  H   UNL     1      36.637 -24.425 -14.943  0.00  0.00    -0.089 HD
ATOM      4  H   UNL     1      37.856 -24.775 -16.023  0.00  0.00    -0.089 HD
ATOM      5  H   UNL     1      38.133 -23.713 -14.770  0.00  0.00    -0.089 HD
ENDBRANCH   1   2
BRANCH   1   6
ATOM      6  C   UNL     1      39.603 -25.825 -14.369  0.00  0.00    +0.122 C 
BRANCH   6   7
ATOM      7  O   UNL     1      39.945 -25.845 -15.750  0.00  0.00    -0.384 OA
ATOM      8  H   UNL     1      39.152 -25.674 -16.282  0.00  0.00    +0.210 HD
ENDBRANCH   6   7
ENDBRANCH   1   6
BRANCH   1   9
ATOM      9  C   UNL     1      37.694 -25.377 -12.732  0.00  0.00    +0.122 C 
BRANCH   9  10
ATOM     10  O   UNL     1      36.895 -26.420 -12.185  0.00  0.00    -0.384 OA
ATOM     11  H   UNL     1      36.183 -26.034 -11.650  0.00  0.00    +0.210 HD
ENDBRANCH   9  10
ENDBRANCH   1   9
BRANCH   1  12
ATOM     12  C   UNL     1      37.329 -26.955 -14.642  0.00  0.00    +0.122 C 
BRANCH  12  13
ATOM     13  O   UNL     1      37.159 -26.982 -16.055  0.00  0.00    -0.384 OA
ATOM     14  H   UNL     1      37.597 -27.768 -16.419  0.00  0.00    +0.210 HD
ENDBRANCH  12  13
ENDBRANCH   1  12
TORSDOF 7
ENDMDL
MODEL 9
REMARK VINA RESULT:      -4.1     10.984     11.426
REMARK  Name = 6503
REMARK  7 active torsions:
REMARK  status: ('A' for Active; 'I' for Inactive)
REMARK    1  A    between atoms: C_1  and  N_2
REMARK    2  A    between atoms: C_1  and  C_6
REMARK    3  A    between atoms: C_1  and  C_9
REMARK    4  A    between atoms: C_1  and  C_12
REMARK    5  A    between atoms: C_6  and  O_7
REMARK    6  A    between atoms: C_9  and  O_10
REMARK    7  A    between atoms: C_12  and  O_13
REMARK                            x       y       z     vdW  Elec       q    Type
REMARK                         _______ _______ _______ _____ _____    ______ ____
ROOT
ATOM      1  C   UNL     1      41.957 -14.069 -16.489  0.00  0.00    +0.033 C 
ENDROOT
BRANCH   1   2
ATOM      2  N   UNL     1      42.205 -12.662 -16.137  0.00  0.00    +0.388 N 
ATOM      3  H   UNL     1      42.839 -12.618 -15.338  0.00  0.00    -0.089 HD
ATOM      4  H   UNL     1      41.322 -12.211 -15.895  0.00  0.00    -0.089 HD
ATOM      5  H   UNL     1      42.626 -12.182 -16.932  0.00  0.00    -0.089 HD
ENDBRANCH   1   2
BRANCH   1   6
ATOM      6  C   UNL     1      41.161 -14.700 -15.329  0.00  0.00    +0.122 C 
BRANCH   6   7
ATOM      7  O   UNL     1      40.456 -15.851 -15.780  0.00  0.00    -0.384 OA
ATOM      8  H   UNL     1      40.889 -16.650 -15.438  0.00  0.00    +0.210 HD
ENDBRANCH   6   7
ENDBRANCH   1   6
BRANCH   1   9
ATOM      9  C   UNL     1      41.170 -14.123 -17.817  0.00  0.00    +0.122 C 
BRANCH   9  10
ATOM     10  O   UNL     1      41.593 -15.222 -18.617  0.00  0.00    -0.384 OA
ATOM     11  H   UNL     1      40.816 -15.722 -18.914  0.00  0.00    +0.210 HD
ENDBRANCH   9  10
ENDBRANCH   1   9
BRANCH   1  12
ATOM     12  C   UNL     1      43.316 -14.769 -16.698  0.00  0.00    +0.122 C 
BRANCH  12  13
ATOM     13  O   UNL     1      43.243 -16.145 -16.346  0.00  0.00    -0.384 OA
ATOM     14  H   UNL     1      42.327 -16.375 -16.126  0.00  0.00    +0.210 HD
ENDBRANCH  12  13
ENDBRANCH   1  12
TORSDOF 7
ENDMDL
