MODEL 1
REMARK VINA RESULT:      -8.9      0.000      0.000
REMARK  Name = 688561
REMARK  7 active torsions:
REMARK  status: ('A' for Active; 'I' for Inactive)
REMARK    1  A    between atoms: C_3  and  C_15
REMARK    2  A    between atoms: C_7  and  O_13
REMARK    3  A    between atoms: C_15  and  O_16
REMARK    4  A    between atoms: C_15  and  C_18
REMARK    5  A    between atoms: C_18  and  N_19
REMARK    6  A    between atoms: C_18  and  C_25
REMARK    7  A    between atoms: N_19  and  C_22
REMARK                            x       y       z     vdW  Elec       q    Type
REMARK                         _______ _______ _______ _____ _____    ______ ____
ROOT
ATOM      1  O   UNL     1      33.444 -15.450 -26.623  0.00  0.00    -0.270 OA
ATOM      2  N   UNL     1      33.711 -15.250 -24.344  0.00  0.00    -0.278 N 
ATOM      3  C   UNL     1      35.212 -17.576 -21.891  0.00  0.00    +0.004 C 
ATOM      4  C   UNL     1      34.765 -17.046 -23.105  0.00  0.00    +0.015 C 
ATOM      5  C   UNL     1      35.051 -16.847 -20.710  0.00  0.00    +0.001 C 
ATOM      6  C   UNL     1      34.160 -15.784 -23.123  0.00  0.00    +0.084 C 
ATOM      7  C   UNL     1      33.999 -15.055 -21.944  0.00  0.00    +0.147 C 
ATOM      8  C   UNL     1      34.915 -17.777 -24.361  0.00  0.00    +0.006 C 
ATOM      9  C   UNL     1      34.446 -15.591 -20.736  0.00  0.00    +0.038 C 
ATOM     10  C   UNL     1      34.482 -17.250 -25.511  0.00  0.00    +0.058 C 
ATOM     11  C   UNL     1      33.835 -15.909 -25.553  0.00  0.00    +0.250 C 
ATOM     12  H   UNL     1      33.287 -14.361 -24.339  0.00  0.00    +0.155 HD
ENDROOT
BRANCH   7  13
ATOM     13  O   UNL     1      33.413 -13.825 -21.950  0.00  0.00    -0.504 OA
ATOM     14  H   UNL     1      32.910 -13.550 -22.691  0.00  0.00    +0.292 HD
ENDBRANCH   7  13
BRANCH   3  15
ATOM     15  C   UNL     1      35.868 -18.916 -21.799  0.00  0.00    +0.113 C 
BRANCH  15  16
ATOM     16  O   UNL     1      37.035 -18.867 -20.966  0.00  0.00    -0.382 OA
ATOM     17  H   UNL     1      37.577 -19.655 -21.121  0.00  0.00    +0.211 HD
ENDBRANCH  15  16
BRANCH  15  18
ATOM     18  C   UNL     1      34.907 -20.040 -21.308  0.00  0.00    -0.030 C 
BRANCH  18  19
ATOM     19  N   UNL     1      35.065 -20.247 -19.861  0.00  0.00    +0.388 N 
ATOM     20  H   UNL     1      34.170 -20.085 -19.399  0.00  0.00    -0.084 HD
ATOM     21  H   UNL     1      35.765 -19.594 -19.510  0.00  0.00    -0.084 HD
BRANCH  19  22
ATOM     22  C   UNL     1      35.506 -21.602 -19.587  0.00  0.00    -0.062 C 
ATOM     23  C   UNL     1      34.341 -22.444 -19.071  0.00  0.00    -0.023 C 
ATOM     24  C   UNL     1      36.648 -21.570 -18.577  0.00  0.00    -0.023 C 
ENDBRANCH  19  22
ENDBRANCH  18  19
BRANCH  18  25
ATOM     25  C   UNL     1      33.426 -19.751 -21.625  0.00  0.00    -0.019 C 
ATOM     26  C   UNL     1      32.541 -19.715 -20.382  0.00  0.00    -0.002 C 
ENDBRANCH  18  25
ENDBRANCH  15  18
ENDBRANCH   3  15
TORSDOF 7
ENDMDL
MODEL 2
REMARK VINA RESULT:      -8.6      3.964      7.777
REMARK  Name = 688561
REMARK  7 active torsions:
REMARK  status: ('A' for Active; 'I' for Inactive)
REMARK    1  A    between atoms: C_3  and  C_15
REMARK    2  A    between atoms: C_7  and  O_13
REMARK    3  A    between atoms: C_15  and  O_16
REMARK    4  A    between atoms: C_15  and  C_18
REMARK    5  A    between atoms: C_18  and  N_19
REMARK    6  A    between atoms: C_18  and  C_25
REMARK    7  A    between atoms: N_19  and  C_22
REMARK                            x       y       z     vdW  Elec       q    Type
REMARK                         _______ _______ _______ _____ _____    ______ ____
ROOT
ATOM      1  O   UNL     1      34.380 -16.434 -25.915  0.00  0.00    -0.270 OA
ATOM      2  N   UNL     1      33.998 -15.921 -23.703  0.00  0.00    -0.278 N 
ATOM      3  C   UNL     1      32.276 -13.026 -22.174  0.00  0.00    +0.004 C 
ATOM      4  C   UNL     1      32.808 -13.886 -23.139  0.00  0.00    +0.015 C 
ATOM      5  C   UNL     1      32.401 -13.336 -20.818  0.00  0.00    +0.001 C 
ATOM      6  C   UNL     1      33.462 -15.055 -22.733  0.00  0.00    +0.084 C 
ATOM      7  C   UNL     1      33.588 -15.366 -21.378  0.00  0.00    +0.147 C 
ATOM      8  C   UNL     1      32.698 -13.598 -24.567  0.00  0.00    +0.006 C 
ATOM      9  C   UNL     1      33.055 -14.502 -20.421  0.00  0.00    +0.038 C 
ATOM     10  C   UNL     1      33.213 -14.435 -25.473  0.00  0.00    +0.058 C 
ATOM     11  C   UNL     1      33.913 -15.683 -25.062  0.00  0.00    +0.250 C 
ATOM     12  H   UNL     1      34.455 -16.738 -23.400  0.00  0.00    +0.155 HD
ENDROOT
BRANCH   7  13
ATOM     13  O   UNL     1      34.222 -16.501 -20.971  0.00  0.00    -0.504 OA
ATOM     14  H   UNL     1      34.913 -16.451 -20.341  0.00  0.00    +0.292 HD
ENDBRANCH   7  13
BRANCH   3  15
ATOM     15  C   UNL     1      31.564 -11.763 -22.538  0.00  0.00    +0.113 C 
BRANCH  15  16
ATOM     16  O   UNL     1      30.399 -11.570 -21.722  0.00  0.00    -0.382 OA
ATOM     17  H   UNL     1      29.976 -12.426 -21.554  0.00  0.00    +0.211 HD
ENDBRANCH  15  16
BRANCH  15  18
ATOM     18  C   UNL     1      32.476 -10.502 -22.474  0.00  0.00    -0.030 C 
BRANCH  18  19
ATOM     19  N   UNL     1      32.873 -10.093 -23.829  0.00  0.00    +0.388 N 
ATOM     20  H   UNL     1      32.414  -9.212 -24.061  0.00  0.00    -0.084 HD
ATOM     21  H   UNL     1      32.592 -10.819 -24.487  0.00  0.00    -0.084 HD
BRANCH  19  22
ATOM     22  C   UNL     1      34.312  -9.917 -23.906  0.00  0.00    -0.062 C 
ATOM     23  C   UNL     1      34.667  -8.433 -23.867  0.00  0.00    -0.023 C 
ATOM     24  C   UNL     1      34.835 -10.572 -25.180  0.00  0.00    -0.023 C 
ENDBRANCH  19  22
ENDBRANCH  18  19
BRANCH  18  25
ATOM     25  C   UNL     1      31.813  -9.311 -21.753  0.00  0.00    -0.019 C 
ATOM     26  C   UNL     1      32.334  -9.101 -20.335  0.00  0.00    -0.002 C 
ENDBRANCH  18  25
ENDBRANCH  15  18
ENDBRANCH   3  15
TORSDOF 7
ENDMDL
MODEL 3
REMARK VINA RESULT:      -8.5      1.091      2.046
REMARK  Name = 688561
REMARK  7 active torsions:
REMARK  status: ('A' for Active; 'I' for Inactive)
REMARK    1  A    between atoms: C_3  and  C_15
REMARK    2  A    between atoms: C_7  and  O_13
REMARK    3  A    between atoms: C_15  and  O_16
REMARK    4  A    between atoms: C_15  and  C_18
REMARK    5  A    between atoms: C_18  and  N_19
REMARK    6  A    between atoms: C_18  and  C_25
REMARK    7  A    between atoms: N_19  and  C_22
REMARK                            x       y       z     vdW  Elec       q    Type
REMARK                         _______ _______ _______ _____ _____    ______ ____
ROOT
ATOM      1  O   UNL     1      32.735 -14.255 -26.383  0.00  0.00    -0.270 OA
ATOM      2  N   UNL     1      33.123 -14.391 -24.117  0.00  0.00    -0.278 N 
ATOM      3  C   UNL     1      34.851 -16.988 -22.129  0.00  0.00    +0.004 C 
ATOM      4  C   UNL     1      34.316 -16.301 -23.222  0.00  0.00    +0.015 C 
ATOM      5  C   UNL     1      34.729 -16.455 -20.843  0.00  0.00    +0.001 C 
ATOM      6  C   UNL     1      33.662 -15.082 -23.016  0.00  0.00    +0.084 C 
ATOM      7  C   UNL     1      33.539 -14.548 -21.733  0.00  0.00    +0.147 C 
ATOM      8  C   UNL     1      34.423 -16.825 -24.582  0.00  0.00    +0.006 C 
ATOM      9  C   UNL     1      34.075 -15.239 -20.645  0.00  0.00    +0.038 C 
ATOM     10  C   UNL     1      33.905 -16.151 -25.614  0.00  0.00    +0.058 C 
ATOM     11  C   UNL     1      33.204 -14.853 -25.417  0.00  0.00    +0.250 C 
ATOM     12  H   UNL     1      32.666 -13.534 -23.954  0.00  0.00    +0.155 HD
ENDROOT
BRANCH   7  13
ATOM     13  O   UNL     1      32.905 -13.361 -21.520  0.00  0.00    -0.504 OA
ATOM     14  H   UNL     1      33.225 -12.770 -20.868  0.00  0.00    +0.292 HD
ENDBRANCH   7  13
BRANCH   3  15
ATOM     15  C   UNL     1      35.563 -18.293 -22.277  0.00  0.00    +0.113 C 
BRANCH  15  16
ATOM     16  O   UNL     1      36.910 -18.102 -22.735  0.00  0.00    -0.382 OA
ATOM     17  H   UNL     1      37.492 -18.750 -22.311  0.00  0.00    +0.211 HD
ENDBRANCH  15  16
BRANCH  15  18
ATOM     18  C   UNL     1      35.558 -19.149 -20.976  0.00  0.00    -0.030 C 
BRANCH  18  19
ATOM     19  N   UNL     1      34.647 -20.294 -21.124  0.00  0.00    +0.388 N 
ATOM     20  H   UNL     1      35.177 -21.160 -21.024  0.00  0.00    -0.084 HD
ATOM     21  H   UNL     1      34.213 -20.251 -22.046  0.00  0.00    -0.084 HD
BRANCH  19  22
ATOM     22  C   UNL     1      33.607 -20.251 -20.112  0.00  0.00    -0.062 C 
ATOM     23  C   UNL     1      33.309 -21.657 -19.600  0.00  0.00    -0.023 C 
ATOM     24  C   UNL     1      32.356 -19.603 -20.696  0.00  0.00    -0.023 C 
ENDBRANCH  19  22
ENDBRANCH  18  19
BRANCH  18  25
ATOM     25  C   UNL     1      36.958 -19.658 -20.579  0.00  0.00    -0.019 C 
ATOM     26  C   UNL     1      36.927 -20.997 -19.850  0.00  0.00    -0.002 C 
ENDBRANCH  18  25
ENDBRANCH  15  18
ENDBRANCH   3  15
TORSDOF 7
ENDMDL
MODEL 4
REMARK VINA RESULT:      -8.2      0.848      2.732
REMARK  Name = 688561
REMARK  7 active torsions:
REMARK  status: ('A' for Active; 'I' for Inactive)
REMARK    1  A    between atoms: C_3  and  C_15
REMARK    2  A    between atoms: C_7  and  O_13
REMARK    3  A    between atoms: C_15  and  O_16
REMARK    4  A    between atoms: C_15  and  C_18
REMARK    5  A    between atoms: C_18  and  N_19
REMARK    6  A    between atoms: C_18  and  C_25
REMARK    7  A    between atoms: N_19  and  C_22
REMARK                            x       y       z     vdW  Elec       q    Type
REMARK                         _______ _______ _______ _____ _____    ______ ____
ROOT
ATOM      1  O   UNL     1      32.406 -12.912 -22.317  0.00  0.00    -0.270 OA
ATOM      2  N   UNL     1      33.241 -14.597 -23.646  0.00  0.00    -0.278 N 
ATOM      3  C   UNL     1      35.136 -17.645 -22.750  0.00  0.00    +0.004 C 
ATOM      4  C   UNL     1      34.442 -16.438 -22.625  0.00  0.00    +0.015 C 
ATOM      5  C   UNL     1      35.325 -18.214 -24.012  0.00  0.00    +0.001 C 
ATOM      6  C   UNL     1      33.940 -15.811 -23.772  0.00  0.00    +0.084 C 
ATOM      7  C   UNL     1      34.127 -16.379 -25.033  0.00  0.00    +0.147 C 
ATOM      8  C   UNL     1      34.224 -15.810 -21.324  0.00  0.00    +0.006 C 
ATOM      9  C   UNL     1      34.821 -17.583 -25.150  0.00  0.00    +0.038 C 
ATOM     10  C   UNL     1      33.556 -14.656 -21.227  0.00  0.00    +0.058 C 
ATOM     11  C   UNL     1      33.014 -13.973 -22.434  0.00  0.00    +0.250 C 
ATOM     12  H   UNL     1      32.895 -14.170 -24.463  0.00  0.00    +0.155 HD
ENDROOT
BRANCH   7  13
ATOM     13  O   UNL     1      33.641 -15.779 -26.155  0.00  0.00    -0.504 OA
ATOM     14  H   UNL     1      32.739 -15.531 -26.201  0.00  0.00    +0.292 HD
ENDBRANCH   7  13
BRANCH   3  15
ATOM     15  C   UNL     1      35.698 -18.367 -21.568  0.00  0.00    +0.113 C 
BRANCH  15  16
ATOM     16  O   UNL     1      35.666 -17.545 -20.393  0.00  0.00    -0.382 OA
ATOM     17  H   UNL     1      34.860 -17.007 -20.396  0.00  0.00    +0.211 HD
ENDBRANCH  15  16
BRANCH  15  18
ATOM     18  C   UNL     1      34.994 -19.729 -21.288  0.00  0.00    -0.030 C 
BRANCH  18  19
ATOM     19  N   UNL     1      35.134 -20.090 -19.870  0.00  0.00    +0.388 N 
ATOM     20  H   UNL     1      34.226 -20.012 -19.412  0.00  0.00    -0.084 HD
ATOM     21  H   UNL     1      35.805 -19.457 -19.434  0.00  0.00    -0.084 HD
BRANCH  19  22
ATOM     22  C   UNL     1      35.619 -21.452 -19.738  0.00  0.00    -0.062 C 
ATOM     23  C   UNL     1      34.467 -22.394 -19.398  0.00  0.00    -0.023 C 
ATOM     24  C   UNL     1      36.703 -21.504 -18.667  0.00  0.00    -0.023 C 
ENDBRANCH  19  22
ENDBRANCH  18  19
BRANCH  18  25
ATOM     25  C   UNL     1      33.500 -19.729 -21.671  0.00  0.00    -0.019 C 
ATOM     26  C   UNL     1      32.573 -19.560 -20.471  0.00  0.00    -0.002 C 
ENDBRANCH  18  25
ENDBRANCH  15  18
ENDBRANCH   3  15
TORSDOF 7
ENDMDL
MODEL 5
REMARK VINA RESULT:      -8.0      3.295      7.113
REMARK  Name = 688561
REMARK  7 active torsions:
REMARK  status: ('A' for Active; 'I' for Inactive)
REMARK    1  A    between atoms: C_3  and  C_15
REMARK    2  A    between atoms: C_7  and  O_13
REMARK    3  A    between atoms: C_15  and  O_16
REMARK    4  A    between atoms: C_15  and  C_18
REMARK    5  A    between atoms: C_18  and  N_19
REMARK    6  A    between atoms: C_18  and  C_25
REMARK    7  A    between atoms: N_19  and  C_22
REMARK                            x       y       z     vdW  Elec       q    Type
REMARK                         _______ _______ _______ _____ _____    ______ ____
ROOT
ATOM      1  O   UNL     1      34.931 -19.723 -24.801  0.00  0.00    -0.270 OA
ATOM      2  N   UNL     1      34.903 -18.162 -23.108  0.00  0.00    -0.278 N 
ATOM      3  C   UNL     1      34.094 -14.553 -23.185  0.00  0.00    +0.004 C 
ATOM      4  C   UNL     1      34.304 -15.868 -23.611  0.00  0.00    +0.015 C 
ATOM      5  C   UNL     1      34.272 -14.218 -21.841  0.00  0.00    +0.001 C 
ATOM      6  C   UNL     1      34.691 -16.839 -22.680  0.00  0.00    +0.084 C 
ATOM      7  C   UNL     1      34.869 -16.506 -21.337  0.00  0.00    +0.147 C 
ATOM      8  C   UNL     1      34.129 -16.258 -25.008  0.00  0.00    +0.006 C 
ATOM      9  C   UNL     1      34.659 -15.191 -20.919  0.00  0.00    +0.038 C 
ATOM     10  C   UNL     1      34.334 -17.522 -25.393  0.00  0.00    +0.058 C 
ATOM     11  C   UNL     1      34.747 -18.570 -24.419  0.00  0.00    +0.250 C 
ATOM     12  H   UNL     1      35.175 -18.832 -22.440  0.00  0.00    +0.155 HD
ENDROOT
BRANCH   7  13
ATOM     13  O   UNL     1      35.245 -17.443 -20.422  0.00  0.00    -0.504 OA
ATOM     14  H   UNL     1      36.154 -17.609 -20.268  0.00  0.00    +0.292 HD
ENDBRANCH   7  13
BRANCH   3  15
ATOM     15  C   UNL     1      33.678 -13.468 -24.125  0.00  0.00    +0.113 C 
BRANCH  15  16
ATOM     16  O   UNL     1      32.480 -13.822 -24.831  0.00  0.00    -0.382 OA
ATOM     17  H   UNL     1      31.992 -13.018 -25.065  0.00  0.00    +0.211 HD
ENDBRANCH  15  16
BRANCH  15  18
ATOM     18  C   UNL     1      33.500 -12.085 -23.429  0.00  0.00    -0.030 C 
BRANCH  18  19
ATOM     19  N   UNL     1      33.527 -11.007 -24.427  0.00  0.00    +0.388 N 
ATOM     20  H   UNL     1      32.788 -10.336 -24.216  0.00  0.00    -0.084 HD
ATOM     21  H   UNL     1      33.381 -11.411 -25.352  0.00  0.00    -0.084 HD
BRANCH  19  22
ATOM     22  C   UNL     1      34.809 -10.327 -24.407  0.00  0.00    -0.062 C 
ATOM     23  C   UNL     1      34.631  -8.873 -23.976  0.00  0.00    -0.023 C 
ATOM     24  C   UNL     1      35.451 -10.414 -25.787  0.00  0.00    -0.023 C 
ENDBRANCH  19  22
ENDBRANCH  18  19
BRANCH  18  25
ATOM     25  C   UNL     1      32.202 -11.987 -22.603  0.00  0.00    -0.019 C 
ATOM     26  C   UNL     1      31.689 -10.557 -22.459  0.00  0.00    -0.002 C 
ENDBRANCH  18  25
ENDBRANCH  15  18
ENDBRANCH   3  15
TORSDOF 7
ENDMDL
MODEL 6
REMARK VINA RESULT:      -8.0      8.258     11.337
REMARK  Name = 688561
REMARK  7 active torsions:
REMARK  status: ('A' for Active; 'I' for Inactive)
REMARK    1  A    between atoms: C_3  and  C_15
REMARK    2  A    between atoms: C_7  and  O_13
REMARK    3  A    between atoms: C_15  and  O_16
REMARK    4  A    between atoms: C_15  and  C_18
REMARK    5  A    between atoms: C_18  and  N_19
REMARK    6  A    between atoms: C_18  and  C_25
REMARK    7  A    between atoms: N_19  and  C_22
REMARK                            x       y       z     vdW  Elec       q    Type
REMARK                         _______ _______ _______ _____ _____    ______ ____
ROOT
ATOM      1  O   UNL     1      39.983 -26.621 -15.008  0.00  0.00    -0.270 OA
ATOM      2  N   UNL     1      38.892 -25.182 -13.579  0.00  0.00    -0.278 N 
ATOM      3  C   UNL     1      35.307 -24.302 -13.336  0.00  0.00    +0.004 C 
ATOM      4  C   UNL     1      36.493 -24.901 -13.772  0.00  0.00    +0.015 C 
ATOM      5  C   UNL     1      35.335 -23.391 -12.277  0.00  0.00    +0.001 C 
ATOM      6  C   UNL     1      37.699 -24.580 -13.140  0.00  0.00    +0.084 C 
ATOM      7  C   UNL     1      37.728 -23.669 -12.083  0.00  0.00    +0.147 C 
ATOM      8  C   UNL     1      36.506 -25.859 -14.875  0.00  0.00    +0.006 C 
ATOM      9  C   UNL     1      36.542 -23.075 -11.653  0.00  0.00    +0.038 C 
ATOM     10  C   UNL     1      37.651 -26.421 -15.276  0.00  0.00    +0.058 C 
ATOM     11  C   UNL     1      38.945 -26.092 -14.618  0.00  0.00    +0.250 C 
ATOM     12  H   UNL     1      39.732 -24.944 -13.124  0.00  0.00    +0.155 HD
ENDROOT
BRANCH   7  13
ATOM     13  O   UNL     1      38.896 -23.350 -11.459  0.00  0.00    -0.504 OA
ATOM     14  H   UNL     1      39.387 -22.602 -11.738  0.00  0.00    +0.292 HD
ENDBRANCH   7  13
BRANCH   3  15
ATOM     15  C   UNL     1      33.985 -24.601 -13.964  0.00  0.00    +0.113 C 
BRANCH  15  16
ATOM     16  O   UNL     1      33.006 -24.949 -12.974  0.00  0.00    -0.382 OA
ATOM     17  H   UNL     1      32.490 -25.710 -13.282  0.00  0.00    +0.211 HD
ENDBRANCH  15  16
BRANCH  15  18
ATOM     18  C   UNL     1      33.452 -23.442 -14.859  0.00  0.00    -0.030 C 
BRANCH  18  19
ATOM     19  N   UNL     1      33.562 -23.804 -16.279  0.00  0.00    +0.388 N 
ATOM     20  H   UNL     1      32.630 -23.974 -16.655  0.00  0.00    -0.084 HD
ATOM     21  H   UNL     1      34.133 -24.646 -16.360  0.00  0.00    -0.084 HD
BRANCH  19  22
ATOM     22  C   UNL     1      34.192 -22.734 -17.029  0.00  0.00    -0.062 C 
ATOM     23  C   UNL     1      33.941 -22.916 -18.524  0.00  0.00    -0.023 C 
ATOM     24  C   UNL     1      35.686 -22.710 -16.724  0.00  0.00    -0.023 C 
ENDBRANCH  19  22
ENDBRANCH  18  19
BRANCH  18  25
ATOM     25  C   UNL     1      31.994 -23.053 -14.541  0.00  0.00    -0.019 C 
ATOM     26  C   UNL     1      31.003 -23.517 -15.605  0.00  0.00    -0.002 C 
ENDBRANCH  18  25
ENDBRANCH  15  18
ENDBRANCH   3  15
TORSDOF 7
ENDMDL
MODEL 7
REMARK VINA RESULT:      -7.9      8.939     11.625
REMARK  Name = 688561
REMARK  7 active torsions:
REMARK  status: ('A' for Active; 'I' for Inactive)
REMARK    1  A    between atoms: C_3  and  C_15
REMARK    2  A    between atoms: C_7  and  O_13
REMARK    3  A    between atoms: C_15  and  O_16
REMARK    4  A    between atoms: C_15  and  C_18
REMARK    5  A    between atoms: C_18  and  N_19
REMARK    6  A    between atoms: C_18  and  C_25
REMARK    7  A    between atoms: N_19  and  C_22
REMARK                            x       y       z     vdW  Elec       q    Type
REMARK                         _______ _______ _______ _____ _____    ______ ____
ROOT
ATOM      1  O   UNL     1      40.465 -26.577 -14.904  0.00  0.00    -0.270 OA
ATOM      2  N   UNL     1      39.350 -25.118 -13.516  0.00  0.00    -0.278 N 
ATOM      3  C   UNL     1      35.741 -24.358 -13.233  0.00  0.00    +0.004 C 
ATOM      4  C   UNL     1      36.938 -24.932 -13.669  0.00  0.00    +0.015 C 
ATOM      5  C   UNL     1      35.756 -23.401 -12.216  0.00  0.00    +0.001 C 
ATOM      6  C   UNL     1      38.145 -24.540 -13.077  0.00  0.00    +0.084 C 
ATOM      7  C   UNL     1      38.161 -23.584 -12.060  0.00  0.00    +0.147 C 
ATOM      8  C   UNL     1      36.965 -25.936 -14.730  0.00  0.00    +0.006 C 
ATOM      9  C   UNL     1      36.962 -23.015 -11.631  0.00  0.00    +0.038 C 
ATOM     10  C   UNL     1      38.122 -26.473 -15.131  0.00  0.00    +0.058 C 
ATOM     11  C   UNL     1      39.416 -26.070 -14.515  0.00  0.00    +0.250 C 
ATOM     12  H   UNL     1      40.189 -24.830 -13.089  0.00  0.00    +0.155 HD
ENDROOT
BRANCH   7  13
ATOM     13  O   UNL     1      39.329 -23.196 -11.476  0.00  0.00    -0.504 OA
ATOM     14  H   UNL     1      39.407 -23.192 -10.543  0.00  0.00    +0.292 HD
ENDBRANCH   7  13
BRANCH   3  15
ATOM     15  C   UNL     1      34.418 -24.731 -13.820  0.00  0.00    +0.113 C 
BRANCH  15  16
ATOM     16  O   UNL     1      33.410 -24.835 -12.804  0.00  0.00    -0.382 OA
ATOM     17  H   UNL     1      32.610 -25.233 -13.180  0.00  0.00    +0.211 HD
ENDBRANCH  15  16
BRANCH  15  18
ATOM     18  C   UNL     1      33.946 -23.761 -14.943  0.00  0.00    -0.030 C 
BRANCH  18  19
ATOM     19  N   UNL     1      32.742 -23.035 -14.516  0.00  0.00    +0.388 N 
ATOM     20  H   UNL     1      32.864 -22.040 -14.703  0.00  0.00    -0.084 HD
ATOM     21  H   UNL     1      32.601 -23.191 -13.518  0.00  0.00    -0.084 HD
BRANCH  19  22
ATOM     22  C   UNL     1      31.576 -23.516 -15.235  0.00  0.00    -0.062 C 
ATOM     23  C   UNL     1      31.541 -22.925 -16.642  0.00  0.00    -0.023 C 
ATOM     24  C   UNL     1      30.315 -23.155 -14.458  0.00  0.00    -0.023 C 
ENDBRANCH  19  22
ENDBRANCH  18  19
BRANCH  18  25
ATOM     25  C   UNL     1      35.031 -22.748 -15.364  0.00  0.00    -0.019 C 
ATOM     26  C   UNL     1      35.363 -22.807 -16.851  0.00  0.00    -0.002 C 
ENDBRANCH  18  25
ENDBRANCH  15  18
ENDBRANCH   3  15
TORSDOF 7
ENDMDL
MODEL 8
REMARK VINA RESULT:      -7.8      6.503      9.453
REMARK  Name = 688561
REMARK  7 active torsions:
REMARK  status: ('A' for Active; 'I' for Inactive)
REMARK    1  A    between atoms: C_3  and  C_15
REMARK    2  A    between atoms: C_7  and  O_13
REMARK    3  A    between atoms: C_15  and  O_16
REMARK    4  A    between atoms: C_15  and  C_18
REMARK    5  A    between atoms: C_18  and  N_19
REMARK    6  A    between atoms: C_18  and  C_25
REMARK    7  A    between atoms: N_19  and  C_22
REMARK                            x       y       z     vdW  Elec       q    Type
REMARK                         _______ _______ _______ _____ _____    ______ ____
ROOT
ATOM      1  O   UNL     1      33.032 -21.905 -19.896  0.00  0.00    -0.270 OA
ATOM      2  N   UNL     1      32.255 -22.712 -17.884  0.00  0.00    -0.278 N 
ATOM      3  C   UNL     1      34.088 -23.712 -14.830  0.00  0.00    +0.004 C 
ATOM      4  C   UNL     1      33.832 -23.249 -16.125  0.00  0.00    +0.015 C 
ATOM      5  C   UNL     1      33.028 -24.099 -14.006  0.00  0.00    +0.001 C 
ATOM      6  C   UNL     1      32.512 -23.178 -16.582  0.00  0.00    +0.084 C 
ATOM      7  C   UNL     1      31.452 -23.563 -15.760  0.00  0.00    +0.147 C 
ATOM      8  C   UNL     1      34.913 -22.836 -17.017  0.00  0.00    +0.006 C 
ATOM      9  C   UNL     1      31.714 -24.025 -14.469  0.00  0.00    +0.038 C 
ATOM     10  C   UNL     1      34.646 -22.395 -18.251  0.00  0.00    +0.058 C 
ATOM     11  C   UNL     1      33.248 -22.312 -18.757  0.00  0.00    +0.250 C 
ATOM     12  H   UNL     1      31.320 -22.669 -18.190  0.00  0.00    +0.155 HD
ENDROOT
BRANCH   7  13
ATOM     13  O   UNL     1      30.163 -23.497 -16.194  0.00  0.00    -0.504 OA
ATOM     14  H   UNL     1      29.928 -23.865 -17.022  0.00  0.00    +0.292 HD
ENDBRANCH   7  13
BRANCH   3  15
ATOM     15  C   UNL     1      35.473 -23.812 -14.278  0.00  0.00    +0.113 C 
BRANCH  15  16
ATOM     16  O   UNL     1      36.050 -22.513 -14.084  0.00  0.00    -0.382 OA
ATOM     17  H   UNL     1      35.551 -22.035 -13.403  0.00  0.00    +0.211 HD
ENDBRANCH  15  16
BRANCH  15  18
ATOM     18  C   UNL     1      35.551 -24.636 -12.958  0.00  0.00    -0.030 C 
BRANCH  18  19
ATOM     19  N   UNL     1      36.374 -25.837 -13.157  0.00  0.00    +0.388 N 
ATOM     20  H   UNL     1      35.764 -26.648 -13.266  0.00  0.00    -0.084 HD
ATOM     21  H   UNL     1      36.979 -25.959 -12.345  0.00  0.00    -0.084 HD
BRANCH  19  22
ATOM     22  C   UNL     1      37.199 -25.698 -14.343  0.00  0.00    -0.062 C 
ATOM     23  C   UNL     1      36.916 -26.835 -15.321  0.00  0.00    -0.023 C 
ATOM     24  C   UNL     1      38.669 -25.676 -13.939  0.00  0.00    -0.023 C 
ENDBRANCH  19  22
ENDBRANCH  18  19
BRANCH  18  25
ATOM     25  C   UNL     1      36.108 -23.825 -11.771  0.00  0.00    -0.019 C 
ATOM     26  C   UNL     1      35.679 -24.374 -10.414  0.00  0.00    -0.002 C 
ENDBRANCH  18  25
ENDBRANCH  15  18
ENDBRANCH   3  15
TORSDOF 7
ENDMDL
MODEL 9
REMARK VINA RESULT:      -7.8      3.999      6.663
REMARK  Name = 688561
REMARK  7 active torsions:
REMARK  status: ('A' for Active; 'I' for Inactive)
REMARK    1  A    between atoms: C_3  and  C_15
REMARK    2  A    between atoms: C_7  and  O_13
REMARK    3  A    between atoms: C_15  and  O_16
REMARK    4  A    between atoms: C_15  and  C_18
REMARK    5  A    between atoms: C_18  and  N_19
REMARK    6  A    between atoms: C_18  and  C_25
REMARK    7  A    between atoms: N_19  and  C_22
REMARK                            x       y       z     vdW  Elec       q    Type
REMARK                         _______ _______ _______ _____ _____    ______ ____
ROOT
ATOM      1  O   UNL     1      31.527  -8.878 -20.320  0.00  0.00    -0.270 OA
ATOM      2  N   UNL     1      32.800  -9.254 -22.201  0.00  0.00    -0.278 N 
ATOM      3  C   UNL     1      33.351 -12.351 -24.147  0.00  0.00    +0.004 C 
ATOM      4  C   UNL     1      32.878 -11.476 -23.165  0.00  0.00    +0.015 C 
ATOM      5  C   UNL     1      34.214 -11.884 -25.142  0.00  0.00    +0.001 C 
ATOM      6  C   UNL     1      33.276 -10.135 -23.190  0.00  0.00    +0.084 C 
ATOM      7  C   UNL     1      34.137  -9.666 -24.183  0.00  0.00    +0.147 C 
ATOM      8  C   UNL     1      31.975 -11.927 -22.109  0.00  0.00    +0.006 C 
ATOM      9  C   UNL     1      34.606 -10.545 -25.159  0.00  0.00    +0.038 C 
ATOM     10  C   UNL     1      31.534 -11.072 -21.179  0.00  0.00    +0.058 C 
ATOM     11  C   UNL     1      31.945  -9.641 -21.187  0.00  0.00    +0.250 C 
ATOM     12  H   UNL     1      33.090  -8.314 -22.234  0.00  0.00    +0.155 HD
ENDROOT
BRANCH   7  13
ATOM     13  O   UNL     1      34.530  -8.362 -24.217  0.00  0.00    -0.504 OA
ATOM     14  H   UNL     1      33.926  -7.685 -23.983  0.00  0.00    +0.292 HD
ENDBRANCH   7  13
BRANCH   3  15
ATOM     15  C   UNL     1      32.966 -13.795 -24.181  0.00  0.00    +0.113 C 
BRANCH  15  16
ATOM     16  O   UNL     1      32.404 -14.153 -25.452  0.00  0.00    -0.382 OA
ATOM     17  H   UNL     1      31.882 -14.965 -25.359  0.00  0.00    +0.211 HD
ENDBRANCH  15  16
BRANCH  15  18
ATOM     18  C   UNL     1      34.141 -14.755 -23.827  0.00  0.00    -0.030 C 
BRANCH  18  19
ATOM     19  N   UNL     1      34.449 -14.671 -22.392  0.00  0.00    +0.388 N 
ATOM     20  H   UNL     1      34.115 -13.779 -22.028  0.00  0.00    -0.084 HD
ATOM     21  H   UNL     1      35.459 -14.747 -22.267  0.00  0.00    -0.084 HD
BRANCH  19  22
ATOM     22  C   UNL     1      33.804 -15.753 -21.670  0.00  0.00    -0.062 C 
ATOM     23  C   UNL     1      32.803 -15.193 -20.662  0.00  0.00    -0.023 C 
ATOM     24  C   UNL     1      34.863 -16.603 -20.976  0.00  0.00    -0.023 C 
ENDBRANCH  19  22
ENDBRANCH  18  19
BRANCH  18  25
ATOM     25  C   UNL     1      33.860 -16.222 -24.205  0.00  0.00    -0.019 C 
ATOM     26  C   UNL     1      34.913 -16.815 -25.137  0.00  0.00    -0.002 C 
ENDBRANCH  18  25
ENDBRANCH  15  18
ENDBRANCH   3  15
TORSDOF 7
ENDMDL
