MODEL 1
REMARK VINA RESULT:      -5.4      0.000      0.000
REMARK  Name = 5289510
REMARK  2 active torsions:
REMARK  status: ('A' for Active; 'I' for Inactive)
REMARK    1  A    between atoms: C_3  and  C_6
REMARK    2  A    between atoms: C_6  and  C_8
REMARK                            x       y       z     vdW  Elec       q    Type
REMARK                         _______ _______ _______ _____ _____    ______ ____
ROOT
ATOM      1  S   UNL     1      34.638 -16.122 -23.031  0.00  0.00    -0.070 S 
ATOM      2  N   UNL     1      35.003 -16.585 -20.514  0.00  0.00    -0.241 NA
ATOM      3  C   UNL     1      35.038 -17.092 -21.700  0.00  0.00    +0.088 C 
ATOM      4  C   UNL     1      34.371 -14.834 -21.932  0.00  0.00    +0.057 C 
ATOM      5  C   UNL     1      34.614 -15.265 -20.645  0.00  0.00    +0.106 C 
ENDROOT
BRANCH   3   6
ATOM      6  C   UNL     1      35.428 -18.540 -21.967  0.00  0.00    +0.047 C 
ATOM      7  C   UNL     1      34.931 -18.997 -23.343  0.00  0.00    +0.007 C 
BRANCH   6   8
ATOM      8  C   UNL     1      34.928 -19.507 -20.874  0.00  0.00    +0.006 C 
ATOM      9  C   UNL     1      33.439 -19.811 -20.977  0.00  0.00    +0.000 C 
ENDBRANCH   6   8
ENDBRANCH   3   6
TORSDOF 2
ENDMDL
MODEL 2
REMARK VINA RESULT:      -5.4      3.078      3.563
REMARK  Name = 5289510
REMARK  2 active torsions:
REMARK  status: ('A' for Active; 'I' for Inactive)
REMARK    1  A    between atoms: C_3  and  C_6
REMARK    2  A    between atoms: C_6  and  C_8
REMARK                            x       y       z     vdW  Elec       q    Type
REMARK                         _______ _______ _______ _____ _____    ______ ____
ROOT
ATOM      1  S   UNL     1      33.893 -15.081 -23.785  0.00  0.00    -0.070 S 
ATOM      2  N   UNL     1      33.745 -16.204 -26.109  0.00  0.00    -0.241 NA
ATOM      3  C   UNL     1      34.186 -16.323 -24.902  0.00  0.00    +0.088 C 
ATOM      4  C   UNL     1      33.068 -14.241 -25.031  0.00  0.00    +0.057 C 
ATOM      5  C   UNL     1      33.091 -14.990 -26.189  0.00  0.00    +0.106 C 
ENDROOT
BRANCH   3   6
ATOM      6  C   UNL     1      34.966 -17.539 -24.424  0.00  0.00    +0.047 C 
ATOM      7  C   UNL     1      34.329 -18.836 -24.936  0.00  0.00    +0.007 C 
BRANCH   6   8
ATOM      8  C   UNL     1      35.117 -17.592 -22.890  0.00  0.00    +0.006 C 
ATOM      9  C   UNL     1      34.932 -18.991 -22.316  0.00  0.00    +0.000 C 
ENDBRANCH   6   8
ENDBRANCH   3   6
TORSDOF 2
ENDMDL
MODEL 3
REMARK VINA RESULT:      -5.3      2.231      2.775
REMARK  Name = 5289510
REMARK  2 active torsions:
REMARK  status: ('A' for Active; 'I' for Inactive)
REMARK    1  A    between atoms: C_3  and  C_6
REMARK    2  A    between atoms: C_6  and  C_8
REMARK                            x       y       z     vdW  Elec       q    Type
REMARK                         _______ _______ _______ _____ _____    ______ ____
ROOT
ATOM      1  S   UNL     1      34.794 -16.753 -22.555  0.00  0.00    -0.070 S 
ATOM      2  N   UNL     1      34.615 -19.146 -23.515  0.00  0.00    -0.241 NA
ATOM      3  C   UNL     1      34.638 -18.437 -22.437  0.00  0.00    +0.088 C 
ATOM      4  C   UNL     1      34.843 -16.939 -24.258  0.00  0.00    +0.057 C 
ATOM      5  C   UNL     1      34.733 -18.275 -24.581  0.00  0.00    +0.106 C 
ENDROOT
BRANCH   3   6
ATOM      6  C   UNL     1      34.530 -19.046 -21.046  0.00  0.00    +0.047 C 
ATOM      7  C   UNL     1      35.694 -20.005 -20.775  0.00  0.00    +0.007 C 
BRANCH   6   8
ATOM      8  C   UNL     1      33.185 -19.761 -20.807  0.00  0.00    +0.006 C 
ATOM      9  C   UNL     1      33.290 -20.922 -19.825  0.00  0.00    +0.000 C 
ENDBRANCH   6   8
ENDBRANCH   3   6
TORSDOF 2
ENDMDL
MODEL 4
REMARK VINA RESULT:      -5.3      1.584      2.396
REMARK  Name = 5289510
REMARK  2 active torsions:
REMARK  status: ('A' for Active; 'I' for Inactive)
REMARK    1  A    between atoms: C_3  and  C_6
REMARK    2  A    between atoms: C_6  and  C_8
REMARK                            x       y       z     vdW  Elec       q    Type
REMARK                         _______ _______ _______ _____ _____    ______ ____
ROOT
ATOM      1  S   UNL     1      35.013 -18.613 -23.270  0.00  0.00    -0.070 S 
ATOM      2  N   UNL     1      34.869 -17.732 -20.844  0.00  0.00    -0.241 NA
ATOM      3  C   UNL     1      34.846 -18.784 -21.591  0.00  0.00    +0.088 C 
ATOM      4  C   UNL     1      35.134 -16.921 -23.023  0.00  0.00    +0.057 C 
ATOM      5  C   UNL     1      35.038 -16.642 -21.676  0.00  0.00    +0.106 C 
ENDROOT
BRANCH   3   6
ATOM      6  C   UNL     1      34.676 -20.190 -21.033  0.00  0.00    +0.047 C 
ATOM      7  C   UNL     1      33.347 -20.324 -20.280  0.00  0.00    +0.007 C 
BRANCH   6   8
ATOM      8  C   UNL     1      35.846 -20.621 -20.125  0.00  0.00    +0.006 C 
ATOM      9  C   UNL     1      35.481 -21.753 -19.173  0.00  0.00    +0.000 C 
ENDBRANCH   6   8
ENDBRANCH   3   6
TORSDOF 2
ENDMDL
MODEL 5
REMARK VINA RESULT:      -5.2      2.636      4.430
REMARK  Name = 5289510
REMARK  2 active torsions:
REMARK  status: ('A' for Active; 'I' for Inactive)
REMARK    1  A    between atoms: C_3  and  C_6
REMARK    2  A    between atoms: C_6  and  C_8
REMARK                            x       y       z     vdW  Elec       q    Type
REMARK                         _______ _______ _______ _____ _____    ______ ____
ROOT
ATOM      1  S   UNL     1      33.185 -20.232 -20.537  0.00  0.00    -0.070 S 
ATOM      2  N   UNL     1      35.653 -20.883 -20.125  0.00  0.00    -0.241 NA
ATOM      3  C   UNL     1      34.859 -20.093 -20.766  0.00  0.00    +0.088 C 
ATOM      4  C   UNL     1      33.505 -21.511 -19.441  0.00  0.00    +0.057 C 
ATOM      5  C   UNL     1      34.866 -21.713 -19.349  0.00  0.00    +0.106 C 
ENDROOT
BRANCH   3   6
ATOM      6  C   UNL     1      35.358 -19.025 -21.730  0.00  0.00    +0.047 C 
ATOM      7  C   UNL     1      35.058 -17.620 -21.196  0.00  0.00    +0.007 C 
BRANCH   6   8
ATOM      8  C   UNL     1      34.785 -19.186 -23.152  0.00  0.00    +0.006 C 
ATOM      9  C   UNL     1      35.078 -17.994 -24.055  0.00  0.00    +0.000 C 
ENDBRANCH   6   8
ENDBRANCH   3   6
TORSDOF 2
ENDMDL
MODEL 6
REMARK VINA RESULT:      -5.1      2.563      4.293
REMARK  Name = 5289510
REMARK  2 active torsions:
REMARK  status: ('A' for Active; 'I' for Inactive)
REMARK    1  A    between atoms: C_3  and  C_6
REMARK    2  A    between atoms: C_6  and  C_8
REMARK                            x       y       z     vdW  Elec       q    Type
REMARK                         _______ _______ _______ _____ _____    ______ ____
ROOT
ATOM      1  S   UNL     1      33.057 -20.551 -20.255  0.00  0.00    -0.070 S 
ATOM      2  N   UNL     1      35.631 -20.310 -20.267  0.00  0.00    -0.241 NA
ATOM      3  C   UNL     1      34.520 -19.830 -20.716  0.00  0.00    +0.088 C 
ATOM      4  C   UNL     1      33.971 -21.665 -19.326  0.00  0.00    +0.057 C 
ATOM      5  C   UNL     1      35.315 -21.382 -19.454  0.00  0.00    +0.106 C 
ENDROOT
BRANCH   3   6
ATOM      6  C   UNL     1      34.458 -18.632 -21.653  0.00  0.00    +0.047 C 
ATOM      7  C   UNL     1      34.905 -19.017 -23.068  0.00  0.00    +0.007 C 
BRANCH   6   8
ATOM      8  C   UNL     1      35.280 -17.430 -21.145  0.00  0.00    +0.006 C 
ATOM      9  C   UNL     1      34.456 -16.155 -21.007  0.00  0.00    +0.000 C 
ENDBRANCH   6   8
ENDBRANCH   3   6
TORSDOF 2
ENDMDL
MODEL 7
REMARK VINA RESULT:      -5.0      7.875      9.725
REMARK  Name = 5289510
REMARK  2 active torsions:
REMARK  status: ('A' for Active; 'I' for Inactive)
REMARK    1  A    between atoms: C_3  and  C_6
REMARK    2  A    between atoms: C_6  and  C_8
REMARK                            x       y       z     vdW  Elec       q    Type
REMARK                         _______ _______ _______ _____ _____    ______ ____
ROOT
ATOM      1  S   UNL     1      31.696 -10.049 -21.790  0.00  0.00    -0.070 S 
ATOM      2  N   UNL     1      32.234  -9.026 -19.478  0.00  0.00    -0.241 NA
ATOM      3  C   UNL     1      32.304  -8.852 -20.755  0.00  0.00    +0.088 C 
ATOM      4  C   UNL     1      31.269 -10.949 -20.396  0.00  0.00    +0.057 C 
ATOM      5  C   UNL     1      31.629 -10.250 -19.264  0.00  0.00    +0.106 C 
ENDROOT
BRANCH   3   6
ATOM      6  C   UNL     1      32.913  -7.607 -21.386  0.00  0.00    +0.047 C 
ATOM      7  C   UNL     1      32.023  -6.382 -21.151  0.00  0.00    +0.007 C 
BRANCH   6   8
ATOM      8  C   UNL     1      33.197  -7.776 -22.892  0.00  0.00    +0.006 C 
ATOM      9  C   UNL     1      34.669  -7.606 -23.247  0.00  0.00    +0.000 C 
ENDBRANCH   6   8
ENDBRANCH   3   6
TORSDOF 2
ENDMDL
MODEL 8
REMARK VINA RESULT:      -5.0      1.270      3.932
REMARK  Name = 5289510
REMARK  2 active torsions:
REMARK  status: ('A' for Active; 'I' for Inactive)
REMARK    1  A    between atoms: C_3  and  C_6
REMARK    2  A    between atoms: C_6  and  C_8
REMARK                            x       y       z     vdW  Elec       q    Type
REMARK                         _______ _______ _______ _____ _____    ______ ____
ROOT
ATOM      1  S   UNL     1      34.988 -16.881 -23.265  0.00  0.00    -0.070 S 
ATOM      2  N   UNL     1      35.253 -17.314 -20.730  0.00  0.00    -0.241 NA
ATOM      3  C   UNL     1      34.832 -16.484 -21.625  0.00  0.00    +0.088 C 
ATOM      4  C   UNL     1      35.713 -18.355 -22.775  0.00  0.00    +0.057 C 
ATOM      5  C   UNL     1      35.768 -18.409 -21.398  0.00  0.00    +0.106 C 
ENDROOT
BRANCH   3   6
ATOM      6  C   UNL     1      34.193 -15.147 -21.274  0.00  0.00    +0.047 C 
ATOM      7  C   UNL     1      32.801 -15.348 -20.665  0.00  0.00    +0.007 C 
BRANCH   6   8
ATOM      8  C   UNL     1      34.112 -14.186 -22.477  0.00  0.00    +0.006 C 
ATOM      9  C   UNL     1      32.688 -13.759 -22.809  0.00  0.00    +0.000 C 
ENDBRANCH   6   8
ENDBRANCH   3   6
TORSDOF 2
ENDMDL
MODEL 9
REMARK VINA RESULT:      -4.9      2.054      3.818
REMARK  Name = 5289510
REMARK  2 active torsions:
REMARK  status: ('A' for Active; 'I' for Inactive)
REMARK    1  A    between atoms: C_3  and  C_6
REMARK    2  A    between atoms: C_6  and  C_8
REMARK                            x       y       z     vdW  Elec       q    Type
REMARK                         _______ _______ _______ _____ _____    ______ ____
ROOT
ATOM      1  S   UNL     1      33.763 -19.686 -20.925  0.00  0.00    -0.070 S 
ATOM      2  N   UNL     1      36.142 -18.679 -20.829  0.00  0.00    -0.241 NA
ATOM      3  C   UNL     1      34.910 -18.458 -21.143  0.00  0.00    +0.088 C 
ATOM      4  C   UNL     1      35.030 -20.677 -20.332  0.00  0.00    +0.057 C 
ATOM      5  C   UNL     1      36.216 -19.975 -20.354  0.00  0.00    +0.106 C 
ENDROOT
BRANCH   3   6
ATOM      6  C   UNL     1      34.429 -17.128 -21.707  0.00  0.00    +0.047 C 
ATOM      7  C   UNL     1      35.102 -16.825 -23.050  0.00  0.00    +0.007 C 
BRANCH   6   8
ATOM      8  C   UNL     1      34.637 -15.951 -20.732  0.00  0.00    +0.006 C 
ATOM      9  C   UNL     1      33.406 -15.065 -20.589  0.00  0.00    +0.000 C 
ENDBRANCH   6   8
ENDBRANCH   3   6
TORSDOF 2
ENDMDL
