MODEL 1
REMARK VINA RESULT:      -6.5      0.000      0.000
REMARK  Name = 10631973
REMARK  7 active torsions:
REMARK  status: ('A' for Active; 'I' for Inactive)
REMARK    1  A    between atoms: CA_1  and  N_3
REMARK    2  A    between atoms: CA_1  and  C_10
REMARK    3  A    between atoms: CA_1  and  CB_13
REMARK    4  A    between atoms: C_4  and  O_6
REMARK    5  A    between atoms: O_6  and  C_7
REMARK    6  A    between atoms: C_10  and  O_11
REMARK    7  A    between atoms: CB_13  and  CG_14
REMARK                            x       y       z     vdW  Elec       q    Type
REMARK                         _______ _______ _______ _____ _____    ______ ____
ROOT
ATOM      1  CA  UNL     1      38.839 -25.144 -14.362  0.00  0.00    +0.174 C 
ENDROOT
BRANCH   1   3
ATOM      2  O   UNL     1      37.580 -22.529 -14.470  0.00  0.00    -0.226 OA
ATOM      3  N   UNL     1      38.108 -24.561 -15.457  0.00  0.00    -0.262 N 
ATOM      4  C   ACE A   0      37.540 -23.303 -15.422  0.00  0.00    +0.402 C 
ATOM      5  H   UNL     1      38.009 -25.091 -16.282  0.00  0.00    +0.153 HD
BRANCH   4   6
ATOM      6  O   UNL     1      36.920 -23.040 -16.611  0.00  0.00    -0.435 OA
BRANCH   6   7
ATOM      7  C   UNL     1      36.937 -21.672 -17.035  0.00  0.00    +0.210 C 
ATOM      8  C   UNL     1      36.545 -21.604 -18.495  0.00  0.00    +0.051 C 
ENDBRANCH   6   7
ENDBRANCH   4   6
ENDBRANCH   1   3
BRANCH   1  10
ATOM      9  OXT UNL     1      40.896 -26.369 -14.011  0.00  0.00    -0.248 OA
ATOM     10  C   UNL     1      40.113 -25.847 -14.798  0.00  0.00    +0.332 C 
BRANCH  10  11
ATOM     11  O   UNL     1      40.349 -25.807 -16.132  0.00  0.00    -0.479 OA
ATOM     12  H   UNL     1      40.271 -26.586 -16.645  0.00  0.00    +0.295 HD
ENDBRANCH  10  11
ENDBRANCH   1  10
BRANCH   1  13
ATOM     13  CB  UNL     1      37.947 -26.020 -13.468  0.00  0.00    +0.031 C 
BRANCH  13  14
ATOM     14  CG  UNL     1      37.347 -25.374 -12.198  0.00  0.00    +0.002 C 
ATOM     15  CD1 UNL     1      38.235 -24.203 -11.761  0.00  0.00    +0.000 C 
ATOM     16  CD2 UNL     1      35.911 -24.886 -12.374  0.00  0.00    +0.000 C 
ENDBRANCH  13  14
ENDBRANCH   1  13
TORSDOF 7
ENDMDL
MODEL 2
REMARK VINA RESULT:      -6.4      6.997     11.037
REMARK  Name = 10631973
REMARK  7 active torsions:
REMARK  status: ('A' for Active; 'I' for Inactive)
REMARK    1  A    between atoms: CA_1  and  N_3
REMARK    2  A    between atoms: CA_1  and  C_10
REMARK    3  A    between atoms: CA_1  and  CB_13
REMARK    4  A    between atoms: C_4  and  O_6
REMARK    5  A    between atoms: O_6  and  C_7
REMARK    6  A    between atoms: C_10  and  O_11
REMARK    7  A    between atoms: CB_13  and  CG_14
REMARK                            x       y       z     vdW  Elec       q    Type
REMARK                         _______ _______ _______ _____ _____    ______ ____
ROOT
ATOM      1  CA  UNL     1      34.670 -16.740 -21.528  0.00  0.00    +0.174 C 
ENDROOT
BRANCH   1   3
ATOM      2  O   UNL     1      34.341 -19.623 -21.654  0.00  0.00    -0.226 OA
ATOM      3  N   UNL     1      35.429 -17.747 -20.831  0.00  0.00    -0.262 N 
ATOM      4  C   ACE A   0      35.203 -19.104 -20.952  0.00  0.00    +0.402 C 
ATOM      5  H   UNL     1      36.153 -17.449 -20.234  0.00  0.00    +0.153 HD
BRANCH   4   6
ATOM      6  O   UNL     1      36.085 -19.793 -20.169  0.00  0.00    -0.435 OA
BRANCH   6   7
ATOM      7  C   UNL     1      35.713 -21.138 -19.844  0.00  0.00    +0.210 C 
ATOM      8  C   UNL     1      36.455 -21.566 -18.595  0.00  0.00    +0.051 C 
ENDBRANCH   6   7
ENDBRANCH   4   6
ENDBRANCH   1   3
BRANCH   1  10
ATOM      9  OXT UNL     1      35.123 -15.350 -23.455  0.00  0.00    -0.248 OA
ATOM     10  C   UNL     1      35.195 -16.453 -22.924  0.00  0.00    +0.332 C 
BRANCH  10  11
ATOM     11  O   UNL     1      35.704 -17.532 -23.566  0.00  0.00    -0.479 OA
ATOM     12  H   UNL     1      35.313 -17.831 -24.363  0.00  0.00    +0.295 HD
ENDBRANCH  10  11
ENDBRANCH   1  10
BRANCH   1  13
ATOM     13  CB  UNL     1      34.478 -15.469 -20.686  0.00  0.00    +0.031 C 
BRANCH  13  14
ATOM     14  CG  UNL     1      33.032 -15.009 -20.397  0.00  0.00    +0.002 C 
ATOM     15  CD1 UNL     1      32.687 -13.825 -21.309  0.00  0.00    +0.000 C 
ATOM     16  CD2 UNL     1      31.988 -16.109 -20.576  0.00  0.00    +0.000 C 
ENDBRANCH  13  14
ENDBRANCH   1  13
TORSDOF 7
ENDMDL
MODEL 3
REMARK VINA RESULT:      -6.3     11.533     13.365
REMARK  Name = 10631973
REMARK  7 active torsions:
REMARK  status: ('A' for Active; 'I' for Inactive)
REMARK    1  A    between atoms: CA_1  and  N_3
REMARK    2  A    between atoms: CA_1  and  C_10
REMARK    3  A    between atoms: CA_1  and  CB_13
REMARK    4  A    between atoms: C_4  and  O_6
REMARK    5  A    between atoms: O_6  and  C_7
REMARK    6  A    between atoms: C_10  and  O_11
REMARK    7  A    between atoms: CB_13  and  CG_14
REMARK                            x       y       z     vdW  Elec       q    Type
REMARK                         _______ _______ _______ _____ _____    ______ ____
ROOT
ATOM      1  CA  UNL     1      34.755 -15.685 -23.110  0.00  0.00    +0.174 C 
ENDROOT
BRANCH   1   3
ATOM      2  O   UNL     1      35.050 -16.803 -25.774  0.00  0.00    -0.226 OA
ATOM      3  N   UNL     1      33.873 -15.525 -24.238  0.00  0.00    -0.262 N 
ATOM      4  C   ACE A   0      34.093 -16.097 -25.475  0.00  0.00    +0.402 C 
ATOM      5  H   UNL     1      33.064 -14.976 -24.118  0.00  0.00    +0.153 HD
BRANCH   4   6
ATOM      6  O   UNL     1      33.080 -15.761 -26.329  0.00  0.00    -0.435 OA
BRANCH   6   7
ATOM      7  C   UNL     1      32.622 -14.406 -26.252  0.00  0.00    +0.210 C 
ATOM      8  C   UNL     1      33.379 -13.572 -27.262  0.00  0.00    +0.051 C 
ENDBRANCH   6   7
ENDBRANCH   4   6
ENDBRANCH   1   3
BRANCH   1  10
ATOM      9  OXT UNL     1      34.181 -17.756 -21.999  0.00  0.00    -0.248 OA
ATOM     10  C   UNL     1      34.963 -17.136 -22.713  0.00  0.00    +0.332 C 
BRANCH  10  11
ATOM     11  O   UNL     1      36.116 -17.684 -23.166  0.00  0.00    -0.479 OA
ATOM     12  H   UNL     1      36.297 -17.701 -24.085  0.00  0.00    +0.295 HD
ENDBRANCH  10  11
ENDBRANCH   1  10
BRANCH   1  13
ATOM     13  CB  UNL     1      34.355 -14.790 -21.927  0.00  0.00    +0.031 C 
BRANCH  13  14
ATOM     14  CG  UNL     1      32.848 -14.643 -21.614  0.00  0.00    +0.002 C 
ATOM     15  CD1 UNL     1      32.586 -15.093 -20.172  0.00  0.00    +0.000 C 
ATOM     16  CD2 UNL     1      32.314 -13.227 -21.810  0.00  0.00    +0.000 C 
ENDBRANCH  13  14
ENDBRANCH   1  13
TORSDOF 7
ENDMDL
MODEL 4
REMARK VINA RESULT:      -6.3      1.961      4.006
REMARK  Name = 10631973
REMARK  7 active torsions:
REMARK  status: ('A' for Active; 'I' for Inactive)
REMARK    1  A    between atoms: CA_1  and  N_3
REMARK    2  A    between atoms: CA_1  and  C_10
REMARK    3  A    between atoms: CA_1  and  CB_13
REMARK    4  A    between atoms: C_4  and  O_6
REMARK    5  A    between atoms: O_6  and  C_7
REMARK    6  A    between atoms: C_10  and  O_11
REMARK    7  A    between atoms: CB_13  and  CG_14
REMARK                            x       y       z     vdW  Elec       q    Type
REMARK                         _______ _______ _______ _____ _____    ______ ____
ROOT
ATOM      1  CA  UNL     1      38.715 -25.105 -14.638  0.00  0.00    +0.174 C 
ENDROOT
BRANCH   1   3
ATOM      2  O   UNL     1      37.086 -26.540 -12.709  0.00  0.00    -0.226 OA
ATOM      3  N   UNL     1      38.415 -24.727 -13.281  0.00  0.00    -0.262 N 
ATOM      4  C   ACE A   0      37.627 -25.475 -12.429  0.00  0.00    +0.402 C 
ATOM      5  H   UNL     1      38.797 -23.885 -12.940  0.00  0.00    +0.153 HD
BRANCH   4   6
ATOM      6  O   UNL     1      37.534 -24.853 -11.216  0.00  0.00    -0.435 OA
BRANCH   6   7
ATOM      7  C   UNL     1      36.882 -23.578 -11.216  0.00  0.00    +0.210 C 
ATOM      8  C   UNL     1      35.467 -23.748 -11.727  0.00  0.00    +0.051 C 
ENDBRANCH   6   7
ENDBRANCH   4   6
ENDBRANCH   1   3
BRANCH   1  10
ATOM      9  OXT UNL     1      40.744 -26.145 -13.828  0.00  0.00    -0.248 OA
ATOM     10  C   UNL     1      40.060 -25.797 -14.785  0.00  0.00    +0.332 C 
BRANCH  10  11
ATOM     11  O   UNL     1      40.476 -25.951 -16.065  0.00  0.00    -0.479 OA
ATOM     12  H   UNL     1      40.859 -26.761 -16.338  0.00  0.00    +0.295 HD
ENDBRANCH  10  11
ENDBRANCH   1  10
BRANCH   1  13
ATOM     13  CB  UNL     1      38.530 -23.939 -15.621  0.00  0.00    +0.031 C 
BRANCH  13  14
ATOM     14  CG  UNL     1      37.302 -23.020 -15.424  0.00  0.00    +0.002 C 
ATOM     15  CD1 UNL     1      37.319 -21.920 -16.492  0.00  0.00    +0.000 C 
ATOM     16  CD2 UNL     1      35.967 -23.758 -15.475  0.00  0.00    +0.000 C 
ENDBRANCH  13  14
ENDBRANCH   1  13
TORSDOF 7
ENDMDL
MODEL 5
REMARK VINA RESULT:      -6.3     12.666     14.354
REMARK  Name = 10631973
REMARK  7 active torsions:
REMARK  status: ('A' for Active; 'I' for Inactive)
REMARK    1  A    between atoms: CA_1  and  N_3
REMARK    2  A    between atoms: CA_1  and  C_10
REMARK    3  A    between atoms: CA_1  and  CB_13
REMARK    4  A    between atoms: C_4  and  O_6
REMARK    5  A    between atoms: O_6  and  C_7
REMARK    6  A    between atoms: C_10  and  O_11
REMARK    7  A    between atoms: CB_13  and  CG_14
REMARK                            x       y       z     vdW  Elec       q    Type
REMARK                         _______ _______ _______ _____ _____    ______ ____
ROOT
ATOM      1  CA  UNL     1      33.031 -14.060 -24.096  0.00  0.00    +0.174 C 
ENDROOT
BRANCH   1   3
ATOM      2  O   UNL     1      32.867 -15.565 -26.574  0.00  0.00    -0.226 OA
ATOM      3  N   UNL     1      33.814 -15.203 -24.488  0.00  0.00    -0.262 N 
ATOM      4  C   ACE A   0      33.668 -15.861 -25.694  0.00  0.00    +0.402 C 
ATOM      5  H   UNL     1      34.495 -15.535 -23.858  0.00  0.00    +0.153 HD
BRANCH   4   6
ATOM      6  O   UNL     1      34.554 -16.899 -25.766  0.00  0.00    -0.435 OA
BRANCH   6   7
ATOM      7  C   UNL     1      34.928 -17.490 -24.517  0.00  0.00    +0.210 C 
ATOM      8  C   UNL     1      34.548 -18.955 -24.530  0.00  0.00    +0.051 C 
ENDBRANCH   6   7
ENDBRANCH   4   6
ENDBRANCH   1   3
BRANCH   1  10
ATOM      9  OXT UNL     1      33.566 -12.391 -25.765  0.00  0.00    -0.248 OA
ATOM     10  C   UNL     1      33.605 -12.742 -24.590  0.00  0.00    +0.332 C 
BRANCH  10  11
ATOM     11  O   UNL     1      34.219 -12.003 -23.635  0.00  0.00    -0.479 OA
ATOM     12  H   UNL     1      34.944 -12.358 -23.162  0.00  0.00    +0.295 HD
ENDBRANCH  10  11
ENDBRANCH   1  10
BRANCH   1  13
ATOM     13  CB  UNL     1      32.725 -14.053 -22.590  0.00  0.00    +0.031 C 
BRANCH  13  14
ATOM     14  CG  UNL     1      33.268 -15.224 -21.740  0.00  0.00    +0.002 C 
ATOM     15  CD1 UNL     1      34.524 -14.764 -20.992  0.00  0.00    +0.000 C 
ATOM     16  CD2 UNL     1      32.256 -15.782 -20.742  0.00  0.00    +0.000 C 
ENDBRANCH  13  14
ENDBRANCH   1  13
TORSDOF 7
ENDMDL
MODEL 6
REMARK VINA RESULT:      -6.2      9.097     11.082
REMARK  Name = 10631973
REMARK  7 active torsions:
REMARK  status: ('A' for Active; 'I' for Inactive)
REMARK    1  A    between atoms: CA_1  and  N_3
REMARK    2  A    between atoms: CA_1  and  C_10
REMARK    3  A    between atoms: CA_1  and  CB_13
REMARK    4  A    between atoms: C_4  and  O_6
REMARK    5  A    between atoms: O_6  and  C_7
REMARK    6  A    between atoms: C_10  and  O_11
REMARK    7  A    between atoms: CB_13  and  CG_14
REMARK                            x       y       z     vdW  Elec       q    Type
REMARK                         _______ _______ _______ _____ _____    ______ ____
ROOT
ATOM      1  CA  UNL     1      34.736 -17.694 -22.190  0.00  0.00    +0.174 C 
ENDROOT
BRANCH   1   3
ATOM      2  O   UNL     1      34.995 -15.553 -20.246  0.00  0.00    -0.226 OA
ATOM      3  N   UNL     1      33.695 -16.854 -21.659  0.00  0.00    -0.262 N 
ATOM      4  C   ACE A   0      33.910 -15.853 -20.732  0.00  0.00    +0.402 C 
ATOM      5  H   UNL     1      32.774 -17.001 -21.977  0.00  0.00    +0.153 HD
BRANCH   4   6
ATOM      6  O   UNL     1      32.728 -15.238 -20.431  0.00  0.00    -0.435 OA
BRANCH   6   7
ATOM      7  C   UNL     1      32.677 -13.827 -20.674  0.00  0.00    +0.210 C 
ATOM      8  C   UNL     1      32.266 -13.589 -22.112  0.00  0.00    +0.051 C 
ENDBRANCH   6   7
ENDBRANCH   4   6
ENDBRANCH   1   3
BRANCH   1  10
ATOM      9  OXT UNL     1      34.941 -18.065 -24.573  0.00  0.00    -0.248 OA
ATOM     10  C   UNL     1      35.136 -17.330 -23.610  0.00  0.00    +0.332 C 
BRANCH  10  11
ATOM     11  O   UNL     1      35.779 -16.143 -23.726  0.00  0.00    -0.479 OA
ATOM     12  H   UNL     1      36.700 -16.124 -23.896  0.00  0.00    +0.295 HD
ENDBRANCH  10  11
ENDBRANCH   1  10
BRANCH   1  13
ATOM     13  CB  UNL     1      34.421 -19.189 -22.021  0.00  0.00    +0.031 C 
BRANCH  13  14
ATOM     14  CG  UNL     1      34.374 -19.755 -20.584  0.00  0.00    +0.002 C 
ATOM     15  CD1 UNL     1      32.997 -20.381 -20.333  0.00  0.00    +0.000 C 
ATOM     16  CD2 UNL     1      35.462 -20.787 -20.292  0.00  0.00    +0.000 C 
ENDBRANCH  13  14
ENDBRANCH   1  13
TORSDOF 7
ENDMDL
MODEL 7
REMARK VINA RESULT:      -6.2      2.727      4.968
REMARK  Name = 10631973
REMARK  7 active torsions:
REMARK  status: ('A' for Active; 'I' for Inactive)
REMARK    1  A    between atoms: CA_1  and  N_3
REMARK    2  A    between atoms: CA_1  and  C_10
REMARK    3  A    between atoms: CA_1  and  CB_13
REMARK    4  A    between atoms: C_4  and  O_6
REMARK    5  A    between atoms: O_6  and  C_7
REMARK    6  A    between atoms: C_10  and  O_11
REMARK    7  A    between atoms: CB_13  and  CG_14
REMARK                            x       y       z     vdW  Elec       q    Type
REMARK                         _______ _______ _______ _____ _____    ______ ____
ROOT
ATOM      1  CA  UNL     1      36.208 -23.756 -12.797  0.00  0.00    +0.174 C 
ENDROOT
BRANCH   1   3
ATOM      2  O   UNL     1      36.950 -26.429 -11.938  0.00  0.00    -0.226 OA
ATOM      3  N   UNL     1      37.075 -24.690 -13.468  0.00  0.00    -0.262 N 
ATOM      4  C   ACE A   0      37.374 -25.948 -12.984  0.00  0.00    +0.402 C 
ATOM      5  H   UNL     1      37.478 -24.414 -14.324  0.00  0.00    +0.153 HD
BRANCH   4   6
ATOM      6  O   UNL     1      38.219 -26.589 -13.846  0.00  0.00    -0.435 OA
BRANCH   6   7
ATOM      7  C   UNL     1      38.981 -25.744 -14.717  0.00  0.00    +0.210 C 
ATOM      8  C   UNL     1      40.448 -25.866 -14.365  0.00  0.00    +0.051 C 
ENDBRANCH   6   7
ENDBRANCH   4   6
ENDBRANCH   1   3
BRANCH   1  10
ATOM      9  OXT UNL     1      37.517 -22.404 -11.277  0.00  0.00    -0.248 OA
ATOM     10  C   UNL     1      36.727 -23.328 -11.435  0.00  0.00    +0.332 C 
BRANCH  10  11
ATOM     11  O   UNL     1      36.289 -24.088 -10.403  0.00  0.00    -0.479 OA
ATOM     12  H   UNL     1      36.424 -23.803  -9.521  0.00  0.00    +0.295 HD
ENDBRANCH  10  11
ENDBRANCH   1  10
BRANCH   1  13
ATOM     13  CB  UNL     1      34.750 -24.241 -12.759  0.00  0.00    +0.031 C 
BRANCH  13  14
ATOM     14  CG  UNL     1      34.010 -24.402 -14.106  0.00  0.00    +0.002 C 
ATOM     15  CD1 UNL     1      32.515 -24.611 -13.838  0.00  0.00    +0.000 C 
ATOM     16  CD2 UNL     1      34.197 -23.222 -15.057  0.00  0.00    +0.000 C 
ENDBRANCH  13  14
ENDBRANCH   1  13
TORSDOF 7
ENDMDL
MODEL 8
REMARK VINA RESULT:      -6.2      9.868     12.537
REMARK  Name = 10631973
REMARK  7 active torsions:
REMARK  status: ('A' for Active; 'I' for Inactive)
REMARK    1  A    between atoms: CA_1  and  N_3
REMARK    2  A    between atoms: CA_1  and  C_10
REMARK    3  A    between atoms: CA_1  and  CB_13
REMARK    4  A    between atoms: C_4  and  O_6
REMARK    5  A    between atoms: O_6  and  C_7
REMARK    6  A    between atoms: C_10  and  O_11
REMARK    7  A    between atoms: CB_13  and  CG_14
REMARK                            x       y       z     vdW  Elec       q    Type
REMARK                         _______ _______ _______ _____ _____    ______ ____
ROOT
ATOM      1  CA  UNL     1      34.526 -16.570 -22.781  0.00  0.00    +0.174 C 
ENDROOT
BRANCH   1   3
ATOM      2  O   UNL     1      33.976 -17.810 -25.349  0.00  0.00    -0.226 OA
ATOM      3  N   UNL     1      34.335 -15.920 -24.052  0.00  0.00    -0.262 N 
ATOM      4  C   ACE A   0      34.076 -16.593 -25.230  0.00  0.00    +0.402 C 
ATOM      5  H   UNL     1      34.392 -14.937 -24.083  0.00  0.00    +0.153 HD
BRANCH   4   6
ATOM      6  O   UNL     1      33.944 -15.700 -26.256  0.00  0.00    -0.435 OA
BRANCH   6   7
ATOM      7  C   UNL     1      33.020 -14.628 -26.036  0.00  0.00    +0.210 C 
ATOM      8  C   UNL     1      33.266 -13.546 -27.065  0.00  0.00    +0.051 C 
ENDBRANCH   6   7
ENDBRANCH   4   6
ENDBRANCH   1   3
BRANCH   1  10
ATOM      9  OXT UNL     1      34.920 -15.928 -20.482  0.00  0.00    -0.248 OA
ATOM     10  C   UNL     1      34.585 -15.598 -21.614  0.00  0.00    +0.332 C 
BRANCH  10  11
ATOM     11  O   UNL     1      34.184 -14.339 -21.911  0.00  0.00    -0.479 OA
ATOM     12  H   UNL     1      34.777 -13.743 -22.324  0.00  0.00    +0.295 HD
ENDBRANCH  10  11
ENDBRANCH   1  10
BRANCH   1  13
ATOM     13  CB  UNL     1      35.706 -17.554 -22.802  0.00  0.00    +0.031 C 
BRANCH  13  14
ATOM     14  CG  UNL     1      35.490 -18.948 -22.171  0.00  0.00    +0.002 C 
ATOM     15  CD1 UNL     1      36.412 -19.099 -20.955  0.00  0.00    +0.000 C 
ATOM     16  CD2 UNL     1      34.047 -19.218 -21.751  0.00  0.00    +0.000 C 
ENDBRANCH  13  14
ENDBRANCH   1  13
TORSDOF 7
ENDMDL
MODEL 9
REMARK VINA RESULT:      -6.1      6.399     10.406
REMARK  Name = 10631973
REMARK  7 active torsions:
REMARK  status: ('A' for Active; 'I' for Inactive)
REMARK    1  A    between atoms: CA_1  and  N_3
REMARK    2  A    between atoms: CA_1  and  C_10
REMARK    3  A    between atoms: CA_1  and  CB_13
REMARK    4  A    between atoms: C_4  and  O_6
REMARK    5  A    between atoms: O_6  and  C_7
REMARK    6  A    between atoms: C_10  and  O_11
REMARK    7  A    between atoms: CB_13  and  CG_14
REMARK                            x       y       z     vdW  Elec       q    Type
REMARK                         _______ _______ _______ _____ _____    ______ ____
ROOT
ATOM      1  CA  UNL     1      34.407 -18.485 -21.775  0.00  0.00    +0.174 C 
ENDROOT
BRANCH   1   3
ATOM      2  O   UNL     1      32.596 -20.313 -20.428  0.00  0.00    -0.226 OA
ATOM      3  N   UNL     1      34.745 -19.572 -20.892  0.00  0.00    -0.262 N 
ATOM      4  C   ACE A   0      33.813 -20.396 -20.292  0.00  0.00    +0.402 C 
ATOM      5  H   UNL     1      35.698 -19.738 -20.706  0.00  0.00    +0.153 HD
BRANCH   4   6
ATOM      6  O   UNL     1      34.446 -21.326 -19.518  0.00  0.00    -0.435 OA
BRANCH   6   7
ATOM      7  C   UNL     1      35.865 -21.420 -19.688  0.00  0.00    +0.210 C 
ATOM      8  C   UNL     1      36.514 -21.587 -18.331  0.00  0.00    +0.051 C 
ENDBRANCH   6   7
ENDBRANCH   4   6
ENDBRANCH   1   3
BRANCH   1  10
ATOM      9  OXT UNL     1      34.580 -19.032 -24.125  0.00  0.00    -0.248 OA
ATOM     10  C   UNL     1      35.108 -18.566 -23.121  0.00  0.00    +0.332 C 
BRANCH  10  11
ATOM     11  O   UNL     1      36.391 -18.131 -23.114  0.00  0.00    -0.479 OA
ATOM     12  H   UNL     1      36.576 -17.221 -22.989  0.00  0.00    +0.295 HD
ENDBRANCH  10  11
ENDBRANCH   1  10
BRANCH   1  13
ATOM     13  CB  UNL     1      34.566 -17.115 -21.098  0.00  0.00    +0.031 C 
BRANCH  13  14
ATOM     14  CG  UNL     1      33.723 -15.941 -21.644  0.00  0.00    +0.002 C 
ATOM     15  CD1 UNL     1      33.134 -15.152 -20.469  0.00  0.00    +0.000 C 
ATOM     16  CD2 UNL     1      34.502 -14.993 -22.553  0.00  0.00    +0.000 C 
ENDBRANCH  13  14
ENDBRANCH   1  13
TORSDOF 7
ENDMDL
