MODEL 1
REMARK VINA RESULT:     -11.7      0.000      0.000
REMARK  Name = 448062
REMARK  5 active torsions:
REMARK  status: ('A' for Active; 'I' for Inactive)
REMARK    1  A    between atoms: N_1  and  C_25
REMARK    2  A    between atoms: C_4  and  O_14
REMARK    3  A    between atoms: O_14  and  C_17
REMARK    4  A    between atoms: C_25  and  C_26
REMARK    5  A    between atoms: C_34  and  C_38
REMARK                            x       y       z     vdW  Elec       q    Type
REMARK                         _______ _______ _______ _____ _____    ______ ____
ROOT
ATOM      1  N   UNL     1      34.815 -23.171 -17.522  0.00  0.00    -0.323 N 
ATOM      2  C   UNL     1      35.181 -22.183 -18.406  0.00  0.00    +0.063 A 
ATOM      3  C   UNL     1      36.381 -21.642 -17.946  0.00  0.00    +0.017 A 
ATOM      4  C   UNL     1      35.153 -20.698 -20.282  0.00  0.00    +0.140 C 
ATOM      5  C   UNL     1      35.736 -23.286 -16.508  0.00  0.00    +0.060 A 
ATOM      6  C   UNL     1      36.733 -22.339 -16.746  0.00  0.00    +0.017 A 
ATOM      7  C   UNL     1      34.544 -21.733 -19.568  0.00  0.00    +0.054 C 
ATOM      8  C   UNL     1      36.976 -20.597 -18.683  0.00  0.00    +0.005 C 
ATOM      9  C   UNL     1      36.352 -20.137 -19.849  0.00  0.00    +0.037 C 
ATOM     10  C   UNL     1      35.761 -24.151 -15.409  0.00  0.00    +0.017 C 
ATOM     11  C   UNL     1      37.809 -22.250 -15.839  0.00  0.00    +0.001 C 
ATOM     12  C   UNL     1      36.838 -24.044 -14.525  0.00  0.00    +0.001 C 
ATOM     13  C   UNL     1      37.848 -23.108 -14.735  0.00  0.00    +0.000 C 
ENDROOT
BRANCH   4  14
ATOM     14  O   UNL     1      34.564 -20.232 -21.420  0.00  0.00    -0.479 OA
BRANCH  14  17
ATOM     15  N   UNL     1      34.536 -16.575 -23.386  0.00  0.00    -0.297 N 
ATOM     16  N   UNL     1      33.262 -14.608 -23.522  0.00  0.00    -0.289 NA
ATOM     17  C   UNL     1      35.058 -19.005 -21.945  0.00  0.00    +0.169 C 
ATOM     18  C   UNL     1      34.321 -17.831 -21.299  0.00  0.00    +0.065 C 
ATOM     19  C   UNL     1      34.851 -18.999 -23.460  0.00  0.00    +0.065 C 
ATOM     20  C   UNL     1      34.723 -16.505 -21.938  0.00  0.00    +0.096 C 
ATOM     21  C   UNL     1      35.245 -17.656 -24.069  0.00  0.00    +0.096 C 
ATOM     22  C   UNL     1      33.831 -15.639 -24.064  0.00  0.00    +0.100 C 
ATOM     23  C   UNL     1      33.708 -15.818 -25.556  0.00  0.00    +0.068 C 
ATOM     24  H   UNL     1      33.326 -14.464 -22.550  0.00  0.00    +0.188 HD
ENDBRANCH  14  17
ENDBRANCH   4  14
BRANCH   1  25
ATOM     25  C   UNL     1      33.620 -23.983 -17.645  0.00  0.00    +0.133 C 
BRANCH  25  26
ATOM     26  C   UNL     1      32.542 -23.518 -16.705  0.00  0.00    +0.000 C 
ATOM     27  C   UNL     1      31.263 -23.284 -17.194  0.00  0.00    -0.002 C 
ATOM     28  C   UNL     1      32.838 -23.329 -15.365  0.00  0.00    -0.002 C 
ATOM     29  C   UNL     1      30.244 -22.850 -16.330  0.00  0.00    -0.000 C 
ATOM     30  C   UNL     1      30.537 -22.654 -14.959  0.00  0.00    -0.000 C 
ATOM     31  C   UNL     1      31.839 -22.897 -14.493  0.00  0.00    -0.000 C 
ATOM     32  C   UNL     1      28.943 -22.605 -16.796  0.00  0.00    +0.003 C 
ATOM     33  C   UNL     1      29.518 -22.219 -14.095  0.00  0.00    +0.000 C 
ATOM     34  C   UNL     1      27.943 -22.173 -15.924  0.00  0.00    +0.031 C 
ATOM     35  C   UNL     1      28.231 -21.981 -14.576  0.00  0.00    +0.003 C 
BRANCH  34  38
ATOM     36  N   UNL     1      26.368 -21.614 -17.760  0.00  0.00    -0.343 N 
ATOM     37  N   UNL     1      25.569 -21.991 -15.597  0.00  0.00    -0.285 NA
ATOM     38  C   UNL     1      26.600 -21.926 -16.422  0.00  0.00    +0.117 C 
ATOM     39  H   UNL     1      25.450 -21.450 -18.077  0.00  0.00    +0.144 HD
ATOM     40  H   UNL     1      27.123 -21.558 -18.390  0.00  0.00    +0.144 HD
ATOM     41  H   UNL     1      24.658 -21.825 -15.932  0.00  0.00    +0.188 HD
ENDBRANCH  34  38
ENDBRANCH  25  26
ENDBRANCH   1  25
TORSDOF 5
ENDMDL
MODEL 2
REMARK VINA RESULT:     -11.0      4.803     12.557
REMARK  Name = 448062
REMARK  5 active torsions:
REMARK  status: ('A' for Active; 'I' for Inactive)
REMARK    1  A    between atoms: N_1  and  C_25
REMARK    2  A    between atoms: C_4  and  O_14
REMARK    3  A    between atoms: O_14  and  C_17
REMARK    4  A    between atoms: C_25  and  C_26
REMARK    5  A    between atoms: C_34  and  C_38
REMARK                            x       y       z     vdW  Elec       q    Type
REMARK                         _______ _______ _______ _____ _____    ______ ____
ROOT
ATOM      1  N   UNL     1      33.187 -14.032 -23.657  0.00  0.00    -0.323 N 
ATOM      2  C   UNL     1      33.752 -15.267 -23.441  0.00  0.00    +0.063 A 
ATOM      3  C   UNL     1      33.975 -15.843 -24.691  0.00  0.00    +0.017 A 
ATOM      4  C   UNL     1      34.652 -17.183 -22.324  0.00  0.00    +0.140 C 
ATOM      5  C   UNL     1      33.038 -13.790 -25.002  0.00  0.00    +0.060 A 
ATOM      6  C   UNL     1      33.523 -14.910 -25.679  0.00  0.00    +0.017 A 
ATOM      7  C   UNL     1      34.079 -15.911 -22.242  0.00  0.00    +0.054 C 
ATOM      8  C   UNL     1      34.553 -17.128 -24.749  0.00  0.00    +0.005 C 
ATOM      9  C   UNL     1      34.887 -17.784 -23.558  0.00  0.00    +0.037 C 
ATOM     10  C   UNL     1      32.514 -12.674 -25.663  0.00  0.00    +0.017 C 
ATOM     11  C   UNL     1      33.483 -14.915 -27.089  0.00  0.00    +0.001 C 
ATOM     12  C   UNL     1      32.486 -12.704 -27.060  0.00  0.00    +0.001 C 
ATOM     13  C   UNL     1      32.962 -13.806 -27.764  0.00  0.00    +0.000 C 
ENDROOT
BRANCH   4  14
ATOM     14  O   UNL     1      34.985 -17.843 -21.179  0.00  0.00    -0.479 OA
BRANCH  14  17
ATOM     15  N   UNL     1      33.937 -21.516 -19.552  0.00  0.00    -0.297 N 
ATOM     16  N   UNL     1      32.367 -22.458 -18.084  0.00  0.00    -0.289 NA
ATOM     17  C   UNL     1      34.687 -19.233 -21.126  0.00  0.00    +0.169 C 
ATOM     18  C   UNL     1      33.251 -19.437 -20.642  0.00  0.00    +0.065 C 
ATOM     19  C   UNL     1      35.675 -19.913 -20.178  0.00  0.00    +0.065 C 
ATOM     20  C   UNL     1      32.940 -20.917 -20.437  0.00  0.00    +0.096 C 
ATOM     21  C   UNL     1      35.330 -21.386 -19.979  0.00  0.00    +0.096 C 
ATOM     22  C   UNL     1      33.587 -22.231 -18.458  0.00  0.00    +0.100 C 
ATOM     23  C   UNL     1      34.705 -22.801 -17.621  0.00  0.00    +0.068 C 
ATOM     24  H   UNL     1      31.616 -22.100 -18.610  0.00  0.00    +0.188 HD
ENDBRANCH  14  17
ENDBRANCH   4  14
BRANCH   1  25
ATOM     25  C   UNL     1      32.804 -13.108 -22.607  0.00  0.00    +0.133 C 
BRANCH  25  26
ATOM     26  C   UNL     1      33.155 -11.690 -22.969  0.00  0.00    +0.000 C 
ATOM     27  C   UNL     1      32.338 -10.653 -22.538  0.00  0.00    -0.002 C 
ATOM     28  C   UNL     1      34.287 -11.439 -23.726  0.00  0.00    -0.002 C 
ATOM     29  C   UNL     1      32.652  -9.324 -22.866  0.00  0.00    -0.000 C 
ATOM     30  C   UNL     1      33.806  -9.056 -23.640  0.00  0.00    -0.000 C 
ATOM     31  C   UNL     1      34.613 -10.125 -24.063  0.00  0.00    -0.000 C 
ATOM     32  C   UNL     1      31.845  -8.255 -22.445  0.00  0.00    +0.003 C 
ATOM     33  C   UNL     1      34.119  -7.727 -23.969  0.00  0.00    +0.000 C 
ATOM     34  C   UNL     1      32.171  -6.941 -22.781  0.00  0.00    +0.031 C 
ATOM     35  C   UNL     1      33.306  -6.678 -23.542  0.00  0.00    +0.003 C 
BRANCH  34  38
ATOM     36  N   UNL     1      30.543  -5.121 -23.233  0.00  0.00    -0.343 N 
ATOM     37  N   UNL     1      31.293  -5.517 -21.056  0.00  0.00    -0.285 NA
ATOM     38  C   UNL     1      31.325  -5.845 -22.336  0.00  0.00    +0.117 C 
ATOM     39  H   UNL     1      29.978  -4.382 -22.910  0.00  0.00    +0.144 HD
ATOM     40  H   UNL     1      30.555  -5.348 -24.191  0.00  0.00    +0.144 HD
ATOM     41  H   UNL     1      30.721  -4.775 -20.751  0.00  0.00    +0.188 HD
ENDBRANCH  34  38
ENDBRANCH  25  26
ENDBRANCH   1  25
TORSDOF 5
ENDMDL
MODEL 3
REMARK VINA RESULT:     -11.0      4.208     11.992
REMARK  Name = 448062
REMARK  5 active torsions:
REMARK  status: ('A' for Active; 'I' for Inactive)
REMARK    1  A    between atoms: N_1  and  C_25
REMARK    2  A    between atoms: C_4  and  O_14
REMARK    3  A    between atoms: O_14  and  C_17
REMARK    4  A    between atoms: C_25  and  C_26
REMARK    5  A    between atoms: C_34  and  C_38
REMARK                            x       y       z     vdW  Elec       q    Type
REMARK                         _______ _______ _______ _____ _____    ______ ____
ROOT
ATOM      1  N   UNL     1      34.141 -14.671 -23.117  0.00  0.00    -0.323 N 
ATOM      2  C   UNL     1      34.452 -16.007 -23.025  0.00  0.00    +0.063 A 
ATOM      3  C   UNL     1      34.234 -16.569 -24.282  0.00  0.00    +0.017 A 
ATOM      4  C   UNL     1      35.146 -18.115 -22.129  0.00  0.00    +0.140 C 
ATOM      5  C   UNL     1      33.730 -14.350 -24.389  0.00  0.00    +0.060 A 
ATOM      6  C   UNL     1      33.777 -15.522 -25.145  0.00  0.00    +0.017 A 
ATOM      7  C   UNL     1      34.907 -16.752 -21.931  0.00  0.00    +0.054 C 
ATOM      8  C   UNL     1      34.481 -17.947 -24.457  0.00  0.00    +0.005 C 
ATOM      9  C   UNL     1      34.938 -18.705 -23.373  0.00  0.00    +0.037 C 
ATOM     10  C   UNL     1      33.323 -13.122 -24.922  0.00  0.00    +0.017 C 
ATOM     11  C   UNL     1      33.399 -15.464 -26.503  0.00  0.00    +0.001 C 
ATOM     12  C   UNL     1      32.954 -13.091 -26.269  0.00  0.00    +0.001 C 
ATOM     13  C   UNL     1      32.990 -14.244 -27.050  0.00  0.00    +0.000 C 
ENDROOT
BRANCH   4  14
ATOM     14  O   UNL     1      35.590 -18.875 -21.088  0.00  0.00    -0.479 OA
BRANCH  14  17
ATOM     15  N   UNL     1      33.665 -22.017 -19.173  0.00  0.00    -0.297 N 
ATOM     16  N   UNL     1      31.861 -22.414 -17.726  0.00  0.00    -0.289 NA
ATOM     17  C   UNL     1      34.981 -20.150 -20.916  0.00  0.00    +0.169 C 
ATOM     18  C   UNL     1      33.517 -19.974 -20.510  0.00  0.00    +0.065 C 
ATOM     19  C   UNL     1      35.747 -20.920 -19.840  0.00  0.00    +0.065 C 
ATOM     20  C   UNL     1      32.869 -21.315 -20.178  0.00  0.00    +0.096 C 
ATOM     21  C   UNL     1      35.067 -22.248 -19.517  0.00  0.00    +0.096 C 
ATOM     22  C   UNL     1      33.116 -22.507 -18.038  0.00  0.00    +0.100 C 
ATOM     23  C   UNL     1      34.038 -23.212 -17.076  0.00  0.00    +0.068 C 
ATOM     24  H   UNL     1      31.234 -21.960 -18.334  0.00  0.00    +0.188 HD
ENDBRANCH  14  17
ENDBRANCH   4  14
BRANCH   1  25
ATOM     25  C   UNL     1      34.237 -13.726 -22.021  0.00  0.00    +0.133 C 
BRANCH  25  26
ATOM     26  C   UNL     1      33.313 -12.556 -22.223  0.00  0.00    +0.000 C 
ATOM     27  C   UNL     1      33.803 -11.390 -22.797  0.00  0.00    -0.002 C 
ATOM     28  C   UNL     1      31.988 -12.656 -21.834  0.00  0.00    -0.002 C 
ATOM     29  C   UNL     1      32.954 -10.288 -22.993  0.00  0.00    -0.000 C 
ATOM     30  C   UNL     1      31.598 -10.380 -22.599  0.00  0.00    -0.000 C 
ATOM     31  C   UNL     1      31.130 -11.572 -22.020  0.00  0.00    -0.000 C 
ATOM     32  C   UNL     1      33.421  -9.097 -23.571  0.00  0.00    +0.003 C 
ATOM     33  C   UNL     1      30.749  -9.278 -22.794  0.00  0.00    +0.000 C 
ATOM     34  C   UNL     1      32.565  -8.011 -23.757  0.00  0.00    +0.031 C 
ATOM     35  C   UNL     1      31.231  -8.103 -23.370  0.00  0.00    +0.003 C 
BRANCH  34  38
ATOM     36  N   UNL     1      34.390  -6.665 -24.767  0.00  0.00    -0.343 N 
ATOM     37  N   UNL     1      32.252  -5.755 -24.521  0.00  0.00    -0.285 NA
ATOM     38  C   UNL     1      33.064  -6.785 -24.358  0.00  0.00    +0.117 C 
ATOM     39  H   UNL     1      34.707  -5.825 -25.172  0.00  0.00    +0.144 HD
ATOM     40  H   UNL     1      35.011  -7.420 -24.651  0.00  0.00    +0.144 HD
ATOM     41  H   UNL     1      32.588  -4.923 -24.929  0.00  0.00    +0.188 HD
ENDBRANCH  34  38
ENDBRANCH  25  26
ENDBRANCH   1  25
TORSDOF 5
ENDMDL
MODEL 4
REMARK VINA RESULT:     -10.7      8.018     15.651
REMARK  Name = 448062
REMARK  5 active torsions:
REMARK  status: ('A' for Active; 'I' for Inactive)
REMARK    1  A    between atoms: N_1  and  C_25
REMARK    2  A    between atoms: C_4  and  O_14
REMARK    3  A    between atoms: O_14  and  C_17
REMARK    4  A    between atoms: C_25  and  C_26
REMARK    5  A    between atoms: C_34  and  C_38
REMARK                            x       y       z     vdW  Elec       q    Type
REMARK                         _______ _______ _______ _____ _____    ______ ____
ROOT
ATOM      1  N   UNL     1      33.451  -9.253 -22.868  0.00  0.00    -0.323 N 
ATOM      2  C   UNL     1      32.967 -10.540 -22.895  0.00  0.00    +0.063 A 
ATOM      3  C   UNL     1      32.179 -10.709 -21.757  0.00  0.00    +0.017 A 
ATOM      4  C   UNL     1      32.543 -12.786 -23.605  0.00  0.00    +0.140 C 
ATOM      5  C   UNL     1      33.002  -8.586 -21.752  0.00  0.00    +0.060 A 
ATOM      6  C   UNL     1      32.201  -9.474 -21.034  0.00  0.00    +0.017 A 
ATOM      7  C   UNL     1      33.168 -11.558 -23.836  0.00  0.00    +0.054 C 
ATOM      8  C   UNL     1      31.559 -11.959 -21.546  0.00  0.00    +0.005 C 
ATOM      9  C   UNL     1      31.749 -12.986 -22.478  0.00  0.00    +0.037 C 
ATOM     10  C   UNL     1      33.245  -7.274 -21.330  0.00  0.00    +0.017 C 
ATOM     11  C   UNL     1      31.611  -9.030 -19.832  0.00  0.00    +0.001 C 
ATOM     12  C   UNL     1      32.649  -6.858 -20.136  0.00  0.00    +0.001 C 
ATOM     13  C   UNL     1      31.843  -7.721 -19.397  0.00  0.00    +0.000 C 
ENDROOT
BRANCH   4  14
ATOM     14  O   UNL     1      32.713 -13.803 -24.497  0.00  0.00    -0.479 OA
BRANCH  14  17
ATOM     15  N   UNL     1      34.846 -17.268 -23.671  0.00  0.00    -0.297 N 
ATOM     16  N   UNL     1      34.870 -19.548 -24.227  0.00  0.00    -0.289 NA
ATOM     17  C   UNL     1      33.837 -14.653 -24.299  0.00  0.00    +0.169 C 
ATOM     18  C   UNL     1      33.814 -15.789 -25.323  0.00  0.00    +0.065 C 
ATOM     19  C   UNL     1      33.788 -15.211 -22.877  0.00  0.00    +0.065 C 
ATOM     20  C   UNL     1      34.924 -16.799 -25.053  0.00  0.00    +0.096 C 
ATOM     21  C   UNL     1      34.899 -16.230 -22.642  0.00  0.00    +0.096 C 
ATOM     22  C   UNL     1      34.823 -18.585 -23.360  0.00  0.00    +0.100 C 
ATOM     23  C   UNL     1      34.740 -18.946 -21.899  0.00  0.00    +0.068 C 
ATOM     24  H   UNL     1      34.925 -19.343 -25.189  0.00  0.00    +0.188 HD
ENDBRANCH  14  17
ENDBRANCH   4  14
BRANCH   1  25
ATOM     25  C   UNL     1      34.314  -8.677 -23.879  0.00  0.00    +0.133 C 
BRANCH  25  26
ATOM     26  C   UNL     1      33.702  -7.444 -24.486  0.00  0.00    +0.000 C 
ATOM     27  C   UNL     1      34.451  -6.670 -25.363  0.00  0.00    -0.002 C 
ATOM     28  C   UNL     1      32.402  -7.096 -24.161  0.00  0.00    -0.002 C 
ATOM     29  C   UNL     1      33.895  -5.516 -25.938  0.00  0.00    -0.000 C 
ATOM     30  C   UNL     1      32.566  -5.152 -25.613  0.00  0.00    -0.000 C 
ATOM     31  C   UNL     1      31.833  -5.953 -24.722  0.00  0.00    -0.000 C 
ATOM     32  C   UNL     1      34.628  -4.714 -26.828  0.00  0.00    +0.003 C 
ATOM     33  C   UNL     1      32.010  -3.996 -26.188  0.00  0.00    +0.000 C 
ATOM     34  C   UNL     1      34.059  -3.570 -27.389  0.00  0.00    +0.031 C 
ATOM     35  C   UNL     1      32.753  -3.213 -27.069  0.00  0.00    +0.003 C 
BRANCH  34  38
ATOM     36  N   UNL     1      34.522  -2.698 -29.668  0.00  0.00    -0.343 N 
ATOM     37  N   UNL     1      35.852  -2.041 -27.862  0.00  0.00    -0.285 NA
ATOM     38  C   UNL     1      34.831  -2.751 -28.310  0.00  0.00    +0.117 C 
ATOM     39  H   UNL     1      35.058  -2.137 -30.274  0.00  0.00    +0.144 HD
ATOM     40  H   UNL     1      33.767  -3.222 -30.021  0.00  0.00    +0.144 HD
ATOM     41  H   UNL     1      36.376  -1.485 -28.484  0.00  0.00    +0.188 HD
ENDBRANCH  34  38
ENDBRANCH  25  26
ENDBRANCH   1  25
TORSDOF 5
ENDMDL
MODEL 5
REMARK VINA RESULT:     -10.4      5.604     12.726
REMARK  Name = 448062
REMARK  5 active torsions:
REMARK  status: ('A' for Active; 'I' for Inactive)
REMARK    1  A    between atoms: N_1  and  C_25
REMARK    2  A    between atoms: C_4  and  O_14
REMARK    3  A    between atoms: O_14  and  C_17
REMARK    4  A    between atoms: C_25  and  C_26
REMARK    5  A    between atoms: C_34  and  C_38
REMARK                            x       y       z     vdW  Elec       q    Type
REMARK                         _______ _______ _______ _____ _____    ______ ____
ROOT
ATOM      1  N   UNL     1      33.063 -12.877 -22.780  0.00  0.00    -0.323 N 
ATOM      2  C   UNL     1      33.676 -13.999 -22.274  0.00  0.00    +0.063 A 
ATOM      3  C   UNL     1      33.334 -14.083 -20.925  0.00  0.00    +0.017 A 
ATOM      4  C   UNL     1      34.988 -15.996 -22.134  0.00  0.00    +0.140 C 
ATOM      5  C   UNL     1      32.339 -12.233 -21.805  0.00  0.00    +0.060 A 
ATOM      6  C   UNL     1      32.489 -12.966 -20.627  0.00  0.00    +0.017 A 
ATOM      7  C   UNL     1      34.500 -14.939 -22.906  0.00  0.00    +0.054 C 
ATOM      8  C   UNL     1      33.841 -15.158 -20.166  0.00  0.00    +0.005 C 
ATOM      9  C   UNL     1      34.665 -16.106 -20.784  0.00  0.00    +0.037 C 
ATOM     10  C   UNL     1      31.569 -11.067 -21.878  0.00  0.00    +0.017 C 
ATOM     11  C   UNL     1      31.837 -12.511 -19.463  0.00  0.00    +0.001 C 
ATOM     12  C   UNL     1      30.933 -10.637 -20.710  0.00  0.00    +0.001 C 
ATOM     13  C   UNL     1      31.063 -11.347 -19.519  0.00  0.00    +0.000 C 
ENDROOT
BRANCH   4  14
ATOM     14  O   UNL     1      35.793 -16.931 -22.712  0.00  0.00    -0.479 OA
BRANCH  14  17
ATOM     15  N   UNL     1      34.518 -20.402 -20.823  0.00  0.00    -0.297 N 
ATOM     16  N   UNL     1      32.884 -21.135 -19.307  0.00  0.00    -0.289 NA
ATOM     17  C   UNL     1      35.413 -18.294 -22.557  0.00  0.00    +0.169 C 
ATOM     18  C   UNL     1      33.964 -18.376 -22.076  0.00  0.00    +0.065 C 
ATOM     19  C   UNL     1      36.352 -18.955 -21.548  0.00  0.00    +0.065 C 
ATOM     20  C   UNL     1      33.565 -19.814 -21.763  0.00  0.00    +0.096 C 
ATOM     21  C   UNL     1      35.919 -20.386 -21.243  0.00  0.00    +0.096 C 
ATOM     22  C   UNL     1      34.119 -21.009 -19.682  0.00  0.00    +0.100 C 
ATOM     23  C   UNL     1      35.194 -21.577 -18.792  0.00  0.00    +0.068 C 
ATOM     24  H   UNL     1      32.159 -20.775 -19.868  0.00  0.00    +0.188 HD
ENDBRANCH  14  17
ENDBRANCH   4  14
BRANCH   1  25
ATOM     25  C   UNL     1      33.166 -12.434 -24.157  0.00  0.00    +0.133 C 
BRANCH  25  26
ATOM     26  C   UNL     1      33.498 -10.969 -24.239  0.00  0.00    +0.000 C 
ATOM     27  C   UNL     1      32.499 -10.029 -24.021  0.00  0.00    -0.002 C 
ATOM     28  C   UNL     1      34.793 -10.577 -24.531  0.00  0.00    -0.002 C 
ATOM     29  C   UNL     1      32.792  -8.657 -24.093  0.00  0.00    -0.000 C 
ATOM     30  C   UNL     1      34.113  -8.247 -24.392  0.00  0.00    -0.000 C 
ATOM     31  C   UNL     1      35.103  -9.220 -24.608  0.00  0.00    -0.000 C 
ATOM     32  C   UNL     1      31.803  -7.684 -23.877  0.00  0.00    +0.003 C 
ATOM     33  C   UNL     1      34.406  -6.874 -24.465  0.00  0.00    +0.000 C 
ATOM     34  C   UNL     1      32.111  -6.326 -23.954  0.00  0.00    +0.031 C 
ATOM     35  C   UNL     1      33.411  -5.922 -24.247  0.00  0.00    +0.003 C 
BRANCH  34  38
ATOM     36  N   UNL     1      30.443  -5.212 -22.491  0.00  0.00    -0.343 N 
ATOM     37  N   UNL     1      30.718  -4.518 -24.705  0.00  0.00    -0.285 NA
ATOM     38  C   UNL     1      31.076  -5.330 -23.726  0.00  0.00    +0.117 C 
ATOM     39  H   UNL     1      29.744  -4.531 -22.358  0.00  0.00    +0.144 HD
ATOM     40  H   UNL     1      30.693  -5.810 -21.750  0.00  0.00    +0.144 HD
ATOM     41  H   UNL     1      30.017  -3.843 -24.553  0.00  0.00    +0.188 HD
ENDBRANCH  34  38
ENDBRANCH  25  26
ENDBRANCH   1  25
TORSDOF 5
ENDMDL
MODEL 6
REMARK VINA RESULT:     -10.4      2.710      9.185
REMARK  Name = 448062
REMARK  5 active torsions:
REMARK  status: ('A' for Active; 'I' for Inactive)
REMARK    1  A    between atoms: N_1  and  C_25
REMARK    2  A    between atoms: C_4  and  O_14
REMARK    3  A    between atoms: O_14  and  C_17
REMARK    4  A    between atoms: C_25  and  C_26
REMARK    5  A    between atoms: C_34  and  C_38
REMARK                            x       y       z     vdW  Elec       q    Type
REMARK                         _______ _______ _______ _____ _____    ______ ____
ROOT
ATOM      1  N   UNL     1      31.895 -23.638 -16.328  0.00  0.00    -0.323 N 
ATOM      2  C   UNL     1      32.498 -23.658 -15.093  0.00  0.00    +0.063 A 
ATOM      3  C   UNL     1      31.583 -23.139 -14.178  0.00  0.00    +0.017 A 
ATOM      4  C   UNL     1      34.127 -23.995 -13.373  0.00  0.00    +0.140 C 
ATOM      5  C   UNL     1      30.622 -23.125 -16.243  0.00  0.00    +0.060 A 
ATOM      6  C   UNL     1      30.396 -22.802 -14.904  0.00  0.00    +0.017 A 
ATOM      7  C   UNL     1      33.776 -24.093 -14.722  0.00  0.00    +0.054 C 
ATOM      8  C   UNL     1      31.961 -23.049 -12.822  0.00  0.00    +0.005 C 
ATOM      9  C   UNL     1      33.235 -23.482 -12.435  0.00  0.00    +0.037 C 
ATOM     10  C   UNL     1      29.663 -22.925 -17.242  0.00  0.00    +0.017 C 
ATOM     11  C   UNL     1      29.148 -22.251 -14.545  0.00  0.00    +0.001 C 
ATOM     12  C   UNL     1      28.435 -22.378 -16.860  0.00  0.00    +0.001 C 
ATOM     13  C   UNL     1      28.179 -22.045 -15.532  0.00  0.00    +0.000 C 
ENDROOT
BRANCH   4  14
ATOM     14  O   UNL     1      35.363 -24.408 -12.971  0.00  0.00    -0.479 OA
BRANCH  14  17
ATOM     15  N   UNL     1      38.956 -25.460 -14.767  0.00  0.00    -0.297 N 
ATOM     16  N   UNL     1      40.869 -26.755 -14.354  0.00  0.00    -0.289 NA
ATOM     17  C   UNL     1      36.262 -24.837 -13.987  0.00  0.00    +0.169 C 
ATOM     18  C   UNL     1      36.938 -26.141 -13.564  0.00  0.00    +0.065 C 
ATOM     19  C   UNL     1      37.304 -23.742 -14.217  0.00  0.00    +0.065 C 
ATOM     20  C   UNL     1      38.012 -26.558 -14.564  0.00  0.00    +0.096 C 
ATOM     21  C   UNL     1      38.373 -24.193 -15.208  0.00  0.00    +0.096 C 
ATOM     22  C   UNL     1      40.293 -25.632 -14.650  0.00  0.00    +0.100 C 
ATOM     23  C   UNL     1      41.165 -24.424 -14.883  0.00  0.00    +0.068 C 
ATOM     24  H   UNL     1      40.326 -27.561 -14.197  0.00  0.00    +0.188 HD
ENDBRANCH  14  17
ENDBRANCH   4  14
BRANCH   1  25
ATOM     25  C   UNL     1      32.515 -24.099 -17.555  0.00  0.00    +0.133 C 
BRANCH  25  26
ATOM     26  C   UNL     1      33.566 -23.134 -18.034  0.00  0.00    +0.000 C 
ATOM     27  C   UNL     1      33.283 -22.289 -19.098  0.00  0.00    -0.002 C 
ATOM     28  C   UNL     1      34.801 -23.103 -17.407  0.00  0.00    -0.002 C 
ATOM     29  C   UNL     1      34.252 -21.382 -19.557  0.00  0.00    -0.000 C 
ATOM     30  C   UNL     1      35.518 -21.343 -18.925  0.00  0.00    -0.000 C 
ATOM     31  C   UNL     1      35.776 -22.210 -17.851  0.00  0.00    -0.000 C 
ATOM     32  C   UNL     1      33.995 -20.515 -20.631  0.00  0.00    +0.003 C 
ATOM     33  C   UNL     1      36.488 -20.436 -19.385  0.00  0.00    +0.000 C 
ATOM     34  C   UNL     1      34.970 -19.622 -21.075  0.00  0.00    +0.031 C 
ATOM     35  C   UNL     1      36.214 -19.583 -20.453  0.00  0.00    +0.003 C 
BRANCH  34  38
ATOM     36  N   UNL     1      34.614 -19.202 -23.497  0.00  0.00    -0.343 N 
ATOM     37  N   UNL     1      34.497 -17.441 -21.966  0.00  0.00    -0.285 NA
ATOM     38  C   UNL     1      34.687 -18.729 -22.188  0.00  0.00    +0.117 C 
ATOM     39  H   UNL     1      34.421 -18.580 -24.235  0.00  0.00    +0.144 HD
ATOM     40  H   UNL     1      34.756 -20.158 -23.683  0.00  0.00    +0.144 HD
ATOM     41  H   UNL     1      34.304 -16.834 -22.717  0.00  0.00    +0.188 HD
ENDBRANCH  34  38
ENDBRANCH  25  26
ENDBRANCH   1  25
TORSDOF 5
ENDMDL
MODEL 7
REMARK VINA RESULT:     -10.1      4.859      9.497
REMARK  Name = 448062
REMARK  5 active torsions:
REMARK  status: ('A' for Active; 'I' for Inactive)
REMARK    1  A    between atoms: N_1  and  C_25
REMARK    2  A    between atoms: C_4  and  O_14
REMARK    3  A    between atoms: O_14  and  C_17
REMARK    4  A    between atoms: C_25  and  C_26
REMARK    5  A    between atoms: C_34  and  C_38
REMARK                            x       y       z     vdW  Elec       q    Type
REMARK                         _______ _______ _______ _____ _____    ______ ____
ROOT
ATOM      1  N   UNL     1      33.221 -15.673 -22.445  0.00  0.00    -0.323 N 
ATOM      2  C   UNL     1      33.021 -14.336 -22.695  0.00  0.00    +0.063 A 
ATOM      3  C   UNL     1      33.476 -14.085 -23.990  0.00  0.00    +0.017 A 
ATOM      4  C   UNL     1      32.392 -12.046 -22.402  0.00  0.00    +0.140 C 
ATOM      5  C   UNL     1      33.789 -16.295 -23.532  0.00  0.00    +0.060 A 
ATOM      6  C   UNL     1      33.962 -15.323 -24.519  0.00  0.00    +0.017 A 
ATOM      7  C   UNL     1      32.475 -13.339 -21.878  0.00  0.00    +0.054 C 
ATOM      8  C   UNL     1      33.383 -12.772 -24.495  0.00  0.00    +0.005 C 
ATOM      9  C   UNL     1      32.838 -11.764 -23.690  0.00  0.00    +0.037 C 
ATOM     10  C   UNL     1      34.159 -17.632 -23.713  0.00  0.00    +0.017 C 
ATOM     11  C   UNL     1      34.535 -15.707 -25.750  0.00  0.00    +0.001 C 
ATOM     12  C   UNL     1      34.724 -17.987 -24.941  0.00  0.00    +0.001 C 
ATOM     13  C   UNL     1      34.909 -17.040 -25.946  0.00  0.00    +0.000 C 
ENDROOT
BRANCH   4  14
ATOM     14  O   UNL     1      31.866 -11.046 -21.638  0.00  0.00    -0.479 OA
BRANCH  14  17
ATOM     15  N   UNL     1      31.947  -6.937 -22.223  0.00  0.00    -0.297 N 
ATOM     16  N   UNL     1      30.930  -4.979 -21.421  0.00  0.00    -0.289 NA
ATOM     17  C   UNL     1      32.408  -9.743 -21.819  0.00  0.00    +0.169 C 
ATOM     18  C   UNL     1      31.957  -8.831 -20.677  0.00  0.00    +0.065 C 
ATOM     19  C   UNL     1      31.931  -9.194 -23.163  0.00  0.00    +0.065 C 
ATOM     20  C   UNL     1      32.401  -7.391 -20.910  0.00  0.00    +0.096 C 
ATOM     21  C   UNL     1      32.376  -7.748 -23.362  0.00  0.00    +0.096 C 
ATOM     22  C   UNL     1      31.255  -5.785 -22.384  0.00  0.00    +0.100 C 
ATOM     23  C   UNL     1      30.840  -5.421 -23.787  0.00  0.00    +0.068 C 
ATOM     24  H   UNL     1      31.188  -5.189 -20.495  0.00  0.00    +0.188 HD
ENDBRANCH  14  17
ENDBRANCH   4  14
BRANCH   1  25
ATOM     25  C   UNL     1      32.876 -16.339 -21.204  0.00  0.00    +0.133 C 
BRANCH  25  26
ATOM     26  C   UNL     1      33.790 -17.502 -20.933  0.00  0.00    +0.000 C 
ATOM     27  C   UNL     1      33.249 -18.722 -20.550  0.00  0.00    -0.002 C 
ATOM     28  C   UNL     1      35.159 -17.342 -21.069  0.00  0.00    -0.002 C 
ATOM     29  C   UNL     1      34.088 -19.819 -20.293  0.00  0.00    -0.000 C 
ATOM     30  C   UNL     1      35.488 -19.665 -20.429  0.00  0.00    -0.000 C 
ATOM     31  C   UNL     1      36.008 -18.419 -20.817  0.00  0.00    -0.000 C 
ATOM     32  C   UNL     1      33.569 -21.064 -19.904  0.00  0.00    +0.003 C 
ATOM     33  C   UNL     1      36.328 -20.762 -20.172  0.00  0.00    +0.000 C 
ATOM     34  C   UNL     1      34.417 -22.142 -19.652  0.00  0.00    +0.031 C 
ATOM     35  C   UNL     1      35.794 -21.991 -19.786  0.00  0.00    +0.003 C 
BRANCH  34  38
ATOM     36  N   UNL     1      33.183 -23.577 -18.046  0.00  0.00    -0.343 N 
ATOM     37  N   UNL     1      34.007 -24.478 -20.038  0.00  0.00    -0.285 NA
ATOM     38  C   UNL     1      33.864 -23.426 -19.252  0.00  0.00    +0.117 C 
ATOM     39  H   UNL     1      32.816 -24.456 -17.794  0.00  0.00    +0.144 HD
ATOM     40  H   UNL     1      33.069 -22.806 -17.444  0.00  0.00    +0.144 HD
ATOM     41  H   UNL     1      33.632 -25.348 -19.769  0.00  0.00    +0.188 HD
ENDBRANCH  34  38
ENDBRANCH  25  26
ENDBRANCH   1  25
TORSDOF 5
ENDMDL
MODEL 8
REMARK VINA RESULT:     -10.1      5.944     12.756
REMARK  Name = 448062
REMARK  5 active torsions:
REMARK  status: ('A' for Active; 'I' for Inactive)
REMARK    1  A    between atoms: N_1  and  C_25
REMARK    2  A    between atoms: C_4  and  O_14
REMARK    3  A    between atoms: O_14  and  C_17
REMARK    4  A    between atoms: C_25  and  C_26
REMARK    5  A    between atoms: C_34  and  C_38
REMARK                            x       y       z     vdW  Elec       q    Type
REMARK                         _______ _______ _______ _____ _____    ______ ____
ROOT
ATOM      1  N   UNL     1      32.339 -12.561 -22.441  0.00  0.00    -0.323 N 
ATOM      2  C   UNL     1      32.859 -13.831 -22.358  0.00  0.00    +0.063 A 
ATOM      3  C   UNL     1      33.828 -13.947 -23.354  0.00  0.00    +0.017 A 
ATOM      4  C   UNL     1      33.247 -16.076 -21.627  0.00  0.00    +0.140 C 
ATOM      5  C   UNL     1      32.937 -11.853 -23.457  0.00  0.00    +0.060 A 
ATOM      6  C   UNL     1      33.877 -12.697 -24.050  0.00  0.00    +0.017 A 
ATOM      7  C   UNL     1      32.547 -14.876 -21.480  0.00  0.00    +0.054 C 
ATOM      8  C   UNL     1      34.520 -15.169 -23.483  0.00  0.00    +0.005 C 
ATOM      9  C   UNL     1      34.220 -16.223 -22.612  0.00  0.00    +0.037 C 
ATOM     10  C   UNL     1      32.717 -10.541 -23.891  0.00  0.00    +0.017 C 
ATOM     11  C   UNL     1      34.637 -12.204 -25.132  0.00  0.00    +0.001 C 
ATOM     12  C   UNL     1      33.483 -10.077 -24.964  0.00  0.00    +0.001 C 
ATOM     13  C   UNL     1      34.429 -10.895 -25.577  0.00  0.00    +0.000 C 
ENDROOT
BRANCH   4  14
ATOM     14  O   UNL     1      32.972 -17.118 -20.791  0.00  0.00    -0.479 OA
BRANCH  14  17
ATOM     15  N   UNL     1      34.811 -20.798 -20.229  0.00  0.00    -0.297 N 
ATOM     16  N   UNL     1      34.668 -22.696 -18.856  0.00  0.00    -0.289 NA
ATOM     17  C   UNL     1      33.546 -18.378 -21.121  0.00  0.00    +0.169 C 
ATOM     18  C   UNL     1      32.750 -19.500 -20.455  0.00  0.00    +0.065 C 
ATOM     19  C   UNL     1      34.999 -18.396 -20.646  0.00  0.00    +0.065 C 
ATOM     20  C   UNL     1      33.418 -20.855 -20.669  0.00  0.00    +0.096 C 
ATOM     21  C   UNL     1      35.635 -19.767 -20.857  0.00  0.00    +0.096 C 
ATOM     22  C   UNL     1      35.329 -21.705 -19.369  0.00  0.00    +0.100 C 
ATOM     23  C   UNL     1      36.778 -21.542 -18.988  0.00  0.00    +0.068 C 
ATOM     24  H   UNL     1      33.720 -22.828 -19.085  0.00  0.00    +0.188 HD
ENDBRANCH  14  17
ENDBRANCH   4  14
BRANCH   1  25
ATOM     25  C   UNL     1      31.302 -12.037 -21.574  0.00  0.00    +0.133 C 
BRANCH  25  26
ATOM     26  C   UNL     1      31.594 -10.621 -21.161  0.00  0.00    +0.000 C 
ATOM     27  C   UNL     1      31.313  -9.581 -22.038  0.00  0.00    -0.002 C 
ATOM     28  C   UNL     1      32.140 -10.372 -19.913  0.00  0.00    -0.002 C 
ATOM     29  C   UNL     1      31.579  -8.253 -21.668  0.00  0.00    -0.000 C 
ATOM     30  C   UNL     1      32.138  -7.988 -20.395  0.00  0.00    -0.000 C 
ATOM     31  C   UNL     1      32.412  -9.059 -19.529  0.00  0.00    -0.000 C 
ATOM     32  C   UNL     1      31.305  -7.182 -22.534  0.00  0.00    +0.003 C 
ATOM     33  C   UNL     1      32.405  -6.659 -20.025  0.00  0.00    +0.000 C 
ATOM     34  C   UNL     1      31.578  -5.869 -22.150  0.00  0.00    +0.031 C 
ATOM     35  C   UNL     1      32.126  -5.608 -20.898  0.00  0.00    +0.003 C 
BRANCH  34  38
ATOM     36  N   UNL     1      30.672  -3.603 -22.610  0.00  0.00    -0.343 N 
ATOM     37  N   UNL     1      31.604  -4.872 -24.337  0.00  0.00    -0.285 NA
ATOM     38  C   UNL     1      31.287  -4.770 -23.058  0.00  0.00    +0.117 C 
ATOM     39  H   UNL     1      30.484  -2.871 -23.242  0.00  0.00    +0.144 HD
ATOM     40  H   UNL     1      30.425  -3.509 -21.662  0.00  0.00    +0.144 HD
ATOM     41  H   UNL     1      31.409  -4.129 -24.953  0.00  0.00    +0.188 HD
ENDBRANCH  34  38
ENDBRANCH  25  26
ENDBRANCH   1  25
TORSDOF 5
ENDMDL
MODEL 9
REMARK VINA RESULT:     -10.0      7.614     12.518
REMARK  Name = 448062
REMARK  5 active torsions:
REMARK  status: ('A' for Active; 'I' for Inactive)
REMARK    1  A    between atoms: N_1  and  C_25
REMARK    2  A    between atoms: C_4  and  O_14
REMARK    3  A    between atoms: O_14  and  C_17
REMARK    4  A    between atoms: C_25  and  C_26
REMARK    5  A    between atoms: C_34  and  C_38
REMARK                            x       y       z     vdW  Elec       q    Type
REMARK                         _______ _______ _______ _____ _____    ______ ____
ROOT
ATOM      1  N   UNL     1      33.252 -15.206 -23.932  0.00  0.00    -0.323 N 
ATOM      2  C   UNL     1      32.947 -14.541 -22.768  0.00  0.00    +0.063 A 
ATOM      3  C   UNL     1      33.515 -15.263 -21.719  0.00  0.00    +0.017 A 
ATOM      4  C   UNL     1      32.064 -12.910 -21.256  0.00  0.00    +0.140 C 
ATOM      5  C   UNL     1      33.997 -16.333 -23.671  0.00  0.00    +0.060 A 
ATOM      6  C   UNL     1      34.178 -16.396 -22.289  0.00  0.00    +0.017 A 
ATOM      7  C   UNL     1      32.217 -13.363 -22.569  0.00  0.00    +0.054 C 
ATOM      8  C   UNL     1      33.345 -14.786 -20.402  0.00  0.00    +0.005 C 
ATOM      9  C   UNL     1      32.619 -13.609 -20.187  0.00  0.00    +0.037 C 
ATOM     10  C   UNL     1      34.517 -17.290 -24.548  0.00  0.00    +0.017 C 
ATOM     11  C   UNL     1      34.918 -17.472 -21.756  0.00  0.00    +0.001 C 
ATOM     12  C   UNL     1      35.247 -18.346 -23.994  0.00  0.00    +0.001 C 
ATOM     13  C   UNL     1      35.446 -18.437 -22.619  0.00  0.00    +0.000 C 
ENDROOT
BRANCH   4  14
ATOM     14  O   UNL     1      31.360 -11.767 -21.019  0.00  0.00    -0.479 OA
BRANCH  14  17
ATOM     15  N   UNL     1      31.762  -7.694 -21.717  0.00  0.00    -0.297 N 
ATOM     16  N   UNL     1      31.307  -5.633 -20.690  0.00  0.00    -0.289 NA
ATOM     17  C   UNL     1      31.974 -10.541 -21.400  0.00  0.00    +0.169 C 
ATOM     18  C   UNL     1      32.027  -9.594 -20.201  0.00  0.00    +0.065 C 
ATOM     19  C   UNL     1      31.166  -9.919 -22.539  0.00  0.00    +0.065 C 
ATOM     20  C   UNL     1      32.550  -8.219 -20.604  0.00  0.00    +0.096 C 
ATOM     21  C   UNL     1      31.702  -8.538 -22.909  0.00  0.00    +0.096 C 
ATOM     22  C   UNL     1      31.205  -6.461 -21.683  0.00  0.00    +0.100 C 
ATOM     23  C   UNL     1      30.414  -6.030 -22.892  0.00  0.00    +0.068 C 
ATOM     24  H   UNL     1      31.817  -5.886 -19.888  0.00  0.00    +0.188 HD
ENDBRANCH  14  17
ENDBRANCH   4  14
BRANCH   1  25
ATOM     25  C   UNL     1      32.846 -14.777 -25.256  0.00  0.00    +0.133 C 
BRANCH  25  26
ATOM     26  C   UNL     1      33.585 -13.538 -25.682  0.00  0.00    +0.000 C 
ATOM     27  C   UNL     1      33.550 -12.410 -24.873  0.00  0.00    -0.002 C 
ATOM     28  C   UNL     1      34.290 -13.538 -26.874  0.00  0.00    -0.002 C 
ATOM     29  C   UNL     1      34.235 -11.244 -25.255  0.00  0.00    -0.000 C 
ATOM     30  C   UNL     1      34.958 -11.234 -26.472  0.00  0.00    -0.000 C 
ATOM     31  C   UNL     1      34.975 -12.390 -27.271  0.00  0.00    -0.000 C 
ATOM     32  C   UNL     1      34.218 -10.089 -24.458  0.00  0.00    +0.003 C 
ATOM     33  C   UNL     1      35.642 -10.069 -26.855  0.00  0.00    +0.000 C 
ATOM     34  C   UNL     1      34.903  -8.940 -24.854  0.00  0.00    +0.031 C 
ATOM     35  C   UNL     1      35.614  -8.931 -26.050  0.00  0.00    +0.003 C 
BRANCH  34  38
ATOM     36  N   UNL     1      34.467  -6.518 -24.518  0.00  0.00    -0.343 N 
ATOM     37  N   UNL     1      35.249  -7.830 -22.750  0.00  0.00    -0.285 NA
ATOM     38  C   UNL     1      34.876  -7.752 -24.016  0.00  0.00    +0.117 C 
ATOM     39  H   UNL     1      34.457  -5.726 -23.933  0.00  0.00    +0.144 HD
ATOM     40  H   UNL     1      34.188  -6.438 -25.459  0.00  0.00    +0.144 HD
ATOM     41  H   UNL     1      35.231  -7.027 -22.180  0.00  0.00    +0.188 HD
ENDBRANCH  34  38
ENDBRANCH  25  26
ENDBRANCH   1  25
TORSDOF 5
ENDMDL
