MODEL 1
REMARK VINA RESULT:      -9.7      0.000      0.000
REMARK  Name = 5991
REMARK  3 active torsions:
REMARK  status: ('A' for Active; 'I' for Inactive)
REMARK    1  A    between atoms: C_4  and  O_19
REMARK    2  A    between atoms: C_4  and  C_23
REMARK    3  A    between atoms: C_18  and  O_21
REMARK                            x       y       z     vdW  Elec       q    Type
REMARK                         _______ _______ _______ _____ _____    ______ ____
ROOT
ATOM      1  C   UNL     1      34.459 -18.858 -21.655  0.00  0.00    +0.033 C 
ATOM      2  C   UNL     1      35.672 -19.750 -21.305  0.00  0.00    +0.004 C 
ATOM      3  C   UNL     1      35.550 -20.386 -19.918  0.00  0.00    +0.004 C 
ATOM      4  C   UNL     1      34.922 -18.280 -23.026  0.00  0.00    +0.142 C 
ATOM      5  C   UNL     1      34.279 -21.286 -19.885  0.00  0.00    +0.022 C 
ATOM      6  C   UNL     1      33.199 -19.741 -21.654  0.00  0.00    +0.004 C 
ATOM      7  C   UNL     1      36.872 -18.853 -21.599  0.00  0.00    +0.004 C 
ATOM      8  C   UNL     1      33.019 -20.494 -20.321  0.00  0.00    +0.004 C 
ATOM      9  C   UNL     1      36.424 -17.977 -22.786  0.00  0.00    +0.039 C 
ATOM     10  C   UNL     1      36.771 -21.236 -19.555  0.00  0.00    +0.005 C 
ATOM     11  C   UNL     1      34.235 -17.687 -20.652  0.00  0.00    +0.003 C 
ATOM     12  C   UNL     1      34.153 -22.018 -18.550  0.00  0.00    -0.026 C 
ATOM     13  C   UNL     1      36.656 -21.716 -18.111  0.00  0.00    +0.026 C 
ATOM     14  C   UNL     1      35.291 -22.246 -17.747  0.00  0.00    -0.023 C 
ATOM     15  C   UNL     1      32.924 -22.556 -18.129  0.00  0.00    -0.001 C 
ATOM     16  C   UNL     1      35.165 -22.951 -16.537  0.00  0.00    +0.032 C 
ATOM     17  C   UNL     1      32.814 -23.262 -16.929  0.00  0.00    +0.036 C 
ATOM     18  C   UNL     1      33.933 -23.455 -16.129  0.00  0.00    +0.133 C 
ENDROOT
BRANCH   4  19
ATOM     19  O   UNL     1      34.244 -17.078 -23.365  0.00  0.00    -0.375 OA
ATOM     20  H   UNL     1      33.708 -16.786 -22.612  0.00  0.00    +0.211 HD
ENDBRANCH   4  19
BRANCH  18  21
ATOM     21  O   UNL     1      33.828 -24.139 -14.958  0.00  0.00    -0.506 OA
ATOM     22  H   UNL     1      33.177 -24.805 -14.861  0.00  0.00    +0.292 HD
ENDBRANCH  18  21
BRANCH   4  23
ATOM     23  C   UNL     1      34.777 -19.225 -24.151  0.00  0.00    -0.053 C 
ATOM     24  C   UNL     1      34.660 -19.993 -25.067  0.00  0.00    -0.012 C 
ENDBRANCH   4  23
TORSDOF 3
ENDMDL
MODEL 2
REMARK VINA RESULT:      -9.2      3.172      8.435
REMARK  Name = 5991
REMARK  3 active torsions:
REMARK  status: ('A' for Active; 'I' for Inactive)
REMARK    1  A    between atoms: C_4  and  O_19
REMARK    2  A    between atoms: C_4  and  C_23
REMARK    3  A    between atoms: C_18  and  O_21
REMARK                            x       y       z     vdW  Elec       q    Type
REMARK                         _______ _______ _______ _____ _____    ______ ____
ROOT
ATOM      1  C   UNL     1      36.268 -25.218 -14.254  0.00  0.00    +0.033 C 
ATOM      2  C   UNL     1      37.002 -23.893 -14.559  0.00  0.00    +0.004 C 
ATOM      3  C   UNL     1      36.686 -23.356 -15.957  0.00  0.00    +0.004 C 
ATOM      4  C   UNL     1      36.868 -25.557 -12.857  0.00  0.00    +0.142 C 
ATOM      5  C   UNL     1      35.156 -23.080 -16.059  0.00  0.00    +0.022 C 
ATOM      6  C   UNL     1      34.754 -24.954 -14.323  0.00  0.00    +0.004 C 
ATOM      7  C   UNL     1      38.454 -24.198 -14.200  0.00  0.00    +0.004 C 
ATOM      8  C   UNL     1      34.332 -24.336 -15.672  0.00  0.00    +0.004 C 
ATOM      9  C   UNL     1      38.367 -25.192 -13.024  0.00  0.00    +0.039 C 
ATOM     10  C   UNL     1      37.446 -22.065 -16.274  0.00  0.00    +0.005 C 
ATOM     11  C   UNL     1      36.608 -26.364 -15.253  0.00  0.00    +0.003 C 
ATOM     12  C   UNL     1      34.793 -22.459 -17.406  0.00  0.00    -0.026 C 
ATOM     13  C   UNL     1      37.205 -21.666 -17.727  0.00  0.00    +0.026 C 
ATOM     14  C   UNL     1      35.763 -21.762 -18.159  0.00  0.00    -0.023 C 
ATOM     15  C   UNL     1      33.473 -22.490 -17.889  0.00  0.00    -0.001 C 
ATOM     16  C   UNL     1      35.406 -21.167 -19.382  0.00  0.00    +0.032 C 
ATOM     17  C   UNL     1      33.130 -21.887 -19.101  0.00  0.00    +0.036 C 
ATOM     18  C   UNL     1      34.097 -21.230 -19.851  0.00  0.00    +0.133 C 
ENDROOT
BRANCH   4  19
ATOM     19  O   UNL     1      36.750 -26.936 -12.535  0.00  0.00    -0.375 OA
ATOM     20  H   UNL     1      35.879 -27.259 -12.813  0.00  0.00    +0.211 HD
ENDBRANCH   4  19
BRANCH  18  21
ATOM     21  O   UNL     1      33.766 -20.646 -21.034  0.00  0.00    -0.506 OA
ATOM     22  H   UNL     1      34.420 -20.516 -21.692  0.00  0.00    +0.292 HD
ENDBRANCH  18  21
BRANCH   4  23
ATOM     23  C   UNL     1      36.284 -24.773 -11.751  0.00  0.00    -0.053 C 
ATOM     24  C   UNL     1      35.810 -24.135 -10.850  0.00  0.00    -0.012 C 
ENDBRANCH   4  23
TORSDOF 3
ENDMDL
MODEL 3
REMARK VINA RESULT:      -8.5      1.844      7.598
REMARK  Name = 5991
REMARK  3 active torsions:
REMARK  status: ('A' for Active; 'I' for Inactive)
REMARK    1  A    between atoms: C_4  and  O_19
REMARK    2  A    between atoms: C_4  and  C_23
REMARK    3  A    between atoms: C_18  and  O_21
REMARK                            x       y       z     vdW  Elec       q    Type
REMARK                         _______ _______ _______ _____ _____    ______ ____
ROOT
ATOM      1  C   UNL     1      35.800 -23.261 -15.394  0.00  0.00    +0.033 C 
ATOM      2  C   UNL     1      34.723 -23.583 -16.455  0.00  0.00    +0.004 C 
ATOM      3  C   UNL     1      34.540 -22.449 -17.467  0.00  0.00    +0.004 C 
ATOM      4  C   UNL     1      35.670 -24.512 -14.473  0.00  0.00    +0.142 C 
ATOM      5  C   UNL     1      35.886 -22.219 -18.217  0.00  0.00    +0.022 C 
ATOM      6  C   UNL     1      37.142 -23.060 -16.119  0.00  0.00    +0.004 C 
ATOM      7  C   UNL     1      33.523 -24.026 -15.623  0.00  0.00    +0.004 C 
ATOM      8  C   UNL     1      37.052 -21.985 -17.221  0.00  0.00    +0.004 C 
ATOM      9  C   UNL     1      34.135 -24.725 -14.392  0.00  0.00    +0.039 C 
ATOM     10  C   UNL     1      33.444 -22.751 -18.492  0.00  0.00    +0.005 C 
ATOM     11  C   UNL     1      35.496 -21.977 -14.565  0.00  0.00    +0.003 C 
ATOM     12  C   UNL     1      35.740 -21.156 -19.303  0.00  0.00    -0.026 C 
ATOM     13  C   UNL     1      33.209 -21.528 -19.374  0.00  0.00    +0.026 C 
ATOM     14  C   UNL     1      34.476 -20.873 -19.864  0.00  0.00    -0.023 C 
ATOM     15  C   UNL     1      36.864 -20.497 -19.831  0.00  0.00    -0.001 C 
ATOM     16  C   UNL     1      34.363 -19.914 -20.887  0.00  0.00    +0.032 C 
ATOM     17  C   UNL     1      36.739 -19.553 -20.853  0.00  0.00    +0.036 C 
ATOM     18  C   UNL     1      35.487 -19.257 -21.378  0.00  0.00    +0.133 C 
ENDROOT
BRANCH   4  19
ATOM     19  O   UNL     1      36.185 -24.282 -13.169  0.00  0.00    -0.375 OA
ATOM     20  H   UNL     1      35.761 -23.498 -12.787  0.00  0.00    +0.211 HD
ENDBRANCH   4  19
BRANCH  18  21
ATOM     21  O   UNL     1      35.362 -18.336 -22.371  0.00  0.00    -0.506 OA
ATOM     22  H   UNL     1      34.560 -17.861 -22.472  0.00  0.00    +0.292 HD
ENDBRANCH  18  21
BRANCH   4  23
ATOM     23  C   UNL     1      36.314 -25.723 -15.017  0.00  0.00    -0.053 C 
ATOM     24  C   UNL     1      36.838 -26.710 -15.459  0.00  0.00    -0.012 C 
ENDBRANCH   4  23
TORSDOF 3
ENDMDL
MODEL 4
REMARK VINA RESULT:      -8.0      5.220      8.490
REMARK  Name = 5991
REMARK  3 active torsions:
REMARK  status: ('A' for Active; 'I' for Inactive)
REMARK    1  A    between atoms: C_4  and  O_19
REMARK    2  A    between atoms: C_4  and  C_23
REMARK    3  A    between atoms: C_18  and  O_21
REMARK                            x       y       z     vdW  Elec       q    Type
REMARK                         _______ _______ _______ _____ _____    ______ ____
ROOT
ATOM      1  C   UNL     1      36.385 -25.030 -13.720  0.00  0.00    +0.033 C 
ATOM      2  C   UNL     1      36.387 -23.922 -14.797  0.00  0.00    +0.004 C 
ATOM      3  C   UNL     1      35.054 -23.829 -15.544  0.00  0.00    +0.004 C 
ATOM      4  C   UNL     1      37.865 -24.955 -13.238  0.00  0.00    +0.142 C 
ATOM      5  C   UNL     1      33.925 -23.492 -14.525  0.00  0.00    +0.022 C 
ATOM      6  C   UNL     1      35.292 -24.695 -12.689  0.00  0.00    +0.004 C 
ATOM      7  C   UNL     1      37.658 -24.200 -15.595  0.00  0.00    +0.004 C 
ATOM      8  C   UNL     1      33.912 -24.502 -13.348  0.00  0.00    +0.004 C 
ATOM      9  C   UNL     1      38.652 -24.768 -14.561  0.00  0.00    +0.039 C 
ATOM     10  C   UNL     1      35.070 -22.759 -16.639  0.00  0.00    +0.005 C 
ATOM     11  C   UNL     1      36.099 -26.452 -14.287  0.00  0.00    +0.003 C 
ATOM     12  C   UNL     1      32.583 -23.301 -15.227  0.00  0.00    -0.026 C 
ATOM     13  C   UNL     1      33.773 -22.820 -17.441  0.00  0.00    +0.026 C 
ATOM     14  C   UNL     1      32.532 -22.944 -16.592  0.00  0.00    -0.023 C 
ATOM     15  C   UNL     1      31.372 -23.388 -14.518  0.00  0.00    -0.001 C 
ATOM     16  C   UNL     1      31.290 -22.739 -17.217  0.00  0.00    +0.032 C 
ATOM     17  C   UNL     1      30.145 -23.172 -15.149  0.00  0.00    +0.036 C 
ATOM     18  C   UNL     1      30.102 -22.853 -16.501  0.00  0.00    +0.133 C 
ENDROOT
BRANCH   4  19
ATOM     19  O   UNL     1      38.289 -26.152 -12.600  0.00  0.00    -0.375 OA
ATOM     20  H   UNL     1      37.514 -26.642 -12.283  0.00  0.00    +0.211 HD
ENDBRANCH   4  19
BRANCH  18  21
ATOM     21  O   UNL     1      28.908 -22.647 -17.118  0.00  0.00    -0.506 OA
ATOM     22  H   UNL     1      28.716 -23.081 -17.925  0.00  0.00    +0.292 HD
ENDBRANCH  18  21
BRANCH   4  23
ATOM     23  C   UNL     1      38.140 -23.825 -12.328  0.00  0.00    -0.053 C 
ATOM     24  C   UNL     1      38.363 -22.905 -11.589  0.00  0.00    -0.012 C 
ENDBRANCH   4  23
TORSDOF 3
ENDMDL
MODEL 5
REMARK VINA RESULT:      -7.5      5.982      8.069
REMARK  Name = 5991
REMARK  3 active torsions:
REMARK  status: ('A' for Active; 'I' for Inactive)
REMARK    1  A    between atoms: C_4  and  O_19
REMARK    2  A    between atoms: C_4  and  C_23
REMARK    3  A    between atoms: C_18  and  O_21
REMARK                            x       y       z     vdW  Elec       q    Type
REMARK                         _______ _______ _______ _____ _____    ______ ____
ROOT
ATOM      1  C   UNL     1      35.549 -23.655 -15.056  0.00  0.00    +0.033 C 
ATOM      2  C   UNL     1      34.564 -24.232 -14.013  0.00  0.00    +0.004 C 
ATOM      3  C   UNL     1      33.179 -23.586 -14.096  0.00  0.00    +0.004 C 
ATOM      4  C   UNL     1      36.856 -24.402 -14.651  0.00  0.00    +0.142 C 
ATOM      5  C   UNL     1      32.579 -23.855 -15.508  0.00  0.00    +0.022 C 
ATOM      6  C   UNL     1      34.983 -23.940 -16.458  0.00  0.00    +0.004 C 
ATOM      7  C   UNL     1      35.340 -24.142 -12.701  0.00  0.00    +0.004 C 
ATOM      8  C   UNL     1      33.550 -23.396 -16.627  0.00  0.00    +0.004 C 
ATOM      9  C   UNL     1      36.813 -24.362 -13.101  0.00  0.00    +0.039 C 
ATOM     10  C   UNL     1      32.217 -24.128 -13.036  0.00  0.00    +0.005 C 
ATOM     11  C   UNL     1      35.771 -22.119 -14.922  0.00  0.00    +0.003 C 
ATOM     12  C   UNL     1      31.158 -23.308 -15.621  0.00  0.00    -0.026 C 
ATOM     13  C   UNL     1      30.909 -23.342 -13.074  0.00  0.00    +0.026 C 
ATOM     14  C   UNL     1      30.373 -23.111 -14.465  0.00  0.00    -0.023 C 
ATOM     15  C   UNL     1      30.568 -23.069 -16.874  0.00  0.00    -0.001 C 
ATOM     16  C   UNL     1      29.054 -22.637 -14.586  0.00  0.00    +0.032 C 
ATOM     17  C   UNL     1      29.254 -22.608 -16.981  0.00  0.00    +0.036 C 
ATOM     18  C   UNL     1      28.498 -22.386 -15.837  0.00  0.00    +0.133 C 
ENDROOT
BRANCH   4  19
ATOM     19  O   UNL     1      38.025 -23.738 -15.110  0.00  0.00    -0.375 OA
ATOM     20  H   UNL     1      38.746 -24.380 -15.201  0.00  0.00    +0.211 HD
ENDBRANCH   4  19
BRANCH  18  21
ATOM     21  O   UNL     1      27.219 -21.933 -15.938  0.00  0.00    -0.506 OA
ATOM     22  H   UNL     1      26.503 -22.503 -15.737  0.00  0.00    +0.292 HD
ENDBRANCH  18  21
BRANCH   4  23
ATOM     23  C   UNL     1      36.909 -25.804 -15.113  0.00  0.00    -0.053 C 
ATOM     24  C   UNL     1      36.952 -26.944 -15.488  0.00  0.00    -0.012 C 
ENDBRANCH   4  23
TORSDOF 3
ENDMDL
MODEL 6
REMARK VINA RESULT:      -7.1      5.818      8.690
REMARK  Name = 5991
REMARK  3 active torsions:
REMARK  status: ('A' for Active; 'I' for Inactive)
REMARK    1  A    between atoms: C_4  and  O_19
REMARK    2  A    between atoms: C_4  and  C_23
REMARK    3  A    between atoms: C_18  and  O_21
REMARK                            x       y       z     vdW  Elec       q    Type
REMARK                         _______ _______ _______ _____ _____    ______ ____
ROOT
ATOM      1  C   UNL     1      36.477 -23.993 -13.895  0.00  0.00    +0.033 C 
ATOM      2  C   UNL     1      35.240 -24.659 -13.249  0.00  0.00    +0.004 C 
ATOM      3  C   UNL     1      33.931 -23.972 -13.646  0.00  0.00    +0.004 C 
ATOM      4  C   UNL     1      37.619 -24.815 -13.226  0.00  0.00    +0.142 C 
ATOM      5  C   UNL     1      33.761 -24.063 -15.192  0.00  0.00    +0.022 C 
ATOM      6  C   UNL     1      36.336 -24.101 -15.423  0.00  0.00    +0.004 C 
ATOM      7  C   UNL     1      35.609 -24.739 -11.770  0.00  0.00    +0.004 C 
ATOM      8  C   UNL     1      35.007 -23.505 -15.928  0.00  0.00    +0.004 C 
ATOM      9  C   UNL     1      37.136 -24.951 -11.758  0.00  0.00    +0.039 C 
ATOM     10  C   UNL     1      32.711 -24.606 -12.974  0.00  0.00    +0.005 C 
ATOM     11  C   UNL     1      36.640 -22.489 -13.526  0.00  0.00    +0.003 C 
ATOM     12  C   UNL     1      32.427 -23.470 -15.639  0.00  0.00    -0.026 C 
ATOM     13  C   UNL     1      31.462 -23.788 -13.290  0.00  0.00    +0.026 C 
ATOM     14  C   UNL     1      31.342 -23.386 -14.739  0.00  0.00    -0.023 C 
ATOM     15  C   UNL     1      32.216 -23.075 -16.972  0.00  0.00    -0.001 C 
ATOM     16  C   UNL     1      30.110 -22.867 -15.174  0.00  0.00    +0.032 C 
ATOM     17  C   UNL     1      30.984 -22.571 -17.393  0.00  0.00    +0.036 C 
ATOM     18  C   UNL     1      29.931 -22.461 -16.493  0.00  0.00    +0.133 C 
ENDROOT
BRANCH   4  19
ATOM     19  O   UNL     1      38.866 -24.134 -13.253  0.00  0.00    -0.375 OA
ATOM     20  H   UNL     1      38.952 -23.650 -14.089  0.00  0.00    +0.211 HD
ENDBRANCH   4  19
BRANCH  18  21
ATOM     21  O   UNL     1      28.731 -21.967 -16.900  0.00  0.00    -0.506 OA
ATOM     22  H   UNL     1      28.471 -21.102 -16.649  0.00  0.00    +0.292 HD
ENDBRANCH  18  21
BRANCH   4  23
ATOM     23  C   UNL     1      37.813 -26.156 -13.813  0.00  0.00    -0.053 C 
ATOM     24  C   UNL     1      37.971 -27.247 -14.291  0.00  0.00    -0.012 C 
ENDBRANCH   4  23
TORSDOF 3
ENDMDL
MODEL 7
REMARK VINA RESULT:      -7.0     12.975     17.054
REMARK  Name = 5991
REMARK  3 active torsions:
REMARK  status: ('A' for Active; 'I' for Inactive)
REMARK    1  A    between atoms: C_4  and  O_19
REMARK    2  A    between atoms: C_4  and  C_23
REMARK    3  A    between atoms: C_18  and  O_21
REMARK                            x       y       z     vdW  Elec       q    Type
REMARK                         _______ _______ _______ _____ _____    ______ ____
ROOT
ATOM      1  C   UNL     1      31.833  -7.436 -23.229  0.00  0.00    +0.033 C 
ATOM      2  C   UNL     1      33.237  -7.030 -23.732  0.00  0.00    +0.004 C 
ATOM      3  C   UNL     1      33.188  -6.286 -25.069  0.00  0.00    +0.004 C 
ATOM      4  C   UNL     1      32.215  -8.250 -21.956  0.00  0.00    +0.142 C 
ATOM      5  C   UNL     1      32.356  -4.981 -24.892  0.00  0.00    +0.022 C 
ATOM      6  C   UNL     1      31.009  -6.154 -23.022  0.00  0.00    +0.004 C 
ATOM      7  C   UNL     1      34.039  -8.326 -23.641  0.00  0.00    +0.004 C 
ATOM      8  C   UNL     1      30.957  -5.284 -24.294  0.00  0.00    +0.004 C 
ATOM      9  C   UNL     1      33.449  -9.066 -22.423  0.00  0.00    +0.039 C 
ATOM     10  C   UNL     1      34.582  -5.921 -25.586  0.00  0.00    +0.005 C 
ATOM     11  C   UNL     1      31.059  -8.359 -24.218  0.00  0.00    +0.003 C 
ATOM     12  C   UNL     1      32.346  -4.152 -26.174  0.00  0.00    -0.026 C 
ATOM     13  C   UNL     1      34.474  -5.320 -26.985  0.00  0.00    +0.026 C 
ATOM     14  C   UNL     1      33.374  -4.297 -27.130  0.00  0.00    -0.023 C 
ATOM     15  C   UNL     1      31.367  -3.167 -26.395  0.00  0.00    -0.001 C 
ATOM     16  C   UNL     1      33.369  -3.503 -28.290  0.00  0.00    +0.032 C 
ATOM     17  C   UNL     1      31.379  -2.379 -27.548  0.00  0.00    +0.036 C 
ATOM     18  C   UNL     1      32.376  -2.550 -28.499  0.00  0.00    +0.133 C 
ENDROOT
BRANCH   4  19
ATOM     19  O   UNL     1      31.185  -9.140 -21.551  0.00  0.00    -0.375 OA
ATOM     20  H   UNL     1      30.334  -8.675 -21.561  0.00  0.00    +0.211 HD
ENDBRANCH   4  19
BRANCH  18  21
ATOM     21  O   UNL     1      32.388  -1.786 -29.624  0.00  0.00    -0.506 OA
ATOM     22  H   UNL     1      32.660  -2.157 -30.440  0.00  0.00    +0.292 HD
ENDBRANCH  18  21
BRANCH   4  23
ATOM     23  C   UNL     1      32.581  -7.410 -20.799  0.00  0.00    -0.053 C 
ATOM     24  C   UNL     1      32.878  -6.725 -19.857  0.00  0.00    -0.012 C 
ENDBRANCH   4  23
TORSDOF 3
ENDMDL
