MODEL 1
REMARK VINA RESULT:      -6.8      0.000      0.000
REMARK  Name = 446018
REMARK  10 active torsions:
REMARK  status: ('A' for Active; 'I' for Inactive)
REMARK    1  A    between atoms: S_1  and  C_2
REMARK    2  A    between atoms: S_1  and  C_12
REMARK    3  A    between atoms: C_2  and  C_4
REMARK    4  A    between atoms: C_2  and  C_7
REMARK    5  A    between atoms: C_4  and  O_5
REMARK    6  A    between atoms: C_7  and  C_9
REMARK    7  A    between atoms: C_9  and  O_10
REMARK    8  A    between atoms: C_12  and  C_13
REMARK    9  A    between atoms: C_13  and  N_14
REMARK   10  A    between atoms: N_14  and  C_17
REMARK                            x       y       z     vdW  Elec       q    Type
REMARK                         _______ _______ _______ _____ _____    ______ ____
ROOT
ATOM      1  S   UNL     1      37.095 -23.826 -14.231  0.00  0.00    -0.127 S 
ENDROOT
BRANCH   1   2
ATOM      2  C   UNL     1      38.027 -25.286 -14.819  0.00  0.00    +0.157 C 
BRANCH   2   4
ATOM      3  O   UNL     1      36.506 -26.896 -15.857  0.00  0.00    -0.249 OA
ATOM      4  C   UNL     1      37.075 -26.471 -14.860  0.00  0.00    +0.324 C 
BRANCH   4   5
ATOM      5  O   UNL     1      36.881 -27.006 -13.626  0.00  0.00    -0.480 OA
ATOM      6  H   UNL     1      36.317 -27.747 -13.519  0.00  0.00    +0.295 HD
ENDBRANCH   4   5
ENDBRANCH   2   4
BRANCH   2   7
ATOM      7  C   UNL     1      39.194 -25.571 -13.875  0.00  0.00    +0.131 C 
BRANCH   7   9
ATOM      8  O   UNL     1      41.291 -26.748 -14.120  0.00  0.00    -0.250 OA
ATOM      9  C   UNL     1      40.379 -26.114 -14.637  0.00  0.00    +0.315 C 
BRANCH   9  10
ATOM     10  O   UNL     1      40.346 -25.801 -15.957  0.00  0.00    -0.480 OA
ATOM     11  H   UNL     1      40.889 -26.267 -16.562  0.00  0.00    +0.295 HD
ENDBRANCH   9  10
ENDBRANCH   7   9
ENDBRANCH   2   7
ENDBRANCH   1   2
BRANCH   1  12
ATOM     12  C   UNL     1      36.649 -23.151 -15.845  0.00  0.00    +0.084 C 
BRANCH  12  13
ATOM     13  C   UNL     1      35.139 -23.019 -15.974  0.00  0.00    +0.140 C 
BRANCH  13  14
ATOM     14  N   UNL     1      34.794 -22.949 -17.397  0.00  0.00    -0.239 NA
BRANCH  14  17
ATOM     15  N   UNL     1      33.115 -22.523 -18.934  0.00  0.00    -0.370 N 
ATOM     16  N   UNL     1      32.469 -23.270 -16.880  0.00  0.00    -0.370 N 
ATOM     17  C   UNL     1      33.531 -22.927 -17.687  0.00  0.00    +0.189 C 
ATOM     18  H   UNL     1      33.777 -22.250 -19.610  0.00  0.00    +0.159 HD
ATOM     19  H   UNL     1      32.155 -22.506 -19.152  0.00  0.00    +0.159 HD
ATOM     20  H   UNL     1      32.631 -23.577 -15.958  0.00  0.00    +0.159 HD
ATOM     21  H   UNL     1      31.549 -23.208 -17.224  0.00  0.00    +0.159 HD
ENDBRANCH  14  17
ENDBRANCH  13  14
ENDBRANCH  12  13
ENDBRANCH   1  12
TORSDOF 10
ENDMDL
MODEL 2
REMARK VINA RESULT:      -6.8      1.411      1.945
REMARK  Name = 446018
REMARK  10 active torsions:
REMARK  status: ('A' for Active; 'I' for Inactive)
REMARK    1  A    between atoms: S_1  and  C_2
REMARK    2  A    between atoms: S_1  and  C_12
REMARK    3  A    between atoms: C_2  and  C_4
REMARK    4  A    between atoms: C_2  and  C_7
REMARK    5  A    between atoms: C_4  and  O_5
REMARK    6  A    between atoms: C_7  and  C_9
REMARK    7  A    between atoms: C_9  and  O_10
REMARK    8  A    between atoms: C_12  and  C_13
REMARK    9  A    between atoms: C_13  and  N_14
REMARK   10  A    between atoms: N_14  and  C_17
REMARK                            x       y       z     vdW  Elec       q    Type
REMARK                         _______ _______ _______ _____ _____    ______ ____
ROOT
ATOM      1  S   UNL     1      36.733 -24.158 -13.988  0.00  0.00    -0.127 S 
ENDROOT
BRANCH   1   2
ATOM      2  C   UNL     1      37.920 -25.308 -14.771  0.00  0.00    +0.157 C 
BRANCH   2   4
ATOM      3  O   UNL     1      36.908 -27.195 -15.953  0.00  0.00    -0.249 OA
ATOM      4  C   UNL     1      37.249 -26.665 -14.904  0.00  0.00    +0.324 C 
BRANCH   4   5
ATOM      5  O   UNL     1      37.020 -27.235 -13.691  0.00  0.00    -0.480 OA
ATOM      6  H   UNL     1      36.509 -26.783 -13.048  0.00  0.00    +0.295 HD
ENDBRANCH   4   5
ENDBRANCH   2   4
BRANCH   2   7
ATOM      7  C   UNL     1      39.181 -25.416 -13.914  0.00  0.00    +0.131 C 
BRANCH   7   9
ATOM      8  O   UNL     1      41.180 -26.740 -14.209  0.00  0.00    -0.250 OA
ATOM      9  C   UNL     1      40.313 -26.030 -14.701  0.00  0.00    +0.315 C 
BRANCH   9  10
ATOM     10  O   UNL     1      40.289 -25.689 -16.014  0.00  0.00    -0.480 OA
ATOM     11  H   UNL     1      40.179 -24.792 -16.263  0.00  0.00    +0.295 HD
ENDBRANCH   9  10
ENDBRANCH   7   9
ENDBRANCH   2   7
ENDBRANCH   1   2
BRANCH   1  12
ATOM     12  C   UNL     1      35.437 -24.249 -15.241  0.00  0.00    +0.084 C 
BRANCH  12  13
ATOM     13  C   UNL     1      35.103 -22.862 -15.771  0.00  0.00    +0.140 C 
BRANCH  13  14
ATOM     14  N   UNL     1      35.604 -22.750 -17.143  0.00  0.00    -0.239 NA
BRANCH  14  17
ATOM     15  N   UNL     1      36.523 -21.192 -18.590  0.00  0.00    -0.370 N 
ATOM     16  N   UNL     1      37.437 -21.333 -16.508  0.00  0.00    -0.370 N 
ATOM     17  C   UNL     1      36.479 -21.820 -17.368  0.00  0.00    +0.189 C 
ATOM     18  H   UNL     1      35.888 -21.448 -19.298  0.00  0.00    +0.159 HD
ATOM     19  H   UNL     1      37.189 -20.487 -18.758  0.00  0.00    +0.159 HD
ATOM     20  H   UNL     1      37.513 -21.699 -15.596  0.00  0.00    +0.159 HD
ATOM     21  H   UNL     1      38.047 -20.618 -16.803  0.00  0.00    +0.159 HD
ENDBRANCH  14  17
ENDBRANCH  13  14
ENDBRANCH  12  13
ENDBRANCH   1  12
TORSDOF 10
ENDMDL
MODEL 3
REMARK VINA RESULT:      -6.8      2.402      2.916
REMARK  Name = 446018
REMARK  10 active torsions:
REMARK  status: ('A' for Active; 'I' for Inactive)
REMARK    1  A    between atoms: S_1  and  C_2
REMARK    2  A    between atoms: S_1  and  C_12
REMARK    3  A    between atoms: C_2  and  C_4
REMARK    4  A    between atoms: C_2  and  C_7
REMARK    5  A    between atoms: C_4  and  O_5
REMARK    6  A    between atoms: C_7  and  C_9
REMARK    7  A    between atoms: C_9  and  O_10
REMARK    8  A    between atoms: C_12  and  C_13
REMARK    9  A    between atoms: C_13  and  N_14
REMARK   10  A    between atoms: N_14  and  C_17
REMARK                            x       y       z     vdW  Elec       q    Type
REMARK                         _______ _______ _______ _____ _____    ______ ____
ROOT
ATOM      1  S   UNL     1      37.060 -25.845 -14.850  0.00  0.00    -0.127 S 
ENDROOT
BRANCH   1   2
ATOM      2  C   UNL     1      38.271 -25.937 -13.481  0.00  0.00    +0.157 C 
BRANCH   2   4
ATOM      3  O   UNL     1      38.106 -24.470 -11.531  0.00  0.00    -0.249 OA
ATOM      4  C   UNL     1      37.627 -25.348 -12.238  0.00  0.00    +0.324 C 
BRANCH   4   5
ATOM      5  O   UNL     1      36.438 -25.944 -11.954  0.00  0.00    -0.480 OA
ATOM      6  H   UNL     1      35.641 -25.454 -12.015  0.00  0.00    +0.295 HD
ENDBRANCH   4   5
ENDBRANCH   2   4
BRANCH   2   7
ATOM      7  C   UNL     1      39.532 -25.158 -13.851  0.00  0.00    +0.131 C 
BRANCH   7   9
ATOM      8  O   UNL     1      41.284 -26.802 -14.118  0.00  0.00    -0.250 OA
ATOM      9  C   UNL     1      40.489 -26.026 -14.633  0.00  0.00    +0.315 C 
BRANCH   9  10
ATOM     10  O   UNL     1      40.396 -25.837 -15.973  0.00  0.00    -0.480 OA
ATOM     11  H   UNL     1      40.944 -25.203 -16.395  0.00  0.00    +0.295 HD
ENDBRANCH   9  10
ENDBRANCH   7   9
ENDBRANCH   2   7
ENDBRANCH   1   2
BRANCH   1  12
ATOM     12  C   UNL     1      37.145 -24.065 -15.135  0.00  0.00    +0.084 C 
BRANCH  12  13
ATOM     13  C   UNL     1      35.749 -23.462 -15.191  0.00  0.00    +0.140 C 
BRANCH  13  14
ATOM     14  N   UNL     1      34.768 -24.523 -14.949  0.00  0.00    -0.239 NA
BRANCH  14  17
ATOM     15  N   UNL     1      34.436 -23.657 -12.827  0.00  0.00    -0.370 N 
ATOM     16  N   UNL     1      32.737 -24.886 -13.719  0.00  0.00    -0.370 N 
ATOM     17  C   UNL     1      34.004 -24.383 -13.912  0.00  0.00    +0.189 C 
ATOM     18  H   UNL     1      35.328 -23.241 -12.836  0.00  0.00    +0.159 HD
ATOM     19  H   UNL     1      33.853 -23.553 -12.041  0.00  0.00    +0.159 HD
ATOM     20  H   UNL     1      32.309 -25.426 -14.424  0.00  0.00    +0.159 HD
ATOM     21  H   UNL     1      32.257 -24.705 -12.879  0.00  0.00    +0.159 HD
ENDBRANCH  14  17
ENDBRANCH  13  14
ENDBRANCH  12  13
ENDBRANCH   1  12
TORSDOF 10
ENDMDL
MODEL 4
REMARK VINA RESULT:      -6.6      1.291      1.729
REMARK  Name = 446018
REMARK  10 active torsions:
REMARK  status: ('A' for Active; 'I' for Inactive)
REMARK    1  A    between atoms: S_1  and  C_2
REMARK    2  A    between atoms: S_1  and  C_12
REMARK    3  A    between atoms: C_2  and  C_4
REMARK    4  A    between atoms: C_2  and  C_7
REMARK    5  A    between atoms: C_4  and  O_5
REMARK    6  A    between atoms: C_7  and  C_9
REMARK    7  A    between atoms: C_9  and  O_10
REMARK    8  A    between atoms: C_12  and  C_13
REMARK    9  A    between atoms: C_13  and  N_14
REMARK   10  A    between atoms: N_14  and  C_17
REMARK                            x       y       z     vdW  Elec       q    Type
REMARK                         _______ _______ _______ _____ _____    ______ ____
ROOT
ATOM      1  S   UNL     1      37.338 -23.636 -14.205  0.00  0.00    -0.127 S 
ENDROOT
BRANCH   1   2
ATOM      2  C   UNL     1      38.170 -25.186 -14.706  0.00  0.00    +0.157 C 
BRANCH   2   4
ATOM      3  O   UNL     1      37.160 -27.111 -13.584  0.00  0.00    -0.249 OA
ATOM      4  C   UNL     1      37.187 -26.331 -14.527  0.00  0.00    +0.324 C 
BRANCH   4   5
ATOM      5  O   UNL     1      36.332 -26.430 -15.580  0.00  0.00    -0.480 OA
ATOM      6  H   UNL     1      36.268 -25.731 -16.201  0.00  0.00    +0.295 HD
ENDBRANCH   4   5
ENDBRANCH   2   4
BRANCH   2   7
ATOM      7  C   UNL     1      39.413 -25.410 -13.846  0.00  0.00    +0.131 C 
BRANCH   7   9
ATOM      8  O   UNL     1      41.343 -26.838 -14.121  0.00  0.00    -0.250 OA
ATOM      9  C   UNL     1      40.485 -26.128 -14.630  0.00  0.00    +0.315 C 
BRANCH   9  10
ATOM     10  O   UNL     1      40.419 -25.882 -15.962  0.00  0.00    -0.480 OA
ATOM     11  H   UNL     1      40.869 -25.143 -16.325  0.00  0.00    +0.295 HD
ENDBRANCH   9  10
ENDBRANCH   7   9
ENDBRANCH   2   7
ENDBRANCH   1   2
BRANCH   1  12
ATOM     12  C   UNL     1      37.062 -22.958 -15.855  0.00  0.00    +0.084 C 
BRANCH  12  13
ATOM     13  C   UNL     1      35.597 -22.601 -16.052  0.00  0.00    +0.140 C 
BRANCH  13  14
ATOM     14  N   UNL     1      34.823 -23.840 -16.169  0.00  0.00    -0.239 NA
BRANCH  14  17
ATOM     15  N   UNL     1      32.670 -23.357 -15.465  0.00  0.00    -0.370 N 
ATOM     16  N   UNL     1      33.874 -24.808 -14.186  0.00  0.00    -0.370 N 
ATOM     17  C   UNL     1      33.869 -24.012 -15.309  0.00  0.00    +0.189 C 
ATOM     18  H   UNL     1      32.534 -22.754 -16.231  0.00  0.00    +0.159 HD
ATOM     19  H   UNL     1      31.947 -23.489 -14.809  0.00  0.00    +0.159 HD
ATOM     20  H   UNL     1      34.676 -25.334 -13.959  0.00  0.00    +0.159 HD
ATOM     21  H   UNL     1      33.077 -24.853 -13.609  0.00  0.00    +0.159 HD
ENDBRANCH  14  17
ENDBRANCH  13  14
ENDBRANCH  12  13
ENDBRANCH   1  12
TORSDOF 10
ENDMDL
MODEL 5
REMARK VINA RESULT:      -6.6      1.633      2.023
REMARK  Name = 446018
REMARK  10 active torsions:
REMARK  status: ('A' for Active; 'I' for Inactive)
REMARK    1  A    between atoms: S_1  and  C_2
REMARK    2  A    between atoms: S_1  and  C_12
REMARK    3  A    between atoms: C_2  and  C_4
REMARK    4  A    between atoms: C_2  and  C_7
REMARK    5  A    between atoms: C_4  and  O_5
REMARK    6  A    between atoms: C_7  and  C_9
REMARK    7  A    between atoms: C_9  and  O_10
REMARK    8  A    between atoms: C_12  and  C_13
REMARK    9  A    between atoms: C_13  and  N_14
REMARK   10  A    between atoms: N_14  and  C_17
REMARK                            x       y       z     vdW  Elec       q    Type
REMARK                         _______ _______ _______ _____ _____    ______ ____
ROOT
ATOM      1  S   UNL     1      36.761 -25.464 -14.820  0.00  0.00    -0.127 S 
ENDROOT
BRANCH   1   2
ATOM      2  C   UNL     1      38.147 -25.895 -13.706  0.00  0.00    +0.157 C 
BRANCH   2   4
ATOM      3  O   UNL     1      38.175 -24.670 -11.589  0.00  0.00    -0.249 OA
ATOM      4  C   UNL     1      37.726 -25.575 -12.281  0.00  0.00    +0.324 C 
BRANCH   4   5
ATOM      5  O   UNL     1      36.795 -26.452 -11.821  0.00  0.00    -0.480 OA
ATOM      6  H   UNL     1      36.851 -26.778 -10.944  0.00  0.00    +0.295 HD
ENDBRANCH   4   5
ENDBRANCH   2   4
BRANCH   2   7
ATOM      7  C   UNL     1      39.390 -25.093 -14.090  0.00  0.00    +0.131 C 
BRANCH   7   9
ATOM      8  O   UNL     1      41.229 -26.661 -14.070  0.00  0.00    -0.250 OA
ATOM      9  C   UNL     1      40.433 -25.989 -14.714  0.00  0.00    +0.315 C 
BRANCH   9  10
ATOM     10  O   UNL     1      40.419 -25.950 -16.070  0.00  0.00    -0.480 OA
ATOM     11  H   UNL     1      41.225 -25.893 -16.545  0.00  0.00    +0.295 HD
ENDBRANCH   9  10
ENDBRANCH   7   9
ENDBRANCH   2   7
ENDBRANCH   1   2
BRANCH   1  12
ATOM     12  C   UNL     1      37.004 -23.675 -14.837  0.00  0.00    +0.084 C 
BRANCH  12  13
ATOM     13  C   UNL     1      36.121 -23.022 -15.890  0.00  0.00    +0.140 C 
BRANCH  13  14
ATOM     14  N   UNL     1      34.969 -23.892 -16.142  0.00  0.00    -0.239 NA
BRANCH  14  17
ATOM     15  N   UNL     1      32.876 -23.243 -16.893  0.00  0.00    -0.370 N 
ATOM     16  N   UNL     1      33.307 -22.969 -14.673  0.00  0.00    -0.370 N 
ATOM     17  C   UNL     1      33.799 -23.396 -15.886  0.00  0.00    +0.189 C 
ATOM     18  H   UNL     1      33.102 -23.512 -17.814  0.00  0.00    +0.159 HD
ATOM     19  H   UNL     1      31.988 -22.866 -16.696  0.00  0.00    +0.159 HD
ATOM     20  H   UNL     1      33.870 -23.024 -13.866  0.00  0.00    +0.159 HD
ATOM     21  H   UNL     1      32.393 -22.609 -14.611  0.00  0.00    +0.159 HD
ENDBRANCH  14  17
ENDBRANCH  13  14
ENDBRANCH  12  13
ENDBRANCH   1  12
TORSDOF 10
ENDMDL
MODEL 6
REMARK VINA RESULT:      -6.3      2.041      2.536
REMARK  Name = 446018
REMARK  10 active torsions:
REMARK  status: ('A' for Active; 'I' for Inactive)
REMARK    1  A    between atoms: S_1  and  C_2
REMARK    2  A    between atoms: S_1  and  C_12
REMARK    3  A    between atoms: C_2  and  C_4
REMARK    4  A    between atoms: C_2  and  C_7
REMARK    5  A    between atoms: C_4  and  O_5
REMARK    6  A    between atoms: C_7  and  C_9
REMARK    7  A    between atoms: C_9  and  O_10
REMARK    8  A    between atoms: C_12  and  C_13
REMARK    9  A    between atoms: C_13  and  N_14
REMARK   10  A    between atoms: N_14  and  C_17
REMARK                            x       y       z     vdW  Elec       q    Type
REMARK                         _______ _______ _______ _____ _____    ______ ____
ROOT
ATOM      1  S   UNL     1      36.779 -24.213 -13.696  0.00  0.00    -0.127 S 
ENDROOT
BRANCH   1   2
ATOM      2  C   UNL     1      37.995 -25.220 -14.622  0.00  0.00    +0.157 C 
BRANCH   2   4
ATOM      3  O   UNL     1      37.210 -27.376 -13.773  0.00  0.00    -0.249 OA
ATOM      4  C   UNL     1      37.459 -26.639 -14.719  0.00  0.00    +0.324 C 
BRANCH   4   5
ATOM      5  O   UNL     1      37.315 -27.037 -16.011  0.00  0.00    -0.480 OA
ATOM      6  H   UNL     1      38.044 -26.996 -16.599  0.00  0.00    +0.295 HD
ENDBRANCH   4   5
ENDBRANCH   2   4
BRANCH   2   7
ATOM      7  C   UNL     1      39.340 -25.205 -13.898  0.00  0.00    +0.131 C 
BRANCH   7   9
ATOM      8  O   UNL     1      41.197 -26.728 -14.160  0.00  0.00    -0.250 OA
ATOM      9  C   UNL     1      40.376 -25.981 -14.676  0.00  0.00    +0.315 C 
BRANCH   9  10
ATOM     10  O   UNL     1      40.322 -25.742 -16.010  0.00  0.00    -0.480 OA
ATOM     11  H   UNL     1      41.007 -25.256 -16.426  0.00  0.00    +0.295 HD
ENDBRANCH   9  10
ENDBRANCH   7   9
ENDBRANCH   2   7
ENDBRANCH   1   2
BRANCH   1  12
ATOM     12  C   UNL     1      35.327 -24.595 -14.698  0.00  0.00    +0.084 C 
BRANCH  12  13
ATOM     13  C   UNL     1      34.179 -23.656 -14.360  0.00  0.00    +0.140 C 
BRANCH  13  14
ATOM     14  N   UNL     1      33.230 -24.365 -13.498  0.00  0.00    -0.239 NA
BRANCH  14  17
ATOM     15  N   UNL     1      31.618 -23.760 -15.047  0.00  0.00    -0.370 N 
ATOM     16  N   UNL     1      30.968 -25.167 -13.377  0.00  0.00    -0.370 N 
ATOM     17  C   UNL     1      32.008 -24.447 -13.921  0.00  0.00    +0.189 C 
ATOM     18  H   UNL     1      32.269 -23.204 -15.535  0.00  0.00    +0.159 HD
ATOM     19  H   UNL     1      30.689 -23.823 -15.366  0.00  0.00    +0.159 HD
ATOM     20  H   UNL     1      31.114 -25.705 -12.565  0.00  0.00    +0.159 HD
ATOM     21  H   UNL     1      30.079 -25.145 -13.799  0.00  0.00    +0.159 HD
ENDBRANCH  14  17
ENDBRANCH  13  14
ENDBRANCH  12  13
ENDBRANCH   1  12
TORSDOF 10
ENDMDL
MODEL 7
REMARK VINA RESULT:      -6.3      2.576      3.508
REMARK  Name = 446018
REMARK  10 active torsions:
REMARK  status: ('A' for Active; 'I' for Inactive)
REMARK    1  A    between atoms: S_1  and  C_2
REMARK    2  A    between atoms: S_1  and  C_12
REMARK    3  A    between atoms: C_2  and  C_4
REMARK    4  A    between atoms: C_2  and  C_7
REMARK    5  A    between atoms: C_4  and  O_5
REMARK    6  A    between atoms: C_7  and  C_9
REMARK    7  A    between atoms: C_9  and  O_10
REMARK    8  A    between atoms: C_12  and  C_13
REMARK    9  A    between atoms: C_13  and  N_14
REMARK   10  A    between atoms: N_14  and  C_17
REMARK                            x       y       z     vdW  Elec       q    Type
REMARK                         _______ _______ _______ _____ _____    ______ ____
ROOT
ATOM      1  S   UNL     1      35.949 -22.733 -15.623  0.00  0.00    -0.127 S 
ENDROOT
BRANCH   1   2
ATOM      2  C   UNL     1      37.131 -23.223 -14.316  0.00  0.00    +0.157 C 
BRANCH   2   4
ATOM      3  O   UNL     1      39.157 -24.534 -14.716  0.00  0.00    -0.249 OA
ATOM      4  C   UNL     1      37.946 -24.398 -14.831  0.00  0.00    +0.324 C 
BRANCH   4   5
ATOM      5  O   UNL     1      37.171 -25.299 -15.492  0.00  0.00    -0.480 OA
ATOM      6  H   UNL     1      36.349 -25.566 -15.130  0.00  0.00    +0.295 HD
ENDBRANCH   4   5
ENDBRANCH   2   4
BRANCH   2   7
ATOM      7  C   UNL     1      36.373 -23.613 -13.048  0.00  0.00    +0.131 C 
BRANCH   7   9
ATOM      8  O   UNL     1      38.114 -22.480 -11.814  0.00  0.00    -0.250 OA
ATOM      9  C   UNL     1      37.171 -23.261 -11.816  0.00  0.00    +0.315 C 
BRANCH   9  10
ATOM     10  O   UNL     1      36.753 -23.925 -10.710  0.00  0.00    -0.480 OA
ATOM     11  H   UNL     1      36.348 -23.455 -10.007  0.00  0.00    +0.295 HD
ENDBRANCH   9  10
ENDBRANCH   7   9
ENDBRANCH   2   7
ENDBRANCH   1   2
BRANCH   1  12
ATOM     12  C   UNL     1      37.138 -22.026 -16.781  0.00  0.00    +0.084 C 
BRANCH  12  13
ATOM     13  C   UNL     1      36.468 -21.693 -18.105  0.00  0.00    +0.140 C 
BRANCH  13  14
ATOM     14  N   UNL     1      35.226 -22.464 -18.210  0.00  0.00    -0.239 NA
BRANCH  14  17
ATOM     15  N   UNL     1      33.005 -22.432 -18.867  0.00  0.00    -0.370 N 
ATOM     16  N   UNL     1      34.413 -20.980 -19.916  0.00  0.00    -0.370 N 
ATOM     17  C   UNL     1      34.296 -21.969 -18.965  0.00  0.00    +0.189 C 
ATOM     18  H   UNL     1      32.784 -23.142 -18.221  0.00  0.00    +0.159 HD
ATOM     19  H   UNL     1      32.301 -22.054 -19.442  0.00  0.00    +0.159 HD
ATOM     20  H   UNL     1      35.289 -20.561 -20.085  0.00  0.00    +0.159 HD
ATOM     21  H   UNL     1      33.623 -20.690 -20.425  0.00  0.00    +0.159 HD
ENDBRANCH  14  17
ENDBRANCH  13  14
ENDBRANCH  12  13
ENDBRANCH   1  12
TORSDOF 10
ENDMDL
MODEL 8
REMARK VINA RESULT:      -6.3      4.134      5.664
REMARK  Name = 446018
REMARK  10 active torsions:
REMARK  status: ('A' for Active; 'I' for Inactive)
REMARK    1  A    between atoms: S_1  and  C_2
REMARK    2  A    between atoms: S_1  and  C_12
REMARK    3  A    between atoms: C_2  and  C_4
REMARK    4  A    between atoms: C_2  and  C_7
REMARK    5  A    between atoms: C_4  and  O_5
REMARK    6  A    between atoms: C_7  and  C_9
REMARK    7  A    between atoms: C_9  and  O_10
REMARK    8  A    between atoms: C_12  and  C_13
REMARK    9  A    between atoms: C_13  and  N_14
REMARK   10  A    between atoms: N_14  and  C_17
REMARK                            x       y       z     vdW  Elec       q    Type
REMARK                         _______ _______ _______ _____ _____    ______ ____
ROOT
ATOM      1  S   UNL     1      35.093 -23.185 -15.060  0.00  0.00    -0.127 S 
ENDROOT
BRANCH   1   2
ATOM      2  C   UNL     1      34.588 -24.215 -13.634  0.00  0.00    +0.157 C 
BRANCH   2   4
ATOM      3  O   UNL     1      32.326 -25.017 -13.164  0.00  0.00    -0.249 OA
ATOM      4  C   UNL     1      33.080 -24.106 -13.481  0.00  0.00    +0.324 C 
BRANCH   4   5
ATOM      5  O   UNL     1      32.631 -22.859 -13.782  0.00  0.00    -0.480 OA
ATOM      6  H   UNL     1      32.002 -22.739 -14.467  0.00  0.00    +0.295 HD
ENDBRANCH   4   5
ENDBRANCH   2   4
BRANCH   2   7
ATOM      7  C   UNL     1      35.291 -23.727 -12.367  0.00  0.00    +0.131 C 
BRANCH   7   9
ATOM      8  O   UNL     1      35.247 -24.971 -10.296  0.00  0.00    -0.250 OA
ATOM      9  C   UNL     1      35.622 -24.886 -11.458  0.00  0.00    +0.315 C 
BRANCH   9  10
ATOM     10  O   UNL     1      36.408 -25.817 -12.056  0.00  0.00    -0.480 OA
ATOM     11  H   UNL     1      37.094 -26.232 -11.570  0.00  0.00    +0.295 HD
ENDBRANCH   9  10
ENDBRANCH   7   9
ENDBRANCH   2   7
ENDBRANCH   1   2
BRANCH   1  12
ATOM     12  C   UNL     1      36.836 -23.002 -14.629  0.00  0.00    +0.084 C 
BRANCH  12  13
ATOM     13  C   UNL     1      37.643 -24.187 -15.137  0.00  0.00    +0.140 C 
BRANCH  13  14
ATOM     14  N   UNL     1      38.653 -24.534 -14.134  0.00  0.00    -0.239 NA
BRANCH  14  17
ATOM     15  N   UNL     1      38.217 -26.802 -14.309  0.00  0.00    -0.370 N 
ATOM     16  N   UNL     1      40.392 -26.188 -14.016  0.00  0.00    -0.370 N 
ATOM     17  C   UNL     1      39.092 -25.753 -14.148  0.00  0.00    +0.189 C 
ATOM     18  H   UNL     1      37.254 -26.628 -14.416  0.00  0.00    +0.159 HD
ATOM     19  H   UNL     1      38.553 -27.727 -14.319  0.00  0.00    +0.159 HD
ATOM     20  H   UNL     1      41.119 -25.534 -13.893  0.00  0.00    +0.159 HD
ATOM     21  H   UNL     1      40.595 -27.150 -14.044  0.00  0.00    +0.159 HD
ENDBRANCH  14  17
ENDBRANCH  13  14
ENDBRANCH  12  13
ENDBRANCH   1  12
TORSDOF 10
ENDMDL
MODEL 9
REMARK VINA RESULT:      -6.2      2.026      3.307
REMARK  Name = 446018
REMARK  10 active torsions:
REMARK  status: ('A' for Active; 'I' for Inactive)
REMARK    1  A    between atoms: S_1  and  C_2
REMARK    2  A    between atoms: S_1  and  C_12
REMARK    3  A    between atoms: C_2  and  C_4
REMARK    4  A    between atoms: C_2  and  C_7
REMARK    5  A    between atoms: C_4  and  O_5
REMARK    6  A    between atoms: C_7  and  C_9
REMARK    7  A    between atoms: C_9  and  O_10
REMARK    8  A    between atoms: C_12  and  C_13
REMARK    9  A    between atoms: C_13  and  N_14
REMARK   10  A    between atoms: N_14  and  C_17
REMARK                            x       y       z     vdW  Elec       q    Type
REMARK                         _______ _______ _______ _____ _____    ______ ____
ROOT
ATOM      1  S   UNL     1      36.887 -23.348 -14.388  0.00  0.00    -0.127 S 
ENDROOT
BRANCH   1   2
ATOM      2  C   UNL     1      37.885 -24.616 -13.525  0.00  0.00    +0.157 C 
BRANCH   2   4
ATOM      3  O   UNL     1      38.781 -26.588 -14.660  0.00  0.00    -0.249 OA
ATOM      4  C   UNL     1      38.694 -25.371 -14.566  0.00  0.00    +0.324 C 
BRANCH   4   5
ATOM      5  O   UNL     1      39.371 -24.526 -15.389  0.00  0.00    -0.480 OA
ATOM      6  H   UNL     1      39.550 -23.648 -15.116  0.00  0.00    +0.295 HD
ENDBRANCH   4   5
ENDBRANCH   2   4
BRANCH   2   7
ATOM      7  C   UNL     1      36.966 -25.572 -12.766  0.00  0.00    +0.131 C 
BRANCH   7   9
ATOM      8  O   UNL     1      36.741 -24.218 -10.776  0.00  0.00    -0.250 OA
ATOM      9  C   UNL     1      36.206 -24.840 -11.685  0.00  0.00    +0.315 C 
BRANCH   9  10
ATOM     10  O   UNL     1      34.861 -24.965 -11.810  0.00  0.00    -0.480 OA
ATOM     11  H   UNL     1      34.396 -25.571 -11.266  0.00  0.00    +0.295 HD
ENDBRANCH   9  10
ENDBRANCH   7   9
ENDBRANCH   2   7
ENDBRANCH   1   2
BRANCH   1  12
ATOM     12  C   UNL     1      35.788 -24.466 -15.283  0.00  0.00    +0.084 C 
BRANCH  12  13
ATOM     13  C   UNL     1      34.454 -23.792 -15.572  0.00  0.00    +0.140 C 
BRANCH  13  14
ATOM     14  N   UNL     1      34.408 -23.430 -16.990  0.00  0.00    -0.239 NA
BRANCH  14  17
ATOM     15  N   UNL     1      32.117 -23.233 -16.707  0.00  0.00    -0.370 N 
ATOM     16  N   UNL     1      32.981 -22.495 -18.682  0.00  0.00    -0.370 N 
ATOM     17  C   UNL     1      33.256 -23.065 -17.459  0.00  0.00    +0.189 C 
ATOM     18  H   UNL     1      32.175 -23.632 -15.808  0.00  0.00    +0.159 HD
ATOM     19  H   UNL     1      31.243 -22.956 -17.066  0.00  0.00    +0.159 HD
ATOM     20  H   UNL     1      33.712 -22.319 -19.319  0.00  0.00    +0.159 HD
ATOM     21  H   UNL     1      32.054 -22.261 -18.920  0.00  0.00    +0.159 HD
ENDBRANCH  14  17
ENDBRANCH  13  14
ENDBRANCH  12  13
ENDBRANCH   1  12
TORSDOF 10
ENDMDL
