MODEL 1
REMARK VINA RESULT:      -6.3      0.000      0.000
REMARK  Name = 428573
REMARK  4 active torsions:
REMARK  status: ('A' for Active; 'I' for Inactive)
REMARK    1  A    between atoms: C_1  and  C_2
REMARK    2  A    between atoms: C_1  and  C_7
REMARK    3  A    between atoms: C_2  and  S_3
REMARK    4  A    between atoms: C_7  and  S_8
REMARK                            x       y       z     vdW  Elec       q    Type
REMARK                         _______ _______ _______ _____ _____    ______ ____
ROOT
ATOM      1  C   UNL     1      38.315 -24.874 -13.255  0.00  0.00    +0.052 C 
ENDROOT
BRANCH   1   2
ATOM      2  C   UNL     1      38.821 -25.938 -14.214  0.00  0.00    +0.160 C 
BRANCH   2   3
ATOM      3  S   UNL     1      40.565 -25.806 -14.459  0.00  0.00    +0.023 S 
ATOM      4  O   UNL     1      40.569 -26.024 -16.076  0.00  0.00    -0.069 OA
ATOM      5  O   UNL     1      41.216 -26.942 -13.833  0.00  0.00    -0.069 OA
ATOM      6  O   UNL     1      40.975 -24.443 -14.172  0.00  0.00    -0.069 OA
ENDBRANCH   2   3
ENDBRANCH   1   2
BRANCH   1   7
ATOM      7  C   UNL     1      37.404 -25.475 -12.197  0.00  0.00    +0.160 C 
BRANCH   7   8
ATOM      8  S   UNL     1      36.242 -24.287 -11.600  0.00  0.00    +0.023 S 
ATOM      9  O   UNL     1      37.307 -23.308 -10.847  0.00  0.00    -0.069 OA
ATOM     10  O   UNL     1      35.399 -24.916 -10.600  0.00  0.00    -0.069 OA
ATOM     11  O   UNL     1      35.676 -23.577 -12.733  0.00  0.00    -0.069 OA
ENDBRANCH   7   8
ENDBRANCH   1   7
TORSDOF 4
ENDMDL
MODEL 2
REMARK VINA RESULT:      -6.3      0.399      5.360
REMARK  Name = 428573
REMARK  4 active torsions:
REMARK  status: ('A' for Active; 'I' for Inactive)
REMARK    1  A    between atoms: C_1  and  C_2
REMARK    2  A    between atoms: C_1  and  C_7
REMARK    3  A    between atoms: C_2  and  S_3
REMARK    4  A    between atoms: C_7  and  S_8
REMARK                            x       y       z     vdW  Elec       q    Type
REMARK                         _______ _______ _______ _____ _____    ______ ____
ROOT
ATOM      1  C   UNL     1      38.400 -25.653 -12.825  0.00  0.00    +0.052 C 
ENDROOT
BRANCH   1   2
ATOM      2  C   UNL     1      36.895 -25.768 -12.654  0.00  0.00    +0.160 C 
BRANCH   2   3
ATOM      3  S   UNL     1      36.271 -24.508 -11.586  0.00  0.00    +0.023 S 
ATOM      4  O   UNL     1      35.424 -23.679 -12.706  0.00  0.00    -0.069 OA
ATOM      5  O   UNL     1      37.378 -23.684 -11.134  0.00  0.00    -0.069 OA
ATOM      6  O   UNL     1      35.340 -25.108 -10.648  0.00  0.00    -0.069 OA
ENDBRANCH   2   3
ENDBRANCH   1   2
BRANCH   1   7
ATOM      7  C   UNL     1      38.816 -25.949 -14.256  0.00  0.00    +0.160 C 
BRANCH   7   8
ATOM      8  S   UNL     1      40.563 -25.806 -14.460  0.00  0.00    +0.023 S 
ATOM      9  O   UNL     1      40.608 -26.038 -16.075  0.00  0.00    -0.069 OA
ATOM     10  O   UNL     1      41.207 -26.932 -13.809  0.00  0.00    -0.069 OA
ATOM     11  O   UNL     1      40.957 -24.438 -14.176  0.00  0.00    -0.069 OA
ENDBRANCH   7   8
ENDBRANCH   1   7
TORSDOF 4
ENDMDL
MODEL 3
REMARK VINA RESULT:      -6.3      0.727      5.174
REMARK  Name = 428573
REMARK  4 active torsions:
REMARK  status: ('A' for Active; 'I' for Inactive)
REMARK    1  A    between atoms: C_1  and  C_2
REMARK    2  A    between atoms: C_1  and  C_7
REMARK    3  A    between atoms: C_2  and  S_3
REMARK    4  A    between atoms: C_7  and  S_8
REMARK                            x       y       z     vdW  Elec       q    Type
REMARK                         _______ _______ _______ _____ _____    ______ ____
ROOT
ATOM      1  C   UNL     1      38.048 -25.118 -13.712  0.00  0.00    +0.052 C 
ENDROOT
BRANCH   1   2
ATOM      2  C   UNL     1      37.626 -25.258 -12.259  0.00  0.00    +0.160 C 
BRANCH   2   3
ATOM      3  S   UNL     1      37.012 -23.731 -11.619  0.00  0.00    +0.023 S 
ATOM      4  O   UNL     1      38.425 -22.916 -11.622  0.00  0.00    -0.069 OA
ATOM      5  O   UNL     1      36.592 -23.932 -10.244  0.00  0.00    -0.069 OA
ATOM      6  O   UNL     1      36.128 -23.134 -12.603  0.00  0.00    -0.069 OA
ENDBRANCH   2   3
ENDBRANCH   1   2
BRANCH   1   7
ATOM      7  C   UNL     1      38.863 -26.318 -14.166  0.00  0.00    +0.160 C 
BRANCH   7   8
ATOM      8  S   UNL     1      40.494 -25.842 -14.645  0.00  0.00    +0.023 S 
ATOM      9  O   UNL     1      41.300 -27.017 -13.851  0.00  0.00    -0.069 OA
ATOM     10  O   UNL     1      40.810 -24.564 -14.034  0.00  0.00    -0.069 OA
ATOM     11  O   UNL     1      40.644 -26.058 -16.073  0.00  0.00    -0.069 OA
ENDBRANCH   7   8
ENDBRANCH   1   7
TORSDOF 4
ENDMDL
MODEL 4
REMARK VINA RESULT:      -6.2      0.836      1.688
REMARK  Name = 428573
REMARK  4 active torsions:
REMARK  status: ('A' for Active; 'I' for Inactive)
REMARK    1  A    between atoms: C_1  and  C_2
REMARK    2  A    between atoms: C_1  and  C_7
REMARK    3  A    between atoms: C_2  and  S_3
REMARK    4  A    between atoms: C_7  and  S_8
REMARK                            x       y       z     vdW  Elec       q    Type
REMARK                         _______ _______ _______ _____ _____    ______ ____
ROOT
ATOM      1  C   UNL     1      38.304 -25.285 -12.757  0.00  0.00    +0.052 C 
ENDROOT
BRANCH   1   2
ATOM      2  C   UNL     1      38.672 -25.993 -14.051  0.00  0.00    +0.160 C 
BRANCH   2   3
ATOM      3  S   UNL     1      40.026 -25.196 -14.857  0.00  0.00    +0.023 S 
ATOM      4  O   UNL     1      39.182 -23.969 -15.524  0.00  0.00    -0.069 OA
ATOM      5  O   UNL     1      40.515 -26.057 -15.918  0.00  0.00    -0.069 OA
ATOM      6  O   UNL     1      40.917 -24.653 -13.848  0.00  0.00    -0.069 OA
ENDBRANCH   2   3
ENDBRANCH   1   2
BRANCH   1   7
ATOM      7  C   UNL     1      36.855 -25.546 -12.380  0.00  0.00    +0.160 C 
BRANCH   7   8
ATOM      8  S   UNL     1      36.158 -24.171 -11.521  0.00  0.00    +0.023 S 
ATOM      9  O   UNL     1      35.414 -25.015 -10.339  0.00  0.00    -0.069 OA
ATOM     10  O   UNL     1      35.147 -23.555 -12.360  0.00  0.00    -0.069 OA
ATOM     11  O   UNL     1      37.232 -23.394 -10.931  0.00  0.00    -0.069 OA
ENDBRANCH   7   8
ENDBRANCH   1   7
TORSDOF 4
ENDMDL
MODEL 5
REMARK VINA RESULT:      -6.1      2.585      4.866
REMARK  Name = 428573
REMARK  4 active torsions:
REMARK  status: ('A' for Active; 'I' for Inactive)
REMARK    1  A    between atoms: C_1  and  C_2
REMARK    2  A    between atoms: C_1  and  C_7
REMARK    3  A    between atoms: C_2  and  S_3
REMARK    4  A    between atoms: C_7  and  S_8
REMARK                            x       y       z     vdW  Elec       q    Type
REMARK                         _______ _______ _______ _____ _____    ______ ____
ROOT
ATOM      1  C   UNL     1      36.503 -24.098 -13.798  0.00  0.00    +0.052 C 
ENDROOT
BRANCH   1   2
ATOM      2  C   UNL     1      35.698 -24.050 -12.510  0.00  0.00    +0.160 C 
BRANCH   2   3
ATOM      3  S   UNL     1      36.734 -23.739 -11.115  0.00  0.00    +0.023 S 
ATOM      4  O   UNL     1      37.894 -24.832 -11.463  0.00  0.00    -0.069 OA
ATOM      5  O   UNL     1      36.041 -24.161  -9.911  0.00  0.00    -0.069 OA
ATOM      6  O   UNL     1      37.297 -22.407 -11.239  0.00  0.00    -0.069 OA
ENDBRANCH   2   3
ENDBRANCH   1   2
BRANCH   1   7
ATOM      7  C   UNL     1      35.966 -25.159 -14.744  0.00  0.00    +0.160 C 
BRANCH   7   8
ATOM      8  S   UNL     1      37.085 -26.516 -14.890  0.00  0.00    +0.023 S 
ATOM      9  O   UNL     1      38.448 -25.646 -15.106  0.00  0.00    -0.069 OA
ATOM     10  O   UNL     1      36.793 -27.237 -16.116  0.00  0.00    -0.069 OA
ATOM     11  O   UNL     1      37.165 -27.196 -13.610  0.00  0.00    -0.069 OA
ENDBRANCH   7   8
ENDBRANCH   1   7
TORSDOF 4
ENDMDL
MODEL 6
REMARK VINA RESULT:      -6.0      2.485      2.764
REMARK  Name = 428573
REMARK  4 active torsions:
REMARK  status: ('A' for Active; 'I' for Inactive)
REMARK    1  A    between atoms: C_1  and  C_2
REMARK    2  A    between atoms: C_1  and  C_7
REMARK    3  A    between atoms: C_2  and  S_3
REMARK    4  A    between atoms: C_7  and  S_8
REMARK                            x       y       z     vdW  Elec       q    Type
REMARK                         _______ _______ _______ _____ _____    ______ ____
ROOT
ATOM      1  C   UNL     1      36.745 -23.948 -13.933  0.00  0.00    +0.052 C 
ENDROOT
BRANCH   1   2
ATOM      2  C   UNL     1      36.290 -25.053 -14.871  0.00  0.00    +0.160 C 
BRANCH   2   3
ATOM      3  S   UNL     1      37.388 -26.435 -14.817  0.00  0.00    +0.023 S 
ATOM      4  O   UNL     1      36.762 -27.253 -16.081  0.00  0.00    -0.069 OA
ATOM      5  O   UNL     1      37.136 -27.189 -13.602  0.00  0.00    -0.069 OA
ATOM      6  O   UNL     1      38.722 -25.985 -15.168  0.00  0.00    -0.069 OA
ENDBRANCH   2   3
ENDBRANCH   1   2
BRANCH   1   7
ATOM      7  C   UNL     1      35.821 -23.829 -12.733  0.00  0.00    +0.160 C 
BRANCH   7   8
ATOM      8  S   UNL     1      36.714 -23.977 -11.217  0.00  0.00    +0.023 S 
ATOM      9  O   UNL     1      37.205 -22.425 -11.107  0.00  0.00    -0.069 OA
ATOM     10  O   UNL     1      37.876 -24.819 -11.436  0.00  0.00    -0.069 OA
ATOM     11  O   UNL     1      35.774 -24.244 -10.144  0.00  0.00    -0.069 OA
ENDBRANCH   7   8
ENDBRANCH   1   7
TORSDOF 4
ENDMDL
MODEL 7
REMARK VINA RESULT:      -6.0      2.485      3.037
REMARK  Name = 428573
REMARK  4 active torsions:
REMARK  status: ('A' for Active; 'I' for Inactive)
REMARK    1  A    between atoms: C_1  and  C_2
REMARK    2  A    between atoms: C_1  and  C_7
REMARK    3  A    between atoms: C_2  and  S_3
REMARK    4  A    between atoms: C_7  and  S_8
REMARK                            x       y       z     vdW  Elec       q    Type
REMARK                         _______ _______ _______ _____ _____    ______ ____
ROOT
ATOM      1  C   UNL     1      35.876 -24.577 -13.821  0.00  0.00    +0.052 C 
ENDROOT
BRANCH   1   2
ATOM      2  C   UNL     1      36.818 -24.903 -14.967  0.00  0.00    +0.160 C 
BRANCH   2   3
ATOM      3  S   UNL     1      37.323 -26.594 -14.923  0.00  0.00    +0.023 S 
ATOM      4  O   UNL     1      38.918 -26.346 -15.157  0.00  0.00    -0.069 OA
ATOM      5  O   UNL     1      36.782 -27.277 -16.084  0.00  0.00    -0.069 OA
ATOM      6  O   UNL     1      37.124 -27.107 -13.580  0.00  0.00    -0.069 OA
ENDBRANCH   2   3
ENDBRANCH   1   2
BRANCH   1   7
ATOM      7  C   UNL     1      36.408 -23.427 -12.981  0.00  0.00    +0.160 C 
BRANCH   7   8
ATOM      8  S   UNL     1      36.978 -23.990 -11.408  0.00  0.00    +0.023 S 
ATOM      9  O   UNL     1      35.761 -25.031 -11.101  0.00  0.00    -0.069 OA
ATOM     10  O   UNL     1      36.904 -22.892 -10.461  0.00  0.00    -0.069 OA
ATOM     11  O   UNL     1      38.202 -24.747 -11.598  0.00  0.00    -0.069 OA
ENDBRANCH   7   8
ENDBRANCH   1   7
TORSDOF 4
ENDMDL
MODEL 8
REMARK VINA RESULT:      -5.7      2.586      4.808
REMARK  Name = 428573
REMARK  4 active torsions:
REMARK  status: ('A' for Active; 'I' for Inactive)
REMARK    1  A    between atoms: C_1  and  C_2
REMARK    2  A    between atoms: C_1  and  C_7
REMARK    3  A    between atoms: C_2  and  S_3
REMARK    4  A    between atoms: C_7  and  S_8
REMARK                            x       y       z     vdW  Elec       q    Type
REMARK                         _______ _______ _______ _____ _____    ______ ____
ROOT
ATOM      1  C   UNL     1      37.387 -25.966 -13.017  0.00  0.00    +0.052 C 
ENDROOT
BRANCH   1   2
ATOM      2  C   UNL     1      36.258 -24.990 -13.300  0.00  0.00    +0.160 C 
BRANCH   2   3
ATOM      3  S   UNL     1      35.828 -24.983 -15.012  0.00  0.00    +0.023 S 
ATOM      4  O   UNL     1      34.287 -24.475 -14.842  0.00  0.00    -0.069 OA
ATOM      5  O   UNL     1      35.817 -26.350 -15.500  0.00  0.00    -0.069 OA
ATOM      6  O   UNL     1      36.589 -23.945 -15.681  0.00  0.00    -0.069 OA
ENDBRANCH   2   3
ENDBRANCH   1   2
BRANCH   1   7
ATOM      7  C   UNL     1      38.725 -25.250 -12.929  0.00  0.00    +0.160 C 
BRANCH   7   8
ATOM      8  S   UNL     1      39.783 -25.698 -14.269  0.00  0.00    +0.023 S 
ATOM      9  O   UNL     1      38.848 -26.882 -14.891  0.00  0.00    -0.069 OA
ATOM     10  O   UNL     1      40.994 -26.293 -13.734  0.00  0.00    -0.069 OA
ATOM     11  O   UNL     1      39.831 -24.598 -15.214  0.00  0.00    -0.069 OA
ENDBRANCH   7   8
ENDBRANCH   1   7
TORSDOF 4
ENDMDL
MODEL 9
REMARK VINA RESULT:      -5.7      7.671      9.617
REMARK  Name = 428573
REMARK  4 active torsions:
REMARK  status: ('A' for Active; 'I' for Inactive)
REMARK    1  A    between atoms: C_1  and  C_2
REMARK    2  A    between atoms: C_1  and  C_7
REMARK    3  A    between atoms: C_2  and  S_3
REMARK    4  A    between atoms: C_7  and  S_8
REMARK                            x       y       z     vdW  Elec       q    Type
REMARK                         _______ _______ _______ _____ _____    ______ ____
ROOT
ATOM      1  C   UNL     1      30.107 -22.538 -15.124  0.00  0.00    +0.052 C 
ENDROOT
BRANCH   1   2
ATOM      2  C   UNL     1      31.438 -23.146 -14.714  0.00  0.00    +0.160 C 
BRANCH   2   3
ATOM      3  S   UNL     1      31.209 -24.561 -13.683  0.00  0.00    +0.023 S 
ATOM      4  O   UNL     1      32.774 -24.790 -13.285  0.00  0.00    -0.069 OA
ATOM      5  O   UNL     1      30.768 -25.674 -14.504  0.00  0.00    -0.069 OA
ATOM      6  O   UNL     1      30.480 -24.159 -12.494  0.00  0.00    -0.069 OA
ENDBRANCH   2   3
ENDBRANCH   1   2
BRANCH   1   7
ATOM      7  C   UNL     1      29.778 -22.859 -16.572  0.00  0.00    +0.160 C 
BRANCH   7   8
ATOM      8  S   UNL     1      28.034 -22.893 -16.843  0.00  0.00    +0.023 S 
ATOM      9  O   UNL     1      27.586 -23.199 -15.305  0.00  0.00    -0.069 OA
ATOM     10  O   UNL     1      27.707 -24.045 -17.663  0.00  0.00    -0.069 OA
ATOM     11  O   UNL     1      27.591 -21.557 -17.200  0.00  0.00    -0.069 OA
ENDBRANCH   7   8
ENDBRANCH   1   7
TORSDOF 4
ENDMDL
