MODEL 1
REMARK VINA RESULT:      -7.4      0.000      0.000
REMARK  Name = 446611
REMARK  5 active torsions:
REMARK  status: ('A' for Active; 'I' for Inactive)
REMARK    1  A    between atoms: C_1  and  C_11
REMARK    2  A    between atoms: C_2  and  O_7
REMARK    3  A    between atoms: C_5  and  O_9
REMARK    4  A    between atoms: C_12  and  C_14
REMARK    5  A    between atoms: C_14  and  O_15
REMARK                            x       y       z     vdW  Elec       q    Type
REMARK                         _______ _______ _______ _____ _____    ______ ____
ROOT
ATOM      1  C   UNL     1      34.719 -19.896 -20.976  0.00  0.00    +0.034 C 
ATOM      2  C   UNL     1      33.552 -20.466 -20.468  0.00  0.00    +0.137 C 
ATOM      3  C   UNL     1      35.963 -20.306 -20.492  0.00  0.00    +0.006 C 
ATOM      4  C   UNL     1      33.627 -21.446 -19.479  0.00  0.00    +0.073 C 
ATOM      5  C   UNL     1      34.870 -21.855 -18.996  0.00  0.00    +0.137 C 
ATOM      6  C   UNL     1      36.037 -21.285 -19.502  0.00  0.00    +0.037 C 
ENDROOT
BRANCH   2   7
ATOM      7  O   UNL     1      32.325 -20.083 -20.922  0.00  0.00    -0.505 OA
ATOM      8  H   UNL     1      31.886 -20.593 -21.575  0.00  0.00    +0.292 HD
ENDBRANCH   2   7
BRANCH   5   9
ATOM      9  O   UNL     1      34.943 -22.811 -18.030  0.00  0.00    -0.505 OA
ATOM     10  H   UNL     1      34.638 -22.627 -17.163  0.00  0.00    +0.292 HD
ENDBRANCH   5   9
BRANCH   1  11
ATOM     11  C   UNL     1      34.669 -18.871 -22.009  0.00  0.00    +0.010 C 
ATOM     12  C   UNL     1      34.950 -19.066 -23.315  0.00  0.00    +0.082 C 
BRANCH  12  14
ATOM     13  O   UNL     1      34.288 -17.961 -25.351  0.00  0.00    -0.245 OA
ATOM     14  C   UNL     1      34.851 -17.944 -24.269  0.00  0.00    +0.338 C 
BRANCH  14  15
ATOM     15  O   UNL     1      35.491 -16.872 -23.746  0.00  0.00    -0.477 OA
ATOM     16  H   UNL     1      35.001 -16.124 -23.468  0.00  0.00    +0.295 HD
ENDBRANCH  14  15
ENDBRANCH  12  14
ENDBRANCH   1  11
TORSDOF 5
ENDMDL
MODEL 2
REMARK VINA RESULT:      -7.4      1.271      1.953
REMARK  Name = 446611
REMARK  5 active torsions:
REMARK  status: ('A' for Active; 'I' for Inactive)
REMARK    1  A    between atoms: C_1  and  C_11
REMARK    2  A    between atoms: C_2  and  O_7
REMARK    3  A    between atoms: C_5  and  O_9
REMARK    4  A    between atoms: C_12  and  C_14
REMARK    5  A    between atoms: C_14  and  O_15
REMARK                            x       y       z     vdW  Elec       q    Type
REMARK                         _______ _______ _______ _____ _____    ______ ____
ROOT
ATOM      1  C   UNL     1      34.735 -19.523 -21.138  0.00  0.00    +0.034 C 
ATOM      2  C   UNL     1      35.910 -20.004 -20.561  0.00  0.00    +0.137 C 
ATOM      3  C   UNL     1      33.507 -20.093 -20.797  0.00  0.00    +0.006 C 
ATOM      4  C   UNL     1      35.858 -21.053 -19.644  0.00  0.00    +0.073 C 
ATOM      5  C   UNL     1      34.631 -21.622 -19.303  0.00  0.00    +0.137 C 
ATOM      6  C   UNL     1      33.456 -21.142 -19.881  0.00  0.00    +0.037 C 
ENDROOT
BRANCH   2   7
ATOM      7  O   UNL     1      37.122 -19.466 -20.877  0.00  0.00    -0.505 OA
ATOM      8  H   UNL     1      37.829 -20.023 -21.137  0.00  0.00    +0.292 HD
ENDBRANCH   2   7
BRANCH   5   9
ATOM      9  O   UNL     1      34.581 -22.646 -18.409  0.00  0.00    -0.505 OA
ATOM     10  H   UNL     1      35.295 -23.249 -18.345  0.00  0.00    +0.292 HD
ENDBRANCH   5   9
BRANCH   1  11
ATOM     11  C   UNL     1      34.761 -18.429 -22.098  0.00  0.00    +0.010 C 
ATOM     12  C   UNL     1      34.980 -18.560 -23.424  0.00  0.00    +0.082 C 
BRANCH  12  14
ATOM     13  O   UNL     1      34.460 -17.284 -25.401  0.00  0.00    -0.245 OA
ATOM     14  C   UNL     1      34.971 -17.368 -24.296  0.00  0.00    +0.338 C 
BRANCH  14  15
ATOM     15  O   UNL     1      35.627 -16.365 -23.668  0.00  0.00    -0.477 OA
ATOM     16  H   UNL     1      36.026 -16.517 -22.834  0.00  0.00    +0.295 HD
ENDBRANCH  14  15
ENDBRANCH  12  14
ENDBRANCH   1  11
TORSDOF 5
ENDMDL
MODEL 3
REMARK VINA RESULT:      -7.3      7.991      8.819
REMARK  Name = 446611
REMARK  5 active torsions:
REMARK  status: ('A' for Active; 'I' for Inactive)
REMARK    1  A    between atoms: C_1  and  C_11
REMARK    2  A    between atoms: C_2  and  O_7
REMARK    3  A    between atoms: C_5  and  O_9
REMARK    4  A    between atoms: C_12  and  C_14
REMARK    5  A    between atoms: C_14  and  O_15
REMARK                            x       y       z     vdW  Elec       q    Type
REMARK                         _______ _______ _______ _____ _____    ______ ____
ROOT
ATOM      1  C   UNL     1      30.489 -23.850 -15.438  0.00  0.00    +0.034 C 
ATOM      2  C   UNL     1      30.358 -24.827 -14.452  0.00  0.00    +0.137 C 
ATOM      3  C   UNL     1      31.696 -23.166 -15.587  0.00  0.00    +0.006 C 
ATOM      4  C   UNL     1      31.434 -25.122 -13.615  0.00  0.00    +0.073 C 
ATOM      5  C   UNL     1      32.641 -24.439 -13.763  0.00  0.00    +0.137 C 
ATOM      6  C   UNL     1      32.771 -23.461 -14.749  0.00  0.00    +0.037 C 
ENDROOT
BRANCH   2   7
ATOM      7  O   UNL     1      29.190 -25.510 -14.285  0.00  0.00    -0.505 OA
ATOM      8  H   UNL     1      29.004 -26.259 -14.817  0.00  0.00    +0.292 HD
ENDBRANCH   2   7
BRANCH   5   9
ATOM      9  O   UNL     1      33.691 -24.725 -12.946  0.00  0.00    -0.505 OA
ATOM     10  H   UNL     1      33.573 -24.735 -12.017  0.00  0.00    +0.292 HD
ENDBRANCH   5   9
BRANCH   1  11
ATOM     11  C   UNL     1      29.381 -23.524 -16.325  0.00  0.00    +0.010 C 
ATOM     12  C   UNL     1      28.524 -22.494 -16.157  0.00  0.00    +0.082 C 
BRANCH  12  14
ATOM     13  O   UNL     1      26.797 -21.237 -17.272  0.00  0.00    -0.245 OA
ATOM     14  C   UNL     1      27.444 -22.262 -17.137  0.00  0.00    +0.338 C 
BRANCH  14  15
ATOM     15  O   UNL     1      27.282 -23.384 -17.877  0.00  0.00    -0.477 OA
ATOM     16  H   UNL     1      27.970 -24.018 -17.923  0.00  0.00    +0.295 HD
ENDBRANCH  14  15
ENDBRANCH  12  14
ENDBRANCH   1  11
TORSDOF 5
ENDMDL
MODEL 4
REMARK VINA RESULT:      -7.2      1.526      5.811
REMARK  Name = 446611
REMARK  5 active torsions:
REMARK  status: ('A' for Active; 'I' for Inactive)
REMARK    1  A    between atoms: C_1  and  C_11
REMARK    2  A    between atoms: C_2  and  O_7
REMARK    3  A    between atoms: C_5  and  O_9
REMARK    4  A    between atoms: C_12  and  C_14
REMARK    5  A    between atoms: C_14  and  O_15
REMARK                            x       y       z     vdW  Elec       q    Type
REMARK                         _______ _______ _______ _____ _____    ______ ____
ROOT
ATOM      1  C   UNL     1      34.721 -18.694 -22.596  0.00  0.00    +0.034 C 
ATOM      2  C   UNL     1      34.892 -17.318 -22.438  0.00  0.00    +0.137 C 
ATOM      3  C   UNL     1      34.540 -19.232 -23.871  0.00  0.00    +0.006 C 
ATOM      4  C   UNL     1      34.883 -16.482 -23.554  0.00  0.00    +0.073 C 
ATOM      5  C   UNL     1      34.702 -17.020 -24.828  0.00  0.00    +0.137 C 
ATOM      6  C   UNL     1      34.529 -18.395 -24.986  0.00  0.00    +0.037 C 
ENDROOT
BRANCH   2   7
ATOM      7  O   UNL     1      35.072 -16.767 -21.204  0.00  0.00    -0.505 OA
ATOM      8  H   UNL     1      35.073 -17.312 -20.442  0.00  0.00    +0.292 HD
ENDBRANCH   2   7
BRANCH   5   9
ATOM      9  O   UNL     1      34.692 -16.204 -25.917  0.00  0.00    -0.505 OA
ATOM     10  H   UNL     1      34.409 -15.314 -25.834  0.00  0.00    +0.292 HD
ENDBRANCH   5   9
BRANCH   1  11
ATOM     11  C   UNL     1      34.728 -19.589 -21.447  0.00  0.00    +0.010 C 
ATOM     12  C   UNL     1      33.630 -20.113 -20.861  0.00  0.00    +0.082 C 
BRANCH  12  14
ATOM     13  O   UNL     1      34.806 -21.523 -19.302  0.00  0.00    -0.245 OA
ATOM     14  C   UNL     1      33.771 -21.021 -19.705  0.00  0.00    +0.338 C 
BRANCH  14  15
ATOM     15  O   UNL     1      32.551 -21.210 -19.151  0.00  0.00    -0.477 OA
ATOM     16  H   UNL     1      31.873 -21.628 -19.643  0.00  0.00    +0.295 HD
ENDBRANCH  14  15
ENDBRANCH  12  14
ENDBRANCH   1  11
TORSDOF 5
ENDMDL
MODEL 5
REMARK VINA RESULT:      -7.0      8.995     10.402
REMARK  Name = 446611
REMARK  5 active torsions:
REMARK  status: ('A' for Active; 'I' for Inactive)
REMARK    1  A    between atoms: C_1  and  C_11
REMARK    2  A    between atoms: C_2  and  O_7
REMARK    3  A    between atoms: C_5  and  O_9
REMARK    4  A    between atoms: C_12  and  C_14
REMARK    5  A    between atoms: C_14  and  O_15
REMARK                            x       y       z     vdW  Elec       q    Type
REMARK                         _______ _______ _______ _____ _____    ______ ____
ROOT
ATOM      1  C   UNL     1      36.738 -25.313 -13.786  0.00  0.00    +0.034 C 
ATOM      2  C   UNL     1      36.401 -24.994 -12.471  0.00  0.00    +0.137 C 
ATOM      3  C   UNL     1      35.847 -25.028 -14.823  0.00  0.00    +0.006 C 
ATOM      4  C   UNL     1      35.176 -24.391 -12.191  0.00  0.00    +0.073 C 
ATOM      5  C   UNL     1      34.286 -24.106 -13.226  0.00  0.00    +0.137 C 
ATOM      6  C   UNL     1      34.621 -24.426 -14.542  0.00  0.00    +0.037 C 
ENDROOT
BRANCH   2   7
ATOM      7  O   UNL     1      37.253 -25.262 -11.440  0.00  0.00    -0.505 OA
ATOM      8  H   UNL     1      36.948 -25.735 -10.691  0.00  0.00    +0.292 HD
ENDBRANCH   2   7
BRANCH   5   9
ATOM      9  O   UNL     1      33.089 -23.518 -12.953  0.00  0.00    -0.505 OA
ATOM     10  H   UNL     1      32.300 -23.868 -13.318  0.00  0.00    +0.292 HD
ENDBRANCH   5   9
BRANCH   1  11
ATOM     11  C   UNL     1      38.012 -25.942 -14.106  0.00  0.00    +0.010 C 
ATOM     12  C   UNL     1      39.137 -25.288 -14.464  0.00  0.00    +0.082 C 
BRANCH  12  14
ATOM     13  O   UNL     1      41.084 -26.605 -13.938  0.00  0.00    -0.245 OA
ATOM     14  C   UNL     1      40.372 -26.044 -14.753  0.00  0.00    +0.338 C 
BRANCH  14  15
ATOM     15  O   UNL     1      40.594 -26.019 -16.088  0.00  0.00    -0.477 OA
ATOM     16  H   UNL     1      41.468 -26.071 -16.419  0.00  0.00    +0.295 HD
ENDBRANCH  14  15
ENDBRANCH  12  14
ENDBRANCH   1  11
TORSDOF 5
ENDMDL
MODEL 6
REMARK VINA RESULT:      -7.0      1.669      5.672
REMARK  Name = 446611
REMARK  5 active torsions:
REMARK  status: ('A' for Active; 'I' for Inactive)
REMARK    1  A    between atoms: C_1  and  C_11
REMARK    2  A    between atoms: C_2  and  O_7
REMARK    3  A    between atoms: C_5  and  O_9
REMARK    4  A    between atoms: C_12  and  C_14
REMARK    5  A    between atoms: C_14  and  O_15
REMARK                            x       y       z     vdW  Elec       q    Type
REMARK                         _______ _______ _______ _____ _____    ______ ____
ROOT
ATOM      1  C   UNL     1      35.323 -18.522 -22.039  0.00  0.00    +0.034 C 
ATOM      2  C   UNL     1      35.102 -17.175 -21.753  0.00  0.00    +0.137 C 
ATOM      3  C   UNL     1      35.154 -18.994 -23.342  0.00  0.00    +0.006 C 
ATOM      4  C   UNL     1      34.713 -16.300 -22.767  0.00  0.00    +0.073 C 
ATOM      5  C   UNL     1      34.545 -16.772 -24.068  0.00  0.00    +0.137 C 
ATOM      6  C   UNL     1      34.764 -18.119 -24.355  0.00  0.00    +0.037 C 
ENDROOT
BRANCH   2   7
ATOM      7  O   UNL     1      35.260 -16.687 -20.489  0.00  0.00    -0.505 OA
ATOM      8  H   UNL     1      34.537 -16.285 -20.048  0.00  0.00    +0.292 HD
ENDBRANCH   2   7
BRANCH   5   9
ATOM      9  O   UNL     1      34.165 -15.919 -25.058  0.00  0.00    -0.505 OA
ATOM     10  H   UNL     1      33.632 -15.174 -24.857  0.00  0.00    +0.292 HD
ENDBRANCH   5   9
BRANCH   1  11
ATOM     11  C   UNL     1      35.729 -19.456 -20.999  0.00  0.00    +0.010 C 
ATOM     12  C   UNL     1      34.976 -20.470 -20.523  0.00  0.00    +0.082 C 
BRANCH  12  14
ATOM     13  O   UNL     1      35.089 -22.463 -19.175  0.00  0.00    -0.245 OA
ATOM     14  C   UNL     1      35.509 -21.357 -19.470  0.00  0.00    +0.338 C 
BRANCH  14  15
ATOM     15  O   UNL     1      36.557 -20.742 -18.874  0.00  0.00    -0.477 OA
ATOM     16  H   UNL     1      36.809 -20.983 -18.005  0.00  0.00    +0.295 HD
ENDBRANCH  14  15
ENDBRANCH  12  14
ENDBRANCH   1  11
TORSDOF 5
ENDMDL
MODEL 7
REMARK VINA RESULT:      -6.9      7.198      8.893
REMARK  Name = 446611
REMARK  5 active torsions:
REMARK  status: ('A' for Active; 'I' for Inactive)
REMARK    1  A    between atoms: C_1  and  C_11
REMARK    2  A    between atoms: C_2  and  O_7
REMARK    3  A    between atoms: C_5  and  O_9
REMARK    4  A    between atoms: C_12  and  C_14
REMARK    5  A    between atoms: C_14  and  O_15
REMARK                            x       y       z     vdW  Elec       q    Type
REMARK                         _______ _______ _______ _____ _____    ______ ____
ROOT
ATOM      1  C   UNL     1      30.054 -23.547 -15.602  0.00  0.00    +0.034 C 
ATOM      2  C   UNL     1      31.307 -23.217 -16.117  0.00  0.00    +0.137 C 
ATOM      3  C   UNL     1      29.957 -24.303 -14.433  0.00  0.00    +0.006 C 
ATOM      4  C   UNL     1      32.464 -23.641 -15.463  0.00  0.00    +0.073 C 
ATOM      5  C   UNL     1      32.367 -24.397 -14.295  0.00  0.00    +0.137 C 
ATOM      6  C   UNL     1      31.114 -24.728 -13.780  0.00  0.00    +0.037 C 
ENDROOT
BRANCH   2   7
ATOM      7  O   UNL     1      31.430 -22.480 -17.258  0.00  0.00    -0.505 OA
ATOM      8  H   UNL     1      31.796 -22.866 -18.029  0.00  0.00    +0.292 HD
ENDBRANCH   2   7
BRANCH   5   9
ATOM      9  O   UNL     1      33.496 -24.812 -13.657  0.00  0.00    -0.505 OA
ATOM     10  H   UNL     1      34.217 -24.224 -13.551  0.00  0.00    +0.292 HD
ENDBRANCH   5   9
BRANCH   1  11
ATOM     11  C   UNL     1      28.831 -23.116 -16.265  0.00  0.00    +0.010 C 
ATOM     12  C   UNL     1      27.836 -22.411 -15.685  0.00  0.00    +0.082 C 
BRANCH  12  14
ATOM     13  O   UNL     1      26.624 -21.752 -17.659  0.00  0.00    -0.245 OA
ATOM     14  C   UNL     1      26.648 -22.024 -16.471  0.00  0.00    +0.338 C 
BRANCH  14  15
ATOM     15  O   UNL     1      25.569 -22.020 -15.653  0.00  0.00    -0.477 OA
ATOM     16  H   UNL     1      25.669 -21.802 -14.747  0.00  0.00    +0.295 HD
ENDBRANCH  14  15
ENDBRANCH  12  14
ENDBRANCH   1  11
TORSDOF 5
ENDMDL
MODEL 8
REMARK VINA RESULT:      -6.7      3.299      6.217
REMARK  Name = 446611
REMARK  5 active torsions:
REMARK  status: ('A' for Active; 'I' for Inactive)
REMARK    1  A    between atoms: C_1  and  C_11
REMARK    2  A    between atoms: C_2  and  O_7
REMARK    3  A    between atoms: C_5  and  O_9
REMARK    4  A    between atoms: C_12  and  C_14
REMARK    5  A    between atoms: C_14  and  O_15
REMARK                            x       y       z     vdW  Elec       q    Type
REMARK                         _______ _______ _______ _____ _____    ______ ____
ROOT
ATOM      1  C   UNL     1      34.296 -16.347 -21.665  0.00  0.00    +0.034 C 
ATOM      2  C   UNL     1      34.601 -15.692 -22.858  0.00  0.00    +0.137 C 
ATOM      3  C   UNL     1      33.211 -15.924 -20.896  0.00  0.00    +0.006 C 
ATOM      4  C   UNL     1      33.823 -14.615 -23.282  0.00  0.00    +0.073 C 
ATOM      5  C   UNL     1      32.739 -14.193 -22.513  0.00  0.00    +0.137 C 
ATOM      6  C   UNL     1      32.433 -14.847 -21.320  0.00  0.00    +0.037 C 
ENDROOT
BRANCH   2   7
ATOM      7  O   UNL     1      35.656 -16.085 -23.628  0.00  0.00    -0.505 OA
ATOM      8  H   UNL     1      35.841 -16.997 -23.739  0.00  0.00    +0.292 HD
ENDBRANCH   2   7
BRANCH   5   9
ATOM      9  O   UNL     1      31.979 -13.142 -22.927  0.00  0.00    -0.505 OA
ATOM     10  H   UNL     1      31.712 -12.487 -22.313  0.00  0.00    +0.292 HD
ENDBRANCH   5   9
BRANCH   1  11
ATOM     11  C   UNL     1      35.092 -17.474 -21.200  0.00  0.00    +0.010 C 
ATOM     12  C   UNL     1      34.663 -18.751 -21.117  0.00  0.00    +0.082 C 
BRANCH  12  14
ATOM     13  O   UNL     1      35.289 -20.978 -20.445  0.00  0.00    -0.245 OA
ATOM     14  C   UNL     1      35.574 -19.808 -20.637  0.00  0.00    +0.338 C 
BRANCH  14  15
ATOM     15  O   UNL     1      36.800 -19.269 -20.441  0.00  0.00    -0.477 OA
ATOM     16  H   UNL     1      36.894 -18.497 -19.919  0.00  0.00    +0.295 HD
ENDBRANCH  14  15
ENDBRANCH  12  14
ENDBRANCH   1  11
TORSDOF 5
ENDMDL
MODEL 9
REMARK VINA RESULT:      -6.7      1.702      5.648
REMARK  Name = 446611
REMARK  5 active torsions:
REMARK  status: ('A' for Active; 'I' for Inactive)
REMARK    1  A    between atoms: C_1  and  C_11
REMARK    2  A    between atoms: C_2  and  O_7
REMARK    3  A    between atoms: C_5  and  O_9
REMARK    4  A    between atoms: C_12  and  C_14
REMARK    5  A    between atoms: C_14  and  O_15
REMARK                            x       y       z     vdW  Elec       q    Type
REMARK                         _______ _______ _______ _____ _____    ______ ____
ROOT
ATOM      1  C   UNL     1      34.775 -18.513 -21.706  0.00  0.00    +0.034 C 
ATOM      2  C   UNL     1      34.842 -18.458 -23.099  0.00  0.00    +0.137 C 
ATOM      3  C   UNL     1      34.675 -17.334 -20.967  0.00  0.00    +0.006 C 
ATOM      4  C   UNL     1      34.807 -17.226 -23.751  0.00  0.00    +0.073 C 
ATOM      5  C   UNL     1      34.707 -16.048 -23.012  0.00  0.00    +0.137 C 
ATOM      6  C   UNL     1      34.642 -16.102 -21.620  0.00  0.00    +0.037 C 
ENDROOT
BRANCH   2   7
ATOM      7  O   UNL     1      34.940 -19.595 -23.845  0.00  0.00    -0.505 OA
ATOM      8  H   UNL     1      35.607 -20.225 -23.654  0.00  0.00    +0.292 HD
ENDBRANCH   2   7
BRANCH   5   9
ATOM      9  O   UNL     1      34.674 -14.846 -23.648  0.00  0.00    -0.505 OA
ATOM     10  H   UNL     1      34.410 -14.076 -23.184  0.00  0.00    +0.292 HD
ENDBRANCH   5   9
BRANCH   1  11
ATOM     11  C   UNL     1      34.809 -19.786 -21.001  0.00  0.00    +0.010 C 
ATOM     12  C   UNL     1      33.782 -20.319 -20.305  0.00  0.00    +0.082 C 
BRANCH  12  14
ATOM     13  O   UNL     1      34.971 -22.270 -19.542  0.00  0.00    -0.245 OA
ATOM     14  C   UNL     1      33.939 -21.628 -19.640  0.00  0.00    +0.338 C 
BRANCH  14  15
ATOM     15  O   UNL     1      32.739 -22.011 -19.146  0.00  0.00    -0.477 OA
ATOM     16  H   UNL     1      32.414 -22.872 -19.321  0.00  0.00    +0.295 HD
ENDBRANCH  14  15
ENDBRANCH  12  14
ENDBRANCH   1  11
TORSDOF 5
ENDMDL
