MODEL 1
REMARK VINA RESULT:      -6.5      0.000      0.000
REMARK  Name = 102474029
REMARK  9 active torsions:
REMARK  status: ('A' for Active; 'I' for Inactive)
REMARK    1  A    between atoms: C_1  and  N_2
REMARK    2  A    between atoms: C_1  and  C_13
REMARK    3  A    between atoms: N_3  and  C_10
REMARK    4  A    between atoms: C_10  and  C_11
REMARK    5  A    between atoms: C_13  and  C_14
REMARK    6  A    between atoms: C_14  and  C_15
REMARK    7  A    between atoms: C_15  and  N_16
REMARK    8  A    between atoms: C_15  and  C_21
REMARK    9  A    between atoms: C_21  and  O_22
REMARK                            x       y       z     vdW  Elec       q    Type
REMARK                         _______ _______ _______ _____ _____    ______ ____
ROOT
ATOM      1  C   UNK     1      36.574 -24.574 -11.846  0.00  0.00    +0.100 C 
ENDROOT
BRANCH   1   2
ATOM      2  N   UNK     1      35.366 -24.906 -12.560  0.00  0.00    -0.347 N 
ATOM      3  N   UNK     1      35.698 -23.438 -14.368  0.00  0.00    -0.343 N 
ATOM      4  N   UNK     1      33.779 -24.863 -14.196  0.00  0.00    -0.371 N 
ATOM      5  C   UNK     1      34.980 -24.340 -13.765  0.00  0.00    +0.170 C 
ATOM      6  H   UNK     1      34.772 -25.583 -12.164  0.00  0.00    +0.163 HD
ATOM      7  H   UNK     1      36.549 -23.121 -13.985  0.00  0.00    +0.163 HD
ATOM      8  H   UNK     1      33.318 -25.546 -13.657  0.00  0.00    +0.159 HD
ATOM      9  H   UNK     1      33.382 -24.552 -15.042  0.00  0.00    +0.159 HD
BRANCH   3  10
ATOM     10  C   UNK     1      35.193 -22.915 -15.629  0.00  0.00    +0.127 C 
BRANCH  10  11
ATOM     11  C   UNK     1      36.334 -22.432 -16.465  0.00  0.00    -0.002 C 
ATOM     12  C   UNK     1      37.618 -22.535 -16.106  0.00  0.00    -0.003 C 
ENDBRANCH  10  11
ENDBRANCH   3  10
ENDBRANCH   1   2
BRANCH   1  13
ATOM     13  C   UNK     1      37.684 -25.573 -12.167  0.00  0.00    +0.022 C 
BRANCH  13  14
ATOM     14  C   UNK     1      38.744 -24.991 -13.112  0.00  0.00    -0.009 C 
BRANCH  14  15
ATOM     15  C   UNK     1      38.787 -25.687 -14.477  0.00  0.00    +0.036 C 
BRANCH  15  16
ATOM     16  N   UNK     1      37.943 -26.917 -14.434  0.00  0.00    +0.389 N 
ATOM     17  H   UNK     1      37.873 -27.248 -13.472  0.00  0.00    -0.088 HD
ATOM     18  H   UNK     1      38.367 -27.641 -15.013  0.00  0.00    -0.088 HD
ATOM     19  H   UNK     1      37.010 -26.702 -14.787  0.00  0.00    -0.088 HD
ENDBRANCH  15  16
BRANCH  15  21
ATOM     20  O   UNK     1      41.060 -26.440 -14.057  0.00  0.00    -0.253 OA
ATOM     21  C   UNK     1      40.206 -26.059 -14.847  0.00  0.00    +0.293 C 
BRANCH  21  22
ATOM     22  O   UNK     1      40.440 -25.923 -16.178  0.00  0.00    -0.482 OA
ATOM     23  H   UNK     1      41.023 -25.257 -16.486  0.00  0.00    +0.295 HD
ENDBRANCH  21  22
ENDBRANCH  15  21
ENDBRANCH  14  15
ENDBRANCH  13  14
ENDBRANCH   1  13
TORSDOF 9
ENDMDL
MODEL 2
REMARK VINA RESULT:      -6.4      2.604      3.572
REMARK  Name = 102474029
REMARK  9 active torsions:
REMARK  status: ('A' for Active; 'I' for Inactive)
REMARK    1  A    between atoms: C_1  and  N_2
REMARK    2  A    between atoms: C_1  and  C_13
REMARK    3  A    between atoms: N_3  and  C_10
REMARK    4  A    between atoms: C_10  and  C_11
REMARK    5  A    between atoms: C_13  and  C_14
REMARK    6  A    between atoms: C_14  and  C_15
REMARK    7  A    between atoms: C_15  and  N_16
REMARK    8  A    between atoms: C_15  and  C_21
REMARK    9  A    between atoms: C_21  and  O_22
REMARK                            x       y       z     vdW  Elec       q    Type
REMARK                         _______ _______ _______ _____ _____    ______ ____
ROOT
ATOM      1  C   UNK     1      35.563 -23.405 -15.169  0.00  0.00    +0.100 C 
ENDROOT
BRANCH   1   2
ATOM      2  N   UNK     1      36.367 -22.374 -15.780  0.00  0.00    -0.347 N 
ATOM      3  N   UNK     1      35.256 -22.346 -17.852  0.00  0.00    -0.343 N 
ATOM      4  N   UNK     1      37.113 -20.912 -17.361  0.00  0.00    -0.371 N 
ATOM      5  C   UNK     1      36.189 -21.894 -17.068  0.00  0.00    +0.170 C 
ATOM      6  H   UNK     1      37.094 -21.984 -15.244  0.00  0.00    +0.163 HD
ATOM      7  H   UNK     1      34.637 -23.053 -17.558  0.00  0.00    +0.163 HD
ATOM      8  H   UNK     1      37.779 -20.646 -16.687  0.00  0.00    +0.159 HD
ATOM      9  H   UNK     1      37.105 -20.478 -18.245  0.00  0.00    +0.159 HD
BRANCH   3  10
ATOM     10  C   UNK     1      35.165 -21.766 -19.185  0.00  0.00    +0.127 C 
BRANCH  10  11
ATOM     11  C   UNK     1      33.729 -21.576 -19.553  0.00  0.00    -0.002 C 
ATOM     12  C   UNK     1      33.251 -20.483 -20.158  0.00  0.00    -0.003 C 
ENDBRANCH  10  11
ENDBRANCH   3  10
ENDBRANCH   1   2
BRANCH   1  13
ATOM     13  C   UNK     1      36.392 -24.664 -14.926  0.00  0.00    +0.022 C 
BRANCH  13  14
ATOM     14  C   UNK     1      37.894 -24.367 -14.815  0.00  0.00    -0.009 C 
BRANCH  14  15
ATOM     15  C   UNK     1      38.743 -25.618 -14.564  0.00  0.00    +0.036 C 
BRANCH  15  16
ATOM     16  N   UNK     1      38.652 -25.998 -13.124  0.00  0.00    +0.389 N 
ATOM     17  H   UNK     1      39.572 -25.915 -12.691  0.00  0.00    -0.088 HD
ATOM     18  H   UNK     1      38.326 -26.962 -13.046  0.00  0.00    -0.088 HD
ATOM     19  H   UNK     1      37.997 -25.377 -12.649  0.00  0.00    -0.088 HD
ENDBRANCH  15  16
BRANCH  15  21
ATOM     20  O   UNK     1      40.970 -24.682 -14.286  0.00  0.00    -0.253 OA
ATOM     21  C   UNK     1      40.190 -25.370 -14.932  0.00  0.00    +0.293 C 
BRANCH  21  22
ATOM     22  O   UNK     1      40.541 -26.004 -16.080  0.00  0.00    -0.482 OA
ATOM     23  H   UNK     1      41.243 -26.625 -16.077  0.00  0.00    +0.295 HD
ENDBRANCH  21  22
ENDBRANCH  15  21
ENDBRANCH  14  15
ENDBRANCH  13  14
ENDBRANCH   1  13
TORSDOF 9
ENDMDL
MODEL 3
REMARK VINA RESULT:      -6.3     10.711     13.305
REMARK  Name = 102474029
REMARK  9 active torsions:
REMARK  status: ('A' for Active; 'I' for Inactive)
REMARK    1  A    between atoms: C_1  and  N_2
REMARK    2  A    between atoms: C_1  and  C_13
REMARK    3  A    between atoms: N_3  and  C_10
REMARK    4  A    between atoms: C_10  and  C_11
REMARK    5  A    between atoms: C_13  and  C_14
REMARK    6  A    between atoms: C_14  and  C_15
REMARK    7  A    between atoms: C_15  and  N_16
REMARK    8  A    between atoms: C_15  and  C_21
REMARK    9  A    between atoms: C_21  and  O_22
REMARK                            x       y       z     vdW  Elec       q    Type
REMARK                         _______ _______ _______ _____ _____    ______ ____
ROOT
ATOM      1  C   UNK     1      34.538 -15.243 -20.559  0.00  0.00    +0.100 C 
ENDROOT
BRANCH   1   2
ATOM      2  N   UNK     1      34.942 -15.927 -21.763  0.00  0.00    -0.347 N 
ATOM      3  N   UNK     1      35.174 -18.063 -20.807  0.00  0.00    -0.343 N 
ATOM      4  N   UNK     1      35.591 -17.634 -23.128  0.00  0.00    -0.371 N 
ATOM      5  C   UNK     1      35.239 -17.279 -21.842  0.00  0.00    +0.170 C 
ATOM      6  H   UNK     1      35.012 -15.396 -22.589  0.00  0.00    +0.163 HD
ATOM      7  H   UNK     1      34.912 -17.721 -19.921  0.00  0.00    +0.163 HD
ATOM      8  H   UNK     1      35.607 -16.954 -23.840  0.00  0.00    +0.159 HD
ATOM      9  H   UNK     1      35.829 -18.567 -23.332  0.00  0.00    +0.159 HD
BRANCH   3  10
ATOM     10  C   UNK     1      35.509 -19.465 -21.009  0.00  0.00    +0.127 C 
BRANCH  10  11
ATOM     11  C   UNK     1      34.387 -20.324 -20.524  0.00  0.00    -0.002 C 
ATOM     12  C   UNK     1      33.096 -19.980 -20.601  0.00  0.00    -0.003 C 
ENDBRANCH  10  11
ENDBRANCH   3  10
ENDBRANCH   1   2
BRANCH   1  13
ATOM     13  C   UNK     1      33.023 -15.056 -20.526  0.00  0.00    +0.022 C 
BRANCH  13  14
ATOM     14  C   UNK     1      32.456 -14.602 -21.878  0.00  0.00    -0.009 C 
BRANCH  14  15
ATOM     15  C   UNK     1      32.763 -13.136 -22.203  0.00  0.00    +0.036 C 
BRANCH  15  16
ATOM     16  N   UNK     1      31.486 -12.369 -22.293  0.00  0.00    +0.389 N 
ATOM     17  H   UNK     1      31.313 -11.892 -21.408  0.00  0.00    -0.088 HD
ATOM     18  H   UNK     1      30.717 -13.011 -22.489  0.00  0.00    -0.088 HD
ATOM     19  H   UNK     1      31.554 -11.681 -23.042  0.00  0.00    -0.088 HD
ENDBRANCH  15  16
BRANCH  15  21
ATOM     20  O   UNK     1      33.806 -11.968 -24.064  0.00  0.00    -0.253 OA
ATOM     21  C   UNK     1      33.516 -13.021 -23.511  0.00  0.00    +0.293 C 
BRANCH  21  22
ATOM     22  O   UNK     1      33.844 -14.236 -24.019  0.00  0.00    -0.482 OA
ATOM     23  H   UNK     1      33.293 -14.641 -24.661  0.00  0.00    +0.295 HD
ENDBRANCH  21  22
ENDBRANCH  15  21
ENDBRANCH  14  15
ENDBRANCH  13  14
ENDBRANCH   1  13
TORSDOF 9
ENDMDL
MODEL 4
REMARK VINA RESULT:      -6.3      9.996     12.593
REMARK  Name = 102474029
REMARK  9 active torsions:
REMARK  status: ('A' for Active; 'I' for Inactive)
REMARK    1  A    between atoms: C_1  and  N_2
REMARK    2  A    between atoms: C_1  and  C_13
REMARK    3  A    between atoms: N_3  and  C_10
REMARK    4  A    between atoms: C_10  and  C_11
REMARK    5  A    between atoms: C_13  and  C_14
REMARK    6  A    between atoms: C_14  and  C_15
REMARK    7  A    between atoms: C_15  and  N_16
REMARK    8  A    between atoms: C_15  and  C_21
REMARK    9  A    between atoms: C_21  and  O_22
REMARK                            x       y       z     vdW  Elec       q    Type
REMARK                         _______ _______ _______ _____ _____    ______ ____
ROOT
ATOM      1  C   UNK     1      35.001 -19.171 -24.252  0.00  0.00    +0.100 C 
ENDROOT
BRANCH   1   2
ATOM      2  N   UNK     1      35.322 -18.525 -23.003  0.00  0.00    -0.347 N 
ATOM      3  N   UNK     1      33.731 -19.653 -21.689  0.00  0.00    -0.343 N 
ATOM      4  N   UNK     1      35.220 -18.007 -20.785  0.00  0.00    -0.371 N 
ATOM      5  C   UNK     1      34.690 -18.782 -21.796  0.00  0.00    +0.170 C 
ATOM      6  H   UNK     1      36.040 -17.852 -23.007  0.00  0.00    +0.163 HD
ATOM      7  H   UNK     1      33.413 -20.165 -22.468  0.00  0.00    +0.163 HD
ATOM      8  H   UNK     1      35.950 -17.375 -20.980  0.00  0.00    +0.159 HD
ATOM      9  H   UNK     1      34.867 -18.084 -19.869  0.00  0.00    +0.159 HD
BRANCH   3  10
ATOM     10  C   UNK     1      33.141 -19.839 -20.370  0.00  0.00    +0.127 C 
BRANCH  10  11
ATOM     11  C   UNK     1      33.452 -21.213 -19.871  0.00  0.00    -0.002 C 
ATOM     12  C   UNK     1      34.666 -21.603 -19.465  0.00  0.00    -0.003 C 
ENDBRANCH  10  11
ENDBRANCH   3  10
ENDBRANCH   1   2
BRANCH   1  13
ATOM     13  C   UNK     1      34.205 -18.232 -25.157  0.00  0.00    +0.022 C 
BRANCH  13  14
ATOM     14  C   UNK     1      34.767 -16.804 -25.163  0.00  0.00    -0.009 C 
BRANCH  14  15
ATOM     15  C   UNK     1      33.752 -15.751 -24.703  0.00  0.00    +0.036 C 
BRANCH  15  16
ATOM     16  N   UNK     1      33.329 -14.926 -25.872  0.00  0.00    +0.389 N 
ATOM     17  H   UNK     1      32.372 -14.603 -25.731  0.00  0.00    -0.088 HD
ATOM     18  H   UNK     1      33.375 -15.489 -26.721  0.00  0.00    -0.088 HD
ATOM     19  H   UNK     1      33.949 -14.121 -25.962  0.00  0.00    -0.088 HD
ENDBRANCH  15  16
BRANCH  15  21
ATOM     20  O   UNK     1      34.137 -13.655 -23.532  0.00  0.00    -0.253 OA
ATOM     21  C   UNK     1      34.352 -14.855 -23.640  0.00  0.00    +0.293 C 
BRANCH  21  22
ATOM     22  O   UNK     1      35.171 -15.537 -22.800  0.00  0.00    -0.482 OA
ATOM     23  H   UNK     1      34.808 -16.104 -22.147  0.00  0.00    +0.295 HD
ENDBRANCH  21  22
ENDBRANCH  15  21
ENDBRANCH  14  15
ENDBRANCH  13  14
ENDBRANCH   1  13
TORSDOF 9
ENDMDL
MODEL 5
REMARK VINA RESULT:      -6.3      7.021      8.562
REMARK  Name = 102474029
REMARK  9 active torsions:
REMARK  status: ('A' for Active; 'I' for Inactive)
REMARK    1  A    between atoms: C_1  and  N_2
REMARK    2  A    between atoms: C_1  and  C_13
REMARK    3  A    between atoms: N_3  and  C_10
REMARK    4  A    between atoms: C_10  and  C_11
REMARK    5  A    between atoms: C_13  and  C_14
REMARK    6  A    between atoms: C_14  and  C_15
REMARK    7  A    between atoms: C_15  and  N_16
REMARK    8  A    between atoms: C_15  and  C_21
REMARK    9  A    between atoms: C_21  and  O_22
REMARK                            x       y       z     vdW  Elec       q    Type
REMARK                         _______ _______ _______ _____ _____    ______ ____
ROOT
ATOM      1  C   UNK     1      32.492 -23.494 -17.025  0.00  0.00    +0.100 C 
ENDROOT
BRANCH   1   2
ATOM      2  N   UNK     1      32.283 -22.479 -18.028  0.00  0.00    -0.347 N 
ATOM      3  N   UNK     1      34.511 -22.355 -18.769  0.00  0.00    -0.343 N 
ATOM      4  N   UNK     1      32.763 -21.006 -19.700  0.00  0.00    -0.371 N 
ATOM      5  C   UNK     1      33.275 -21.958 -18.844  0.00  0.00    +0.170 C 
ATOM      6  H   UNK     1      31.370 -22.130 -18.142  0.00  0.00    +0.163 HD
ATOM      7  H   UNK     1      34.790 -23.045 -18.123  0.00  0.00    +0.163 HD
ATOM      8  H   UNK     1      31.805 -20.781 -19.670  0.00  0.00    +0.159 HD
ATOM      9  H   UNK     1      33.357 -20.549 -20.339  0.00  0.00    +0.159 HD
BRANCH   3  10
ATOM     10  C   UNK     1      35.468 -21.736 -19.676  0.00  0.00    +0.127 C 
BRANCH  10  11
ATOM     11  C   UNK     1      36.704 -21.363 -18.924  0.00  0.00    -0.002 C 
ATOM     12  C   UNK     1      36.884 -21.597 -17.619  0.00  0.00    -0.003 C 
ENDBRANCH  10  11
ENDBRANCH   3  10
ENDBRANCH   1   2
BRANCH   1  13
ATOM     13  C   UNK     1      31.556 -23.281 -15.837  0.00  0.00    +0.022 C 
BRANCH  13  14
ATOM     14  C   UNK     1      30.305 -22.475 -16.210  0.00  0.00    -0.009 C 
BRANCH  14  15
ATOM     15  C   UNK     1      28.995 -23.198 -15.876  0.00  0.00    +0.036 C 
BRANCH  15  16
ATOM     16  N   UNK     1      29.268 -24.651 -15.676  0.00  0.00    +0.389 N 
ATOM     17  H   UNK     1      29.007 -25.165 -16.517  0.00  0.00    -0.088 HD
ATOM     18  H   UNK     1      28.722 -24.994 -14.885  0.00  0.00    -0.088 HD
ATOM     19  H   UNK     1      30.261 -24.789 -15.489  0.00  0.00    -0.088 HD
ENDBRANCH  15  16
BRANCH  15  21
ATOM     20  O   UNK     1      27.566 -23.918 -17.706  0.00  0.00    -0.253 OA
ATOM     21  C   UNK     1      27.983 -23.020 -16.987  0.00  0.00    +0.293 C 
BRANCH  21  22
ATOM     22  O   UNK     1      27.576 -21.730 -17.105  0.00  0.00    -0.482 OA
ATOM     23  H   UNK     1      26.817 -21.523 -17.614  0.00  0.00    +0.295 HD
ENDBRANCH  21  22
ENDBRANCH  15  21
ENDBRANCH  14  15
ENDBRANCH  13  14
ENDBRANCH   1  13
TORSDOF 9
ENDMDL
MODEL 6
REMARK VINA RESULT:      -6.3      2.252      2.970
REMARK  Name = 102474029
REMARK  9 active torsions:
REMARK  status: ('A' for Active; 'I' for Inactive)
REMARK    1  A    between atoms: C_1  and  N_2
REMARK    2  A    between atoms: C_1  and  C_13
REMARK    3  A    between atoms: N_3  and  C_10
REMARK    4  A    between atoms: C_10  and  C_11
REMARK    5  A    between atoms: C_13  and  C_14
REMARK    6  A    between atoms: C_14  and  C_15
REMARK    7  A    between atoms: C_15  and  N_16
REMARK    8  A    between atoms: C_15  and  C_21
REMARK    9  A    between atoms: C_21  and  O_22
REMARK                            x       y       z     vdW  Elec       q    Type
REMARK                         _______ _______ _______ _____ _____    ______ ____
ROOT
ATOM      1  C   UNK     1      36.031 -24.078 -14.861  0.00  0.00    +0.100 C 
ENDROOT
BRANCH   1   2
ATOM      2  N   UNK     1      34.921 -24.779 -14.263  0.00  0.00    -0.347 N 
ATOM      3  N   UNK     1      33.273 -23.184 -14.782  0.00  0.00    -0.343 N 
ATOM      4  N   UNK     1      32.783 -25.211 -13.601  0.00  0.00    -0.371 N 
ATOM      5  C   UNK     1      33.614 -24.318 -14.245  0.00  0.00    +0.170 C 
ATOM      6  H   UNK     1      35.105 -25.646 -13.837  0.00  0.00    +0.163 HD
ATOM      7  H   UNK     1      33.937 -22.605 -15.224  0.00  0.00    +0.163 HD
ATOM      8  H   UNK     1      33.151 -26.045 -13.229  0.00  0.00    +0.159 HD
ATOM      9  H   UNK     1      31.823 -25.013 -13.512  0.00  0.00    +0.159 HD
BRANCH   3  10
ATOM     10  C   UNK     1      31.870 -22.802 -14.702  0.00  0.00    +0.127 C 
BRANCH  10  11
ATOM     11  C   UNK     1      31.203 -23.060 -16.014  0.00  0.00    -0.002 C 
ATOM     12  C   UNK     1      29.900 -22.862 -16.241  0.00  0.00    -0.003 C 
ENDBRANCH  10  11
ENDBRANCH   3  10
ENDBRANCH   1   2
BRANCH   1  13
ATOM     13  C   UNK     1      37.003 -23.589 -13.789  0.00  0.00    +0.022 C 
BRANCH  13  14
ATOM     14  C   UNK     1      38.067 -24.638 -13.437  0.00  0.00    -0.009 C 
BRANCH  14  15
ATOM     15  C   UNK     1      38.499 -25.490 -14.635  0.00  0.00    +0.036 C 
BRANCH  15  16
ATOM     16  N   UNK     1      38.174 -26.922 -14.368  0.00  0.00    +0.389 N 
ATOM     17  H   UNK     1      37.537 -26.984 -13.574  0.00  0.00    -0.088 HD
ATOM     18  H   UNK     1      39.032 -27.432 -14.156  0.00  0.00    -0.088 HD
ATOM     19  H   UNK     1      37.730 -27.329 -15.191  0.00  0.00    -0.088 HD
ENDBRANCH  15  16
BRANCH  15  21
ATOM     20  O   UNK     1      40.770 -24.768 -14.152  0.00  0.00    -0.253 OA
ATOM     21  C   UNK     1      39.984 -25.347 -14.890  0.00  0.00    +0.293 C 
BRANCH  21  22
ATOM     22  O   UNK     1      40.362 -25.941 -16.051  0.00  0.00    -0.482 OA
ATOM     23  H   UNK     1      39.790 -26.550 -16.475  0.00  0.00    +0.295 HD
ENDBRANCH  21  22
ENDBRANCH  15  21
ENDBRANCH  14  15
ENDBRANCH  13  14
ENDBRANCH   1  13
TORSDOF 9
ENDMDL
MODEL 7
REMARK VINA RESULT:      -6.2      1.812      2.180
REMARK  Name = 102474029
REMARK  9 active torsions:
REMARK  status: ('A' for Active; 'I' for Inactive)
REMARK    1  A    between atoms: C_1  and  N_2
REMARK    2  A    between atoms: C_1  and  C_13
REMARK    3  A    between atoms: N_3  and  C_10
REMARK    4  A    between atoms: C_10  and  C_11
REMARK    5  A    between atoms: C_13  and  C_14
REMARK    6  A    between atoms: C_14  and  C_15
REMARK    7  A    between atoms: C_15  and  N_16
REMARK    8  A    between atoms: C_15  and  C_21
REMARK    9  A    between atoms: C_21  and  O_22
REMARK                            x       y       z     vdW  Elec       q    Type
REMARK                         _______ _______ _______ _____ _____    ______ ____
ROOT
ATOM      1  C   UNK     1      36.572 -23.434 -14.476  0.00  0.00    +0.100 C 
ENDROOT
BRANCH   1   2
ATOM      2  N   UNK     1      35.179 -23.192 -14.191  0.00  0.00    -0.347 N 
ATOM      3  N   UNK     1      34.414 -23.316 -16.411  0.00  0.00    -0.343 N 
ATOM      4  N   UNK     1      32.949 -22.895 -14.562  0.00  0.00    -0.371 N 
ATOM      5  C   UNK     1      34.175 -23.143 -15.145  0.00  0.00    +0.170 C 
ATOM      6  H   UNK     1      34.922 -23.052 -13.251  0.00  0.00    +0.163 HD
ATOM      7  H   UNK     1      35.326 -23.489 -16.742  0.00  0.00    +0.163 HD
ATOM      8  H   UNK     1      32.883 -22.779 -13.586  0.00  0.00    +0.159 HD
ATOM      9  H   UNK     1      32.142 -22.833 -15.121  0.00  0.00    +0.159 HD
BRANCH   3  10
ATOM     10  C   UNK     1      33.281 -23.242 -17.322  0.00  0.00    +0.127 C 
BRANCH  10  11
ATOM     11  C   UNK     1      33.735 -22.722 -18.648  0.00  0.00    -0.002 C 
ATOM     12  C   UNK     1      34.874 -22.046 -18.834  0.00  0.00    -0.003 C 
ENDBRANCH  10  11
ENDBRANCH   3  10
ENDBRANCH   1   2
BRANCH   1  13
ATOM     13  C   UNK     1      37.379 -23.533 -13.183  0.00  0.00    +0.022 C 
BRANCH  13  14
ATOM     14  C   UNK     1      38.263 -24.787 -13.136  0.00  0.00    -0.009 C 
BRANCH  14  15
ATOM     15  C   UNK     1      38.545 -25.383 -14.520  0.00  0.00    +0.036 C 
BRANCH  15  16
ATOM     16  N   UNK     1      38.119 -26.813 -14.541  0.00  0.00    +0.389 N 
ATOM     17  H   UNK     1      37.892 -27.086 -15.498  0.00  0.00    -0.088 HD
ATOM     18  H   UNK     1      37.297 -26.932 -13.950  0.00  0.00    -0.088 HD
ATOM     19  H   UNK     1      38.877 -27.399 -14.193  0.00  0.00    -0.088 HD
ENDBRANCH  15  16
BRANCH  15  21
ATOM     20  O   UNK     1      40.856 -24.709 -14.179  0.00  0.00    -0.253 OA
ATOM     21  C   UNK     1      40.017 -25.288 -14.857  0.00  0.00    +0.293 C 
BRANCH  21  22
ATOM     22  O   UNK     1      40.318 -25.926 -16.017  0.00  0.00    -0.482 OA
ATOM     23  H   UNK     1      41.136 -26.376 -16.106  0.00  0.00    +0.295 HD
ENDBRANCH  21  22
ENDBRANCH  15  21
ENDBRANCH  14  15
ENDBRANCH  13  14
ENDBRANCH   1  13
TORSDOF 9
ENDMDL
MODEL 8
REMARK VINA RESULT:      -6.2      3.742      4.935
REMARK  Name = 102474029
REMARK  9 active torsions:
REMARK  status: ('A' for Active; 'I' for Inactive)
REMARK    1  A    between atoms: C_1  and  N_2
REMARK    2  A    between atoms: C_1  and  C_13
REMARK    3  A    between atoms: N_3  and  C_10
REMARK    4  A    between atoms: C_10  and  C_11
REMARK    5  A    between atoms: C_13  and  C_14
REMARK    6  A    between atoms: C_14  and  C_15
REMARK    7  A    between atoms: C_15  and  N_16
REMARK    8  A    between atoms: C_15  and  C_21
REMARK    9  A    between atoms: C_21  and  O_22
REMARK                            x       y       z     vdW  Elec       q    Type
REMARK                         _______ _______ _______ _____ _____    ______ ____
ROOT
ATOM      1  C   UNK     1      35.042 -23.796 -15.356  0.00  0.00    +0.100 C 
ENDROOT
BRANCH   1   2
ATOM      2  N   UNK     1      34.148 -24.601 -14.561  0.00  0.00    -0.347 N 
ATOM      3  N   UNK     1      32.252 -23.231 -14.801  0.00  0.00    -0.343 N 
ATOM      4  N   UNK     1      32.227 -25.259 -13.523  0.00  0.00    -0.371 N 
ATOM      5  C   UNK     1      32.818 -24.297 -14.317  0.00  0.00    +0.170 C 
ATOM      6  H   UNK     1      34.508 -25.426 -14.162  0.00  0.00    +0.163 HD
ATOM      7  H   UNK     1      32.752 -22.594 -15.362  0.00  0.00    +0.163 HD
ATOM      8  H   UNK     1      32.754 -26.030 -13.211  0.00  0.00    +0.159 HD
ATOM      9  H   UNK     1      31.280 -25.173 -13.269  0.00  0.00    +0.159 HD
BRANCH   3  10
ATOM     10  C   UNK     1      30.848 -23.014 -14.478  0.00  0.00    +0.127 C 
BRANCH  10  11
ATOM     11  C   UNK     1      30.005 -23.318 -15.673  0.00  0.00    -0.002 C 
ATOM     12  C   UNK     1      29.257 -24.420 -15.799  0.00  0.00    -0.003 C 
ENDBRANCH  10  11
ENDBRANCH   3  10
ENDBRANCH   1   2
BRANCH   1  13
ATOM     13  C   UNK     1      36.149 -23.201 -14.489  0.00  0.00    +0.022 C 
BRANCH  13  14
ATOM     14  C   UNK     1      36.657 -24.183 -13.425  0.00  0.00    -0.009 C 
BRANCH  14  15
ATOM     15  C   UNK     1      36.757 -23.565 -12.026  0.00  0.00    +0.036 C 
BRANCH  15  16
ATOM     16  N   UNK     1      38.170 -23.640 -11.551  0.00  0.00    +0.389 N 
ATOM     17  H   UNK     1      38.182 -23.806 -10.544  0.00  0.00    -0.088 HD
ATOM     18  H   UNK     1      38.645 -22.762 -11.756  0.00  0.00    -0.088 HD
ATOM     19  H   UNK     1      38.648 -24.406 -12.026  0.00  0.00    -0.088 HD
ENDBRANCH  15  16
BRANCH  15  21
ATOM     20  O   UNK     1      35.975 -24.266  -9.833  0.00  0.00    -0.253 OA
ATOM     21  C   UNK     1      35.855 -24.290 -11.051  0.00  0.00    +0.293 C 
BRANCH  21  22
ATOM     22  O   UNK     1      34.875 -24.985 -11.683  0.00  0.00    -0.482 OA
ATOM     23  H   UNK     1      34.025 -24.605 -11.791  0.00  0.00    +0.295 HD
ENDBRANCH  21  22
ENDBRANCH  15  21
ENDBRANCH  14  15
ENDBRANCH  13  14
ENDBRANCH   1  13
TORSDOF 9
ENDMDL
MODEL 9
REMARK VINA RESULT:      -6.2      4.701      6.002
REMARK  Name = 102474029
REMARK  9 active torsions:
REMARK  status: ('A' for Active; 'I' for Inactive)
REMARK    1  A    between atoms: C_1  and  N_2
REMARK    2  A    between atoms: C_1  and  C_13
REMARK    3  A    between atoms: N_3  and  C_10
REMARK    4  A    between atoms: C_10  and  C_11
REMARK    5  A    between atoms: C_13  and  C_14
REMARK    6  A    between atoms: C_14  and  C_15
REMARK    7  A    between atoms: C_15  and  N_16
REMARK    8  A    between atoms: C_15  and  C_21
REMARK    9  A    between atoms: C_21  and  O_22
REMARK                            x       y       z     vdW  Elec       q    Type
REMARK                         _______ _______ _______ _____ _____    ______ ____
ROOT
ATOM      1  C   UNK     1      36.590 -21.714 -18.233  0.00  0.00    +0.100 C 
ENDROOT
BRANCH   1   2
ATOM      2  N   UNK     1      35.231 -22.054 -18.577  0.00  0.00    -0.347 N 
ATOM      3  N   UNK     1      34.913 -20.353 -20.169  0.00  0.00    -0.343 N 
ATOM      4  N   UNK     1      33.205 -21.941 -19.616  0.00  0.00    -0.371 N 
ATOM      5  C   UNK     1      34.460 -21.378 -19.509  0.00  0.00    +0.170 C 
ATOM      6  H   UNK     1      34.821 -22.821 -18.116  0.00  0.00    +0.163 HD
ATOM      7  H   UNK     1      35.827 -20.016 -20.028  0.00  0.00    +0.163 HD
ATOM      8  H   UNK     1      32.967 -22.721 -19.064  0.00  0.00    +0.159 HD
ATOM      9  H   UNK     1      32.548 -21.562 -20.243  0.00  0.00    +0.159 HD
BRANCH   3  10
ATOM     10  C   UNK     1      34.012 -19.721 -21.123  0.00  0.00    +0.127 C 
BRANCH  10  11
ATOM     11  C   UNK     1      34.804 -18.943 -22.123  0.00  0.00    -0.002 C 
ATOM     12  C   UNK     1      34.813 -19.203 -23.435  0.00  0.00    -0.003 C 
ENDBRANCH  10  11
ENDBRANCH   3  10
ENDBRANCH   1   2
BRANCH   1  13
ATOM     13  C   UNK     1      36.858 -21.990 -16.755  0.00  0.00    +0.022 C 
BRANCH  13  14
ATOM     14  C   UNK     1      35.834 -22.953 -16.140  0.00  0.00    -0.009 C 
BRANCH  14  15
ATOM     15  C   UNK     1      36.443 -23.910 -15.109  0.00  0.00    +0.036 C 
BRANCH  15  16
ATOM     16  N   UNK     1      37.870 -24.170 -15.456  0.00  0.00    +0.389 N 
ATOM     17  H   UNK     1      37.992 -24.106 -16.467  0.00  0.00    -0.088 HD
ATOM     18  H   UNK     1      38.133 -25.103 -15.140  0.00  0.00    -0.088 HD
ATOM     19  H   UNK     1      38.463 -23.476 -14.999  0.00  0.00    -0.088 HD
ENDBRANCH  15  16
BRANCH  15  21
ATOM     20  O   UNK     1      35.994 -26.227 -15.694  0.00  0.00    -0.253 OA
ATOM     21  C   UNK     1      35.683 -25.218 -15.075  0.00  0.00    +0.293 C 
BRANCH  21  22
ATOM     22  O   UNK     1      34.594 -25.156 -14.266  0.00  0.00    -0.482 OA
ATOM     23  H   UNK     1      33.770 -24.872 -14.609  0.00  0.00    +0.295 HD
ENDBRANCH  21  22
ENDBRANCH  15  21
ENDBRANCH  14  15
ENDBRANCH  13  14
ENDBRANCH   1  13
TORSDOF 9
ENDMDL
