MODEL 1
REMARK VINA RESULT:     -10.0      0.000      0.000
REMARK  Name = 87330
REMARK  7 active torsions:
REMARK  status: ('A' for Active; 'I' for Inactive)
REMARK    1  A    between atoms: C_2  and  O_7
REMARK    2  A    between atoms: C_3  and  O_9
REMARK    3  A    between atoms: C_4  and  O_11
REMARK    4  A    between atoms: C_5  and  C_26
REMARK    5  A    between atoms: C_6  and  O_13
REMARK    6  A    between atoms: O_13  and  C_16
REMARK    7  A    between atoms: C_26  and  O_27
REMARK                            x       y       z     vdW  Elec       q    Type
REMARK                         _______ _______ _______ _____ _____    ______ ____
ROOT
ATOM      1  O   UNL     1      37.332 -23.360 -14.256  0.00  0.00    -0.316 OA
ATOM      2  C   UNL     1      36.508 -26.051 -13.608  0.00  0.00    +0.173 C 
ATOM      3  C   UNL     1      37.048 -25.087 -12.550  0.00  0.00    +0.169 C 
ATOM      4  C   UNL     1      36.997 -25.651 -14.999  0.00  0.00    +0.210 C 
ATOM      5  C   UNL     1      36.801 -23.627 -12.953  0.00  0.00    +0.177 C 
ATOM      6  C   UNL     1      36.748 -24.168 -15.280  0.00  0.00    +0.318 C 
ENDROOT
BRANCH   2   7
ATOM      7  O   UNL     1      36.987 -27.363 -13.305  0.00  0.00    -0.379 OA
ATOM      8  H   UNL     1      36.643 -27.992 -13.958  0.00  0.00    +0.211 HD
ENDBRANCH   2   7
BRANCH   3   9
ATOM      9  O   UNL     1      36.396 -25.377 -11.316  0.00  0.00    -0.379 OA
ATOM     10  H   UNL     1      37.053 -25.667 -10.664  0.00  0.00    +0.211 HD
ENDBRANCH   3   9
BRANCH   4  11
ATOM     11  O   UNL     1      36.347 -26.455 -15.978  0.00  0.00    -0.377 OA
ATOM     12  H   UNL     1      36.200 -25.931 -16.780  0.00  0.00    +0.211 HD
ENDBRANCH   4  11
BRANCH   6  13
ATOM     13  O   UNL     1      35.367 -23.873 -15.480  0.00  0.00    -0.450 OA
BRANCH  13  16
ATOM     14  O   UNL     1      36.723 -20.932 -18.983  0.00  0.00    -0.421 OA
ATOM     15  O   UNL     1      37.390 -19.523 -20.656  0.00  0.00    -0.244 OA
ATOM     16  C   UNL     1      35.050 -23.140 -16.591  0.00  0.00    +0.144 C 
ATOM     17  C   UNL     1      36.032 -22.403 -17.234  0.00  0.00    +0.075 C 
ATOM     18  C   UNL     1      33.744 -23.138 -17.068  0.00  0.00    +0.037 C 
ATOM     19  C   UNL     1      34.387 -21.637 -18.874  0.00  0.00    +0.031 C 
ATOM     20  C   UNL     1      35.687 -21.663 -18.367  0.00  0.00    +0.151 C 
ATOM     21  C   UNL     1      33.414 -22.391 -18.205  0.00  0.00    +0.006 C 
ATOM     22  C   UNL     1      34.114 -20.830 -20.071  0.00  0.00    -0.012 C 
ATOM     23  C   UNL     1      35.119 -20.147 -20.635  0.00  0.00    +0.078 C 
ATOM     24  C   UNL     1      32.727 -20.782 -20.640  0.00  0.00    +0.031 C 
ATOM     25  C   UNL     1      36.495 -20.162 -20.113  0.00  0.00    +0.346 C 
ENDBRANCH  13  16
ENDBRANCH   6  13
BRANCH   5  26
ATOM     26  C   UNL     1      37.469 -22.646 -11.991  0.00  0.00    +0.169 C 
BRANCH  26  27
ATOM     27  O   UNL     1      38.718 -23.183 -11.597  0.00  0.00    -0.379 OA
ATOM     28  H   UNL     1      39.369 -23.035 -12.300  0.00  0.00    +0.211 HD
ENDBRANCH  26  27
ENDBRANCH   5  26
TORSDOF 7
ENDMDL
MODEL 2
REMARK VINA RESULT:     -10.0      1.485      2.028
REMARK  Name = 87330
REMARK  7 active torsions:
REMARK  status: ('A' for Active; 'I' for Inactive)
REMARK    1  A    between atoms: C_2  and  O_7
REMARK    2  A    between atoms: C_3  and  O_9
REMARK    3  A    between atoms: C_4  and  O_11
REMARK    4  A    between atoms: C_5  and  C_26
REMARK    5  A    between atoms: C_6  and  O_13
REMARK    6  A    between atoms: O_13  and  C_16
REMARK    7  A    between atoms: C_26  and  O_27
REMARK                            x       y       z     vdW  Elec       q    Type
REMARK                         _______ _______ _______ _____ _____    ______ ____
ROOT
ATOM      1  O   UNL     1      35.333 -23.054 -14.293  0.00  0.00    -0.316 OA
ATOM      2  C   UNL     1      37.700 -24.699 -14.475  0.00  0.00    +0.173 C 
ATOM      3  C   UNL     1      36.640 -24.913 -13.393  0.00  0.00    +0.169 C 
ATOM      4  C   UNL     1      37.650 -23.264 -14.999  0.00  0.00    +0.210 C 
ATOM      5  C   UNL     1      35.264 -24.417 -13.859  0.00  0.00    +0.177 C 
ATOM      6  C   UNL     1      36.229 -22.854 -15.388  0.00  0.00    +0.318 C 
ENDROOT
BRANCH   2   7
ATOM      7  O   UNL     1      38.985 -24.940 -13.898  0.00  0.00    -0.379 OA
ATOM      8  H   UNL     1      39.304 -24.130 -13.469  0.00  0.00    +0.211 HD
ENDBRANCH   2   7
BRANCH   3   9
ATOM      9  O   UNL     1      36.589 -26.306 -13.096  0.00  0.00    -0.379 OA
ATOM     10  H   UNL     1      36.312 -26.431 -12.175  0.00  0.00    +0.211 HD
ENDBRANCH   3   9
BRANCH   4  11
ATOM     11  O   UNL     1      38.524 -23.139 -16.116  0.00  0.00    -0.377 OA
ATOM     12  H   UNL     1      39.426 -22.973 -15.803  0.00  0.00    +0.211 HD
ENDBRANCH   4  11
BRANCH   6  13
ATOM     13  O   UNL     1      35.779 -23.499 -16.578  0.00  0.00    -0.450 OA
BRANCH  13  16
ATOM     14  O   UNL     1      36.625 -20.216 -19.934  0.00  0.00    -0.421 OA
ATOM     15  O   UNL     1      37.048 -18.642 -21.538  0.00  0.00    -0.244 OA
ATOM     16  C   UNL     1      35.312 -22.689 -17.577  0.00  0.00    +0.144 C 
ATOM     17  C   UNL     1      36.189 -21.858 -18.258  0.00  0.00    +0.075 C 
ATOM     18  C   UNL     1      33.961 -22.704 -17.904  0.00  0.00    +0.037 C 
ATOM     19  C   UNL     1      34.342 -21.028 -19.629  0.00  0.00    +0.031 C 
ATOM     20  C   UNL     1      35.692 -21.040 -19.274  0.00  0.00    +0.151 C 
ATOM     21  C   UNL     1      33.478 -21.878 -18.926  0.00  0.00    +0.006 C 
ATOM     22  C   UNL     1      33.907 -20.135 -20.711  0.00  0.00    -0.012 C 
ATOM     23  C   UNL     1      34.816 -19.363 -21.321  0.00  0.00    +0.078 C 
ATOM     24  C   UNL     1      32.462 -20.100 -21.116  0.00  0.00    +0.031 C 
ATOM     25  C   UNL     1      36.243 -19.363 -20.958  0.00  0.00    +0.346 C 
ENDBRANCH  13  16
ENDBRANCH   6  13
BRANCH   5  26
ATOM     26  C   UNL     1      34.225 -24.476 -12.741  0.00  0.00    +0.169 C 
BRANCH  26  27
ATOM     27  O   UNL     1      34.862 -24.924 -11.558  0.00  0.00    -0.379 OA
ATOM     28  H   UNL     1      35.751 -25.247 -11.773  0.00  0.00    +0.211 HD
ENDBRANCH  26  27
ENDBRANCH   5  26
TORSDOF 7
ENDMDL
MODEL 3
REMARK VINA RESULT:     -10.0      1.355      2.102
REMARK  Name = 87330
REMARK  7 active torsions:
REMARK  status: ('A' for Active; 'I' for Inactive)
REMARK    1  A    between atoms: C_2  and  O_7
REMARK    2  A    between atoms: C_3  and  O_9
REMARK    3  A    between atoms: C_4  and  O_11
REMARK    4  A    between atoms: C_5  and  C_26
REMARK    5  A    between atoms: C_6  and  O_13
REMARK    6  A    between atoms: O_13  and  C_16
REMARK    7  A    between atoms: C_26  and  O_27
REMARK                            x       y       z     vdW  Elec       q    Type
REMARK                         _______ _______ _______ _____ _____    ______ ____
ROOT
ATOM      1  O   UNL     1      37.622 -23.367 -13.882  0.00  0.00    -0.316 OA
ATOM      2  C   UNL     1      36.577 -26.040 -13.560  0.00  0.00    +0.173 C 
ATOM      3  C   UNL     1      36.906 -25.143 -12.365  0.00  0.00    +0.169 C 
ATOM      4  C   UNL     1      37.375 -25.609 -14.789  0.00  0.00    +0.210 C 
ATOM      5  C   UNL     1      36.808 -23.659 -12.741  0.00  0.00    +0.177 C 
ATOM      6  C   UNL     1      37.248 -24.107 -15.047  0.00  0.00    +0.318 C 
ENDROOT
BRANCH   2   7
ATOM      7  O   UNL     1      36.928 -27.383 -13.223  0.00  0.00    -0.379 OA
ATOM      8  H   UNL     1      37.732 -27.637 -13.702  0.00  0.00    +0.211 HD
ENDBRANCH   2   7
BRANCH   3   9
ATOM      9  O   UNL     1      35.989 -25.450 -11.318  0.00  0.00    -0.379 OA
ATOM     10  H   UNL     1      35.800 -24.647 -10.807  0.00  0.00    +0.211 HD
ENDBRANCH   3   9
BRANCH   4  11
ATOM     11  O   UNL     1      36.926 -26.344 -15.924  0.00  0.00    -0.377 OA
ATOM     12  H   UNL     1      36.605 -27.213 -15.639  0.00  0.00    +0.211 HD
ENDBRANCH   4  11
BRANCH   6  13
ATOM     13  O   UNL     1      35.957 -23.740 -15.529  0.00  0.00    -0.450 OA
BRANCH  13  16
ATOM     14  O   UNL     1      33.473 -21.758 -19.087  0.00  0.00    -0.421 OA
ATOM     15  O   UNL     1      32.268 -20.816 -20.787  0.00  0.00    -0.244 OA
ATOM     16  C   UNL     1      35.920 -22.928 -16.629  0.00  0.00    +0.144 C 
ATOM     17  C   UNL     1      34.726 -22.744 -17.311  0.00  0.00    +0.075 C 
ATOM     18  C   UNL     1      37.079 -22.292 -17.058  0.00  0.00    +0.037 C 
ATOM     19  C   UNL     1      35.855 -21.257 -18.891  0.00  0.00    +0.031 C 
ATOM     20  C   UNL     1      34.711 -21.911 -18.432  0.00  0.00    +0.151 C 
ATOM     21  C   UNL     1      37.048 -21.460 -18.184  0.00  0.00    +0.006 C 
ATOM     22  C   UNL     1      35.747 -20.399 -20.079  0.00  0.00    -0.012 C 
ATOM     23  C   UNL     1      34.557 -20.272 -20.681  0.00  0.00    +0.078 C 
ATOM     24  C   UNL     1      36.959 -19.682 -20.597  0.00  0.00    +0.031 C 
ATOM     25  C   UNL     1      33.340 -20.956 -20.210  0.00  0.00    +0.346 C 
ENDBRANCH  13  16
ENDBRANCH   6  13
BRANCH   5  26
ATOM     26  C   UNL     1      37.284 -22.748 -11.611  0.00  0.00    +0.169 C 
BRANCH  26  27
ATOM     27  O   UNL     1      38.699 -22.716 -11.625  0.00  0.00    -0.379 OA
ATOM     28  H   UNL     1      39.000 -22.028 -12.239  0.00  0.00    +0.211 HD
ENDBRANCH  26  27
ENDBRANCH   5  26
TORSDOF 7
ENDMDL
MODEL 4
REMARK VINA RESULT:      -9.4      3.913      9.154
REMARK  Name = 87330
REMARK  7 active torsions:
REMARK  status: ('A' for Active; 'I' for Inactive)
REMARK    1  A    between atoms: C_2  and  O_7
REMARK    2  A    between atoms: C_3  and  O_9
REMARK    3  A    between atoms: C_4  and  O_11
REMARK    4  A    between atoms: C_5  and  C_26
REMARK    5  A    between atoms: C_6  and  O_13
REMARK    6  A    between atoms: O_13  and  C_16
REMARK    7  A    between atoms: C_26  and  O_27
REMARK                            x       y       z     vdW  Elec       q    Type
REMARK                         _______ _______ _______ _____ _____    ______ ____
ROOT
ATOM      1  O   UNL     1      33.735 -18.185 -21.536  0.00  0.00    -0.316 OA
ATOM      2  C   UNL     1      35.096 -17.756 -24.047  0.00  0.00    +0.173 C 
ATOM      3  C   UNL     1      34.608 -16.597 -23.175  0.00  0.00    +0.169 C 
ATOM      4  C   UNL     1      34.301 -19.025 -23.746  0.00  0.00    +0.210 C 
ATOM      5  C   UNL     1      34.533 -17.007 -21.699  0.00  0.00    +0.177 C 
ATOM      6  C   UNL     1      34.246 -19.316 -22.246  0.00  0.00    +0.318 C 
ENDROOT
BRANCH   2   7
ATOM      7  O   UNL     1      34.904 -17.398 -25.417  0.00  0.00    -0.379 OA
ATOM      8  H   UNL     1      34.053 -17.746 -25.726  0.00  0.00    +0.211 HD
ENDBRANCH   2   7
BRANCH   3   9
ATOM      9  O   UNL     1      35.514 -15.509 -23.341  0.00  0.00    -0.379 OA
ATOM     10  H   UNL     1      36.088 -15.444 -22.562  0.00  0.00    +0.211 HD
ENDBRANCH   3   9
BRANCH   4  11
ATOM     11  O   UNL     1      34.884 -20.123 -24.440  0.00  0.00    -0.377 OA
ATOM     12  H   UNL     1      35.658 -20.441 -23.950  0.00  0.00    +0.211 HD
ENDBRANCH   4  11
BRANCH   6  13
ATOM     13  O   UNL     1      35.500 -19.758 -21.727  0.00  0.00    -0.450 OA
BRANCH  13  16
ATOM     14  O   UNL     1      33.011 -22.295 -18.544  0.00  0.00    -0.421 OA
ATOM     15  O   UNL     1      31.803 -23.508 -17.028  0.00  0.00    -0.244 OA
ATOM     16  C   UNL     1      35.463 -20.477 -20.564  0.00  0.00    +0.144 C 
ATOM     17  C   UNL     1      34.267 -21.027 -20.129  0.00  0.00    +0.075 C 
ATOM     18  C   UNL     1      36.627 -20.653 -19.823  0.00  0.00    +0.037 C 
ATOM     19  C   UNL     1      35.400 -21.954 -18.171  0.00  0.00    +0.031 C 
ATOM     20  C   UNL     1      34.252 -21.758 -18.939  0.00  0.00    +0.151 C 
ATOM     21  C   UNL     1      36.596 -21.388 -18.632  0.00  0.00    +0.006 C 
ATOM     22  C   UNL     1      35.293 -22.736 -16.932  0.00  0.00    -0.012 C 
ATOM     23  C   UNL     1      34.099 -23.235 -16.582  0.00  0.00    +0.078 C 
ATOM     24  C   UNL     1      36.509 -22.966 -16.084  0.00  0.00    +0.031 C 
ATOM     25  C   UNL     1      32.879 -23.036 -17.380  0.00  0.00    +0.346 C 
ENDBRANCH  13  16
ENDBRANCH   6  13
BRANCH   5  26
ATOM     26  C   UNL     1      33.901 -15.919 -20.833  0.00  0.00    +0.169 C 
BRANCH  26  27
ATOM     27  O   UNL     1      34.930 -15.078 -20.344  0.00  0.00    -0.379 OA
ATOM     28  H   UNL     1      35.778 -15.352 -20.725  0.00  0.00    +0.211 HD
ENDBRANCH  26  27
ENDBRANCH   5  26
TORSDOF 7
ENDMDL
MODEL 5
REMARK VINA RESULT:      -9.3      3.874      5.744
REMARK  Name = 87330
REMARK  7 active torsions:
REMARK  status: ('A' for Active; 'I' for Inactive)
REMARK    1  A    between atoms: C_2  and  O_7
REMARK    2  A    between atoms: C_3  and  O_9
REMARK    3  A    between atoms: C_4  and  O_11
REMARK    4  A    between atoms: C_5  and  C_26
REMARK    5  A    between atoms: C_6  and  O_13
REMARK    6  A    between atoms: O_13  and  C_16
REMARK    7  A    between atoms: C_26  and  O_27
REMARK                            x       y       z     vdW  Elec       q    Type
REMARK                         _______ _______ _______ _____ _____    ______ ____
ROOT
ATOM      1  O   UNL     1      30.288 -22.679 -15.862  0.00  0.00    -0.316 OA
ATOM      2  C   UNL     1      30.688 -24.651 -13.790  0.00  0.00    +0.173 C 
ATOM      3  C   UNL     1      29.343 -24.471 -14.496  0.00  0.00    +0.169 C 
ATOM      4  C   UNL     1      31.517 -23.371 -13.882  0.00  0.00    +0.210 C 
ATOM      5  C   UNL     1      29.528 -23.892 -15.904  0.00  0.00    +0.177 C 
ATOM      6  C   UNL     1      31.599 -22.852 -15.318  0.00  0.00    +0.318 C 
ENDROOT
BRANCH   2   7
ATOM      7  O   UNL     1      30.438 -24.946 -12.415  0.00  0.00    -0.379 OA
ATOM      8  H   UNL     1      31.076 -25.607 -12.105  0.00  0.00    +0.211 HD
ENDBRANCH   2   7
BRANCH   3   9
ATOM      9  O   UNL     1      28.708 -25.745 -14.564  0.00  0.00    -0.379 OA
ATOM     10  H   UNL     1      27.814 -25.681 -14.193  0.00  0.00    +0.211 HD
ENDBRANCH   3   9
BRANCH   4  11
ATOM     11  O   UNL     1      32.824 -23.617 -13.372  0.00  0.00    -0.377 OA
ATOM     12  H   UNL     1      32.756 -24.031 -12.497  0.00  0.00    +0.211 HD
ENDBRANCH   4  11
BRANCH   6  13
ATOM     13  O   UNL     1      32.425 -23.665 -16.149  0.00  0.00    -0.450 OA
BRANCH  13  16
ATOM     14  O   UNL     1      32.820 -20.844 -19.976  0.00  0.00    -0.421 OA
ATOM     15  O   UNL     1      32.992 -19.491 -21.811  0.00  0.00    -0.244 OA
ATOM     16  C   UNL     1      33.217 -23.013 -17.055  0.00  0.00    +0.144 C 
ATOM     17  C   UNL     1      32.635 -22.257 -18.061  0.00  0.00    +0.075 C 
ATOM     18  C   UNL     1      34.600 -23.112 -16.960  0.00  0.00    +0.037 C 
ATOM     19  C   UNL     1      34.854 -21.676 -18.910  0.00  0.00    +0.031 C 
ATOM     20  C   UNL     1      33.462 -21.599 -18.974  0.00  0.00    +0.151 C 
ATOM     21  C   UNL     1      35.416 -22.447 -17.883  0.00  0.00    +0.006 C 
ATOM     22  C   UNL     1      35.646 -20.951 -19.913  0.00  0.00    -0.012 C 
ATOM     23  C   UNL     1      35.008 -20.241 -20.853  0.00  0.00    +0.078 C 
ATOM     24  C   UNL     1      37.145 -21.014 -19.871  0.00  0.00    +0.031 C 
ATOM     25  C   UNL     1      33.541 -20.151 -20.936  0.00  0.00    +0.346 C 
ENDBRANCH  13  16
ENDBRANCH   6  13
BRANCH   5  26
ATOM     26  C   UNL     1      28.194 -23.557 -16.567  0.00  0.00    +0.169 C 
BRANCH  26  27
ATOM     27  O   UNL     1      27.809 -24.650 -17.382  0.00  0.00    -0.379 OA
ATOM     28  H   UNL     1      27.620 -24.332 -18.278  0.00  0.00    +0.211 HD
ENDBRANCH  26  27
ENDBRANCH   5  26
TORSDOF 7
ENDMDL
MODEL 6
REMARK VINA RESULT:      -9.3      7.875     11.989
REMARK  Name = 87330
REMARK  7 active torsions:
REMARK  status: ('A' for Active; 'I' for Inactive)
REMARK    1  A    between atoms: C_2  and  O_7
REMARK    2  A    between atoms: C_3  and  O_9
REMARK    3  A    between atoms: C_4  and  O_11
REMARK    4  A    between atoms: C_5  and  C_26
REMARK    5  A    between atoms: C_6  and  O_13
REMARK    6  A    between atoms: O_13  and  C_16
REMARK    7  A    between atoms: C_26  and  O_27
REMARK                            x       y       z     vdW  Elec       q    Type
REMARK                         _______ _______ _______ _____ _____    ______ ____
ROOT
ATOM      1  O   UNL     1      35.208 -15.969 -22.652  0.00  0.00    -0.316 OA
ATOM      2  C   UNL     1      34.368 -17.723 -24.787  0.00  0.00    +0.173 C 
ATOM      3  C   UNL     1      35.079 -18.243 -23.536  0.00  0.00    +0.169 C 
ATOM      4  C   UNL     1      34.688 -16.245 -25.010  0.00  0.00    +0.210 C 
ATOM      5  C   UNL     1      34.841 -17.317 -22.337  0.00  0.00    +0.177 C 
ATOM      6  C   UNL     1      34.464 -15.421 -23.742  0.00  0.00    +0.318 C 
ENDROOT
BRANCH   2   7
ATOM      7  O   UNL     1      34.829 -18.475 -25.911  0.00  0.00    -0.379 OA
ATOM      8  H   UNL     1      34.773 -17.929 -26.711  0.00  0.00    +0.211 HD
ENDBRANCH   2   7
BRANCH   3   9
ATOM      9  O   UNL     1      34.582 -19.550 -23.259  0.00  0.00    -0.379 OA
ATOM     10  H   UNL     1      34.862 -20.158 -23.961  0.00  0.00    +0.211 HD
ENDBRANCH   3   9
BRANCH   4  11
ATOM     11  O   UNL     1      33.884 -15.744 -26.073  0.00  0.00    -0.377 OA
ATOM     12  H   UNL     1      34.379 -15.067 -26.561  0.00  0.00    +0.211 HD
ENDBRANCH   4  11
BRANCH   6  13
ATOM     13  O   UNL     1      33.081 -15.263 -23.428  0.00  0.00    -0.450 OA
BRANCH  13  16
ATOM     14  O   UNL     1      32.309 -10.566 -23.111  0.00  0.00    -0.421 OA
ATOM     15  O   UNL     1      31.944  -8.313 -22.976  0.00  0.00    -0.244 OA
ATOM     16  C   UNL     1      32.743 -14.174 -22.672  0.00  0.00    +0.144 C 
ATOM     17  C   UNL     1      32.693 -12.918 -23.257  0.00  0.00    +0.075 C 
ATOM     18  C   UNL     1      32.452 -14.333 -21.322  0.00  0.00    +0.037 C 
ATOM     19  C   UNL     1      32.048 -11.941 -21.110  0.00  0.00    +0.031 C 
ATOM     20  C   UNL     1      32.346 -11.819 -22.468  0.00  0.00    +0.151 C 
ATOM     21  C   UNL     1      32.106 -13.222 -20.544  0.00  0.00    +0.006 C 
ATOM     22  C   UNL     1      31.692 -10.731 -20.356  0.00  0.00    -0.012 C 
ATOM     23  C   UNL     1      31.665  -9.554 -20.994  0.00  0.00    +0.078 C 
ATOM     24  C   UNL     1      31.366 -10.829 -18.894  0.00  0.00    +0.031 C 
ATOM     25  C   UNL     1      31.978  -9.408 -22.426  0.00  0.00    +0.346 C 
ENDBRANCH  13  16
ENDBRANCH   6  13
BRANCH   5  26
ATOM     26  C   UNL     1      35.667 -17.730 -21.120  0.00  0.00    +0.169 C 
BRANCH  26  27
ATOM     27  O   UNL     1      35.167 -18.962 -20.635  0.00  0.00    -0.379 OA
ATOM     28  H   UNL     1      34.283 -18.826 -20.259  0.00  0.00    +0.211 HD
ENDBRANCH  26  27
ENDBRANCH   5  26
TORSDOF 7
ENDMDL
MODEL 7
REMARK VINA RESULT:      -9.2      7.791     13.181
REMARK  Name = 87330
REMARK  7 active torsions:
REMARK  status: ('A' for Active; 'I' for Inactive)
REMARK    1  A    between atoms: C_2  and  O_7
REMARK    2  A    between atoms: C_3  and  O_9
REMARK    3  A    between atoms: C_4  and  O_11
REMARK    4  A    between atoms: C_5  and  C_26
REMARK    5  A    between atoms: C_6  and  O_13
REMARK    6  A    between atoms: O_13  and  C_16
REMARK    7  A    between atoms: C_26  and  O_27
REMARK                            x       y       z     vdW  Elec       q    Type
REMARK                         _______ _______ _______ _____ _____    ______ ____
ROOT
ATOM      1  O   UNL     1      31.740 -12.179 -22.837  0.00  0.00    -0.316 OA
ATOM      2  C   UNL     1      33.529  -9.943 -23.213  0.00  0.00    +0.173 C 
ATOM      3  C   UNL     1      32.277  -9.848 -22.338  0.00  0.00    +0.169 C 
ATOM      4  C   UNL     1      33.381 -11.063 -24.242  0.00  0.00    +0.210 C 
ATOM      5  C   UNL     1      31.884 -11.222 -21.781  0.00  0.00    +0.177 C 
ATOM      6  C   UNL     1      32.939 -12.374 -23.590  0.00  0.00    +0.318 C 
ENDROOT
BRANCH   2   7
ATOM      7  O   UNL     1      33.694  -8.700 -23.897  0.00  0.00    -0.379 OA
ATOM      8  H   UNL     1      33.197  -8.008 -23.435  0.00  0.00    +0.211 HD
ENDBRANCH   2   7
BRANCH   3   9
ATOM      9  O   UNL     1      32.553  -8.942 -21.273  0.00  0.00    -0.379 OA
ATOM     10  H   UNL     1      33.451  -9.096 -20.942  0.00  0.00    +0.211 HD
ENDBRANCH   3   9
BRANCH   4  11
ATOM     11  O   UNL     1      34.617 -11.243 -24.925  0.00  0.00    -0.377 OA
ATOM     12  H   UNL     1      35.300 -10.695 -24.507  0.00  0.00    +0.211 HD
ENDBRANCH   4  11
BRANCH   6  13
ATOM     13  O   UNL     1      33.973 -12.976 -22.813  0.00  0.00    -0.450 OA
BRANCH  13  16
ATOM     14  O   UNL     1      35.349 -17.202 -21.080  0.00  0.00    -0.421 OA
ATOM     15  O   UNL     1      36.012 -19.221 -20.234  0.00  0.00    -0.244 OA
ATOM     16  C   UNL     1      34.185 -14.314 -23.003  0.00  0.00    +0.144 C 
ATOM     17  C   UNL     1      34.659 -15.093 -21.958  0.00  0.00    +0.075 C 
ATOM     18  C   UNL     1      33.924 -14.885 -24.243  0.00  0.00    +0.037 C 
ATOM     19  C   UNL     1      34.617 -17.064 -23.406  0.00  0.00    +0.031 C 
ATOM     20  C   UNL     1      34.867 -16.457 -22.174  0.00  0.00    +0.151 C 
ATOM     21  C   UNL     1      34.138 -16.254 -24.444  0.00  0.00    +0.006 C 
ATOM     22  C   UNL     1      34.865 -18.505 -23.543  0.00  0.00    -0.012 C 
ATOM     23  C   UNL     1      35.322 -19.188 -22.485  0.00  0.00    +0.078 C 
ATOM     24  C   UNL     1      34.604 -19.187 -24.854  0.00  0.00    +0.031 C 
ATOM     25  C   UNL     1      35.593 -18.563 -21.180  0.00  0.00    +0.346 C 
ENDBRANCH  13  16
ENDBRANCH   6  13
BRANCH   5  26
ATOM     26  C   UNL     1      30.552 -11.179 -21.036  0.00  0.00    +0.169 C 
BRANCH  26  27
ATOM     27  O   UNL     1      30.798 -10.796 -19.696  0.00  0.00    -0.379 OA
ATOM     28  H   UNL     1      30.039 -10.294 -19.359  0.00  0.00    +0.211 HD
ENDBRANCH  26  27
ENDBRANCH   5  26
TORSDOF 7
ENDMDL
MODEL 8
REMARK VINA RESULT:      -9.1      7.997     12.025
REMARK  Name = 87330
REMARK  7 active torsions:
REMARK  status: ('A' for Active; 'I' for Inactive)
REMARK    1  A    between atoms: C_2  and  O_7
REMARK    2  A    between atoms: C_3  and  O_9
REMARK    3  A    between atoms: C_4  and  O_11
REMARK    4  A    between atoms: C_5  and  C_26
REMARK    5  A    between atoms: C_6  and  O_13
REMARK    6  A    between atoms: O_13  and  C_16
REMARK    7  A    between atoms: C_26  and  O_27
REMARK                            x       y       z     vdW  Elec       q    Type
REMARK                         _______ _______ _______ _____ _____    ______ ____
ROOT
ATOM      1  O   UNL     1      35.234 -15.919 -22.657  0.00  0.00    -0.316 OA
ATOM      2  C   UNL     1      34.270 -18.049 -24.352  0.00  0.00    +0.173 C 
ATOM      3  C   UNL     1      34.813 -18.308 -22.946  0.00  0.00    +0.169 C 
ATOM      4  C   UNL     1      34.826 -16.739 -24.909  0.00  0.00    +0.210 C 
ATOM      5  C   UNL     1      34.646 -17.075 -22.050  0.00  0.00    +0.177 C 
ATOM      6  C   UNL     1      34.653 -15.586 -23.920  0.00  0.00    +0.318 C 
ENDROOT
BRANCH   2   7
ATOM      7  O   UNL     1      34.679 -19.126 -25.197  0.00  0.00    -0.379 OA
ATOM      8  H   UNL     1      35.325 -19.677 -24.729  0.00  0.00    +0.211 HD
ENDBRANCH   2   7
BRANCH   3   9
ATOM      9  O   UNL     1      34.105 -19.418 -22.398  0.00  0.00    -0.379 OA
ATOM     10  H   UNL     1      34.709 -20.171 -22.300  0.00  0.00    +0.211 HD
ENDBRANCH   3   9
BRANCH   4  11
ATOM     11  O   UNL     1      34.176 -16.436 -26.139  0.00  0.00    -0.377 OA
ATOM     12  H   UNL     1      33.315 -16.882 -26.168  0.00  0.00    +0.211 HD
ENDBRANCH   4  11
BRANCH   6  13
ATOM     13  O   UNL     1      33.294 -15.170 -23.795  0.00  0.00    -0.450 OA
BRANCH  13  16
ATOM     14  O   UNL     1      31.494 -11.950 -20.770  0.00  0.00    -0.421 OA
ATOM     15  O   UNL     1      30.624 -10.419 -19.310  0.00  0.00    -0.244 OA
ATOM     16  C   UNL     1      33.081 -13.861 -23.458  0.00  0.00    +0.144 C 
ATOM     17  C   UNL     1      32.398 -13.551 -22.291  0.00  0.00    +0.075 C 
ATOM     18  C   UNL     1      33.551 -12.849 -24.287  0.00  0.00    +0.037 C 
ATOM     19  C   UNL     1      32.649 -11.167 -22.774  0.00  0.00    +0.031 C 
ATOM     20  C   UNL     1      32.192 -12.209 -21.966  0.00  0.00    +0.151 C 
ATOM     21  C   UNL     1      33.337 -11.508 -23.947  0.00  0.00    +0.006 C 
ATOM     22  C   UNL     1      32.388  -9.784 -22.354  0.00  0.00    -0.012 C 
ATOM     23  C   UNL     1      31.722  -9.568 -21.212  0.00  0.00    +0.078 C 
ATOM     24  C   UNL     1      32.867  -8.642 -23.201  0.00  0.00    +0.031 C 
ATOM     25  C   UNL     1      31.232 -10.655 -20.349  0.00  0.00    +0.346 C 
ENDBRANCH  13  16
ENDBRANCH   6  13
BRANCH   5  26
ATOM     26  C   UNL     1      35.322 -17.256 -20.692  0.00  0.00    +0.169 C 
BRANCH  26  27
ATOM     27  O   UNL     1      36.026 -18.484 -20.701  0.00  0.00    -0.379 OA
ATOM     28  H   UNL     1      36.860 -18.374 -21.184  0.00  0.00    +0.211 HD
ENDBRANCH  26  27
ENDBRANCH   5  26
TORSDOF 7
ENDMDL
MODEL 9
REMARK VINA RESULT:      -9.1      3.038      8.932
REMARK  Name = 87330
REMARK  7 active torsions:
REMARK  status: ('A' for Active; 'I' for Inactive)
REMARK    1  A    between atoms: C_2  and  O_7
REMARK    2  A    between atoms: C_3  and  O_9
REMARK    3  A    between atoms: C_4  and  O_11
REMARK    4  A    between atoms: C_5  and  C_26
REMARK    5  A    between atoms: C_6  and  O_13
REMARK    6  A    between atoms: O_13  and  C_16
REMARK    7  A    between atoms: C_26  and  O_27
REMARK                            x       y       z     vdW  Elec       q    Type
REMARK                         _______ _______ _______ _____ _____    ______ ____
ROOT
ATOM      1  O   UNL     1      33.613 -18.141 -21.604  0.00  0.00    -0.316 OA
ATOM      2  C   UNL     1      35.201 -17.771 -23.987  0.00  0.00    +0.173 C 
ATOM      3  C   UNL     1      34.687 -16.592 -23.159  0.00  0.00    +0.169 C 
ATOM      4  C   UNL     1      34.333 -19.007 -23.759  0.00  0.00    +0.210 C 
ATOM      5  C   UNL     1      34.468 -16.996 -21.695  0.00  0.00    +0.177 C 
ATOM      6  C   UNL     1      34.138 -19.293 -22.269  0.00  0.00    +0.318 C 
ENDROOT
BRANCH   2   7
ATOM      7  O   UNL     1      35.142 -17.409 -25.369  0.00  0.00    -0.379 OA
ATOM      8  H   UNL     1      34.699 -18.112 -25.869  0.00  0.00    +0.211 HD
ENDBRANCH   2   7
BRANCH   3   9
ATOM      9  O   UNL     1      35.647 -15.542 -23.245  0.00  0.00    -0.379 OA
ATOM     10  H   UNL     1      35.630 -15.021 -22.427  0.00  0.00    +0.211 HD
ENDBRANCH   3   9
BRANCH   4  11
ATOM     11  O   UNL     1      34.929 -20.129 -24.402  0.00  0.00    -0.377 OA
ATOM     12  H   UNL     1      35.751 -19.852 -24.836  0.00  0.00    +0.211 HD
ENDBRANCH   4  11
BRANCH   6  13
ATOM     13  O   UNL     1      35.323 -19.784 -21.645  0.00  0.00    -0.450 OA
BRANCH  13  16
ATOM     14  O   UNL     1      37.174 -21.761 -17.718  0.00  0.00    -0.421 OA
ATOM     15  O   UNL     1      38.076 -22.703 -15.839  0.00  0.00    -0.244 OA
ATOM     16  C   UNL     1      35.156 -20.536 -20.515  0.00  0.00    +0.144 C 
ATOM     17  C   UNL     1      36.236 -20.777 -19.680  0.00  0.00    +0.075 C 
ATOM     18  C   UNL     1      33.903 -21.055 -20.209  0.00  0.00    +0.037 C 
ATOM     19  C   UNL     1      34.800 -22.084 -18.193  0.00  0.00    +0.031 C 
ATOM     20  C   UNL     1      36.043 -21.547 -18.531  0.00  0.00    +0.151 C 
ATOM     21  C   UNL     1      33.725 -21.825 -19.054  0.00  0.00    +0.006 C 
ATOM     22  C   UNL     1      34.688 -22.882 -16.965  0.00  0.00    -0.012 C 
ATOM     23  C   UNL     1      35.780 -23.069 -16.211  0.00  0.00    +0.078 C 
ATOM     24  C   UNL     1      33.365 -23.472 -16.574  0.00  0.00    +0.031 C 
ATOM     25  C   UNL     1      37.099 -22.511 -16.554  0.00  0.00    +0.346 C 
ENDBRANCH  13  16
ENDBRANCH   6  13
BRANCH   5  26
ATOM     26  C   UNL     1      33.808 -15.882 -20.886  0.00  0.00    +0.169 C 
BRANCH  26  27
ATOM     27  O   UNL     1      34.823 -15.107 -20.276  0.00  0.00    -0.379 OA
ATOM     28  H   UNL     1      35.672 -15.289 -20.709  0.00  0.00    +0.211 HD
ENDBRANCH  26  27
ENDBRANCH   5  26
TORSDOF 7
ENDMDL
