MODEL 1
REMARK VINA RESULT:      -6.2      0.000      0.000
REMARK  Name = 68841
REMARK  8 active torsions:
REMARK  status: ('A' for Active; 'I' for Inactive)
REMARK    1  A    between atoms: C_1  and  N_2
REMARK    2  A    between atoms: C_1  and  C_7
REMARK    3  A    between atoms: C_1  and  C_10
REMARK    4  A    between atoms: C_7  and  O_8
REMARK    5  A    between atoms: C_10  and  O_11
REMARK    6  A    between atoms: O_11  and  P_12
REMARK    7  A    between atoms: P_12  and  O_14
REMARK    8  A    between atoms: P_12  and  O_16
REMARK                            x       y       z     vdW  Elec       q    Type
REMARK                         _______ _______ _______ _____ _____    ______ ____
ROOT
ATOM      1  C   UNK     1      36.955 -25.497 -14.220  0.00  0.00    +0.066 C 
ENDROOT
BRANCH   1   2
ATOM      2  N   UNK     1      35.516 -25.597 -14.254  0.00  0.00    +0.390 N 
ATOM      3  H   UNK     1      35.234 -26.538 -13.980  0.00  0.00    -0.088 HD
ATOM      4  H   UNK     1      35.185 -25.404 -15.199  0.00  0.00    -0.088 HD
ATOM      5  H   UNK     1      35.113 -24.920 -13.607  0.00  0.00    -0.088 HD
ENDBRANCH   1   2
BRANCH   1   7
ATOM      6  O   UNK     1      38.536 -27.287 -14.692  0.00  0.00    -0.253 OA
ATOM      7  C   UNK     1      37.508 -26.688 -14.977  0.00  0.00    +0.295 C 
BRANCH   7   8
ATOM      8  O   UNK     1      36.749 -26.998 -16.060  0.00  0.00    -0.482 OA
ATOM      9  H   UNK     1      36.179 -27.742 -16.036  0.00  0.00    +0.295 HD
ENDBRANCH   7   8
ENDBRANCH   1   7
BRANCH   1  10
ATOM     10  C   UNK     1      37.485 -25.476 -12.795  0.00  0.00    +0.143 C 
BRANCH  10  11
ATOM     11  O   UNK     1      36.389 -25.481 -11.888  0.00  0.00    -0.275 OA
BRANCH  11  12
ATOM     12  P   UNK     1      36.018 -24.105 -11.125  0.00  0.00    +0.473 P 
ATOM     13  O   UNK     1      37.156 -23.141 -10.964  0.00  0.00    -0.228 OA
BRANCH  12  14
ATOM     14  O   UNK     1      35.332 -24.602  -9.747  0.00  0.00    -0.303 OA
ATOM     15  H   UNK     1      34.396 -24.801  -9.905  0.00  0.00    +0.222 HD
ENDBRANCH  12  14
BRANCH  12  16
ATOM     16  O   UNK     1      34.766 -23.548 -11.983  0.00  0.00    -0.303 OA
ATOM     17  H   UNK     1      34.048 -24.200 -11.969  0.00  0.00    +0.222 HD
ENDBRANCH  12  16
ENDBRANCH  11  12
ENDBRANCH  10  11
ENDBRANCH   1  10
TORSDOF 8
ENDMDL
MODEL 2
REMARK VINA RESULT:      -6.1      2.169      2.667
REMARK  Name = 68841
REMARK  8 active torsions:
REMARK  status: ('A' for Active; 'I' for Inactive)
REMARK    1  A    between atoms: C_1  and  N_2
REMARK    2  A    between atoms: C_1  and  C_7
REMARK    3  A    between atoms: C_1  and  C_10
REMARK    4  A    between atoms: C_7  and  O_8
REMARK    5  A    between atoms: C_10  and  O_11
REMARK    6  A    between atoms: O_11  and  P_12
REMARK    7  A    between atoms: P_12  and  O_14
REMARK    8  A    between atoms: P_12  and  O_16
REMARK                            x       y       z     vdW  Elec       q    Type
REMARK                         _______ _______ _______ _____ _____    ______ ____
ROOT
ATOM      1  C   UNK     1      39.114 -25.094 -14.158  0.00  0.00    +0.066 C 
ENDROOT
BRANCH   1   2
ATOM      2  N   UNK     1      38.432 -24.578 -15.320  0.00  0.00    +0.390 N 
ATOM      3  H   UNK     1      38.456 -23.559 -15.304  0.00  0.00    -0.088 HD
ATOM      4  H   UNK     1      37.463 -24.896 -15.312  0.00  0.00    -0.088 HD
ATOM      5  H   UNK     1      38.895 -24.917 -16.164  0.00  0.00    -0.088 HD
ENDBRANCH   1   2
BRANCH   1   7
ATOM      6  O   UNK     1      41.012 -26.602 -13.935  0.00  0.00    -0.253 OA
ATOM      7  C   UNK     1      40.256 -25.958 -14.651  0.00  0.00    +0.295 C 
BRANCH   7   8
ATOM      8  O   UNK     1      40.387 -25.905 -16.002  0.00  0.00    -0.482 OA
ATOM      9  H   UNK     1      41.240 -25.906 -16.390  0.00  0.00    +0.295 HD
ENDBRANCH   7   8
ENDBRANCH   1   7
BRANCH   1  10
ATOM     10  C   UNK     1      38.180 -25.898 -13.267  0.00  0.00    +0.143 C 
BRANCH  10  11
ATOM     11  O   UNK     1      38.093 -25.271 -11.994  0.00  0.00    -0.275 OA
BRANCH  11  12
ATOM     12  P   UNK     1      37.238 -23.906 -11.867  0.00  0.00    +0.473 P 
ATOM     13  O   UNK     1      36.296 -23.638 -13.004  0.00  0.00    -0.228 OA
BRANCH  12  14
ATOM     14  O   UNK     1      38.362 -22.770 -11.617  0.00  0.00    -0.303 OA
ATOM     15  H   UNK     1      38.058 -22.161 -10.925  0.00  0.00    +0.222 HD
ENDBRANCH  12  14
BRANCH  12  16
ATOM     16  O   UNK     1      36.535 -24.058 -10.419  0.00  0.00    -0.303 OA
ATOM     17  H   UNK     1      36.593 -23.215  -9.941  0.00  0.00    +0.222 HD
ENDBRANCH  12  16
ENDBRANCH  11  12
ENDBRANCH  10  11
ENDBRANCH   1  10
TORSDOF 8
ENDMDL
MODEL 3
REMARK VINA RESULT:      -6.1      2.407      4.551
REMARK  Name = 68841
REMARK  8 active torsions:
REMARK  status: ('A' for Active; 'I' for Inactive)
REMARK    1  A    between atoms: C_1  and  N_2
REMARK    2  A    between atoms: C_1  and  C_7
REMARK    3  A    between atoms: C_1  and  C_10
REMARK    4  A    between atoms: C_7  and  O_8
REMARK    5  A    between atoms: C_10  and  O_11
REMARK    6  A    between atoms: O_11  and  P_12
REMARK    7  A    between atoms: P_12  and  O_14
REMARK    8  A    between atoms: P_12  and  O_16
REMARK                            x       y       z     vdW  Elec       q    Type
REMARK                         _______ _______ _______ _____ _____    ______ ____
ROOT
ATOM      1  C   UNK     1      36.831 -23.496 -11.990  0.00  0.00    +0.066 C 
ENDROOT
BRANCH   1   2
ATOM      2  N   UNK     1      38.191 -23.796 -11.613  0.00  0.00    +0.390 N 
ATOM      3  H   UNK     1      38.352 -23.495 -10.653  0.00  0.00    -0.088 HD
ATOM      4  H   UNK     1      38.832 -23.304 -12.236  0.00  0.00    -0.088 HD
ATOM      5  H   UNK     1      38.350 -24.801 -11.686  0.00  0.00    -0.088 HD
ENDBRANCH   1   2
BRANCH   1   7
ATOM      6  O   UNK     1      36.013 -24.224  -9.816  0.00  0.00    -0.253 OA
ATOM      7  C   UNK     1      35.923 -24.244 -11.037  0.00  0.00    +0.295 C 
BRANCH   7   8
ATOM      8  O   UNK     1      35.004 -24.997 -11.696  0.00  0.00    -0.482 OA
ATOM      9  H   UNK     1      35.146 -25.230 -12.593  0.00  0.00    +0.295 HD
ENDBRANCH   7   8
ENDBRANCH   1   7
BRANCH   1  10
ATOM     10  C   UNK     1      36.544 -23.896 -13.429  0.00  0.00    +0.143 C 
BRANCH  10  11
ATOM     11  O   UNK     1      37.623 -24.682 -13.920  0.00  0.00    -0.275 OA
BRANCH  11  12
ATOM     12  P   UNK     1      37.308 -26.181 -14.436  0.00  0.00    +0.473 P 
ATOM     13  O   UNK     1      36.393 -26.266 -15.622  0.00  0.00    -0.228 OA
BRANCH  12  14
ATOM     14  O   UNK     1      36.791 -26.945 -13.107  0.00  0.00    -0.303 OA
ATOM     15  H   UNK     1      37.525 -27.033 -12.479  0.00  0.00    +0.222 HD
ENDBRANCH  12  14
BRANCH  12  16
ATOM     16  O   UNK     1      38.785 -26.797 -14.667  0.00  0.00    -0.303 OA
ATOM     17  H   UNK     1      39.197 -26.981 -13.808  0.00  0.00    +0.222 HD
ENDBRANCH  12  16
ENDBRANCH  11  12
ENDBRANCH  10  11
ENDBRANCH   1  10
TORSDOF 8
ENDMDL
MODEL 4
REMARK VINA RESULT:      -6.1      0.112      1.369
REMARK  Name = 68841
REMARK  8 active torsions:
REMARK  status: ('A' for Active; 'I' for Inactive)
REMARK    1  A    between atoms: C_1  and  N_2
REMARK    2  A    between atoms: C_1  and  C_7
REMARK    3  A    between atoms: C_1  and  C_10
REMARK    4  A    between atoms: C_7  and  O_8
REMARK    5  A    between atoms: C_10  and  O_11
REMARK    6  A    between atoms: O_11  and  P_12
REMARK    7  A    between atoms: P_12  and  O_14
REMARK    8  A    between atoms: P_12  and  O_16
REMARK                            x       y       z     vdW  Elec       q    Type
REMARK                         _______ _______ _______ _____ _____    ______ ____
ROOT
ATOM      1  C   UNK     1      36.945 -25.437 -14.229  0.00  0.00    +0.066 C 
ENDROOT
BRANCH   1   2
ATOM      2  N   UNK     1      35.509 -25.569 -14.258  0.00  0.00    +0.390 N 
ATOM      3  H   UNK     1      35.260 -26.546 -14.414  0.00  0.00    -0.088 HD
ATOM      4  H   UNK     1      35.131 -24.997 -15.014  0.00  0.00    -0.088 HD
ATOM      5  H   UNK     1      35.120 -25.257 -13.368  0.00  0.00    -0.088 HD
ENDBRANCH   1   2
BRANCH   1   7
ATOM      6  O   UNK     1      38.559 -27.213 -14.638  0.00  0.00    -0.253 OA
ATOM      7  C   UNK     1      37.523 -26.638 -14.948  0.00  0.00    +0.295 C 
BRANCH   7   8
ATOM      8  O   UNK     1      36.780 -26.989 -16.030  0.00  0.00    -0.482 OA
ATOM      9  H   UNK     1      35.903 -26.671 -16.118  0.00  0.00    +0.295 HD
ENDBRANCH   7   8
ENDBRANCH   1   7
BRANCH   1  10
ATOM     10  C   UNK     1      37.475 -25.360 -12.805  0.00  0.00    +0.143 C 
BRANCH  10  11
ATOM     11  O   UNK     1      36.397 -25.543 -11.894  0.00  0.00    -0.275 OA
BRANCH  11  12
ATOM     12  P   UNK     1      35.892 -24.269 -11.038  0.00  0.00    +0.473 P 
ATOM     13  O   UNK     1      35.340 -24.593  -9.681  0.00  0.00    -0.228 OA
BRANCH  12  14
ATOM     14  O   UNK     1      34.869 -23.514 -12.039  0.00  0.00    -0.303 OA
ATOM     15  H   UNK     1      34.220 -24.149 -12.377  0.00  0.00    +0.222 HD
ENDBRANCH  12  14
BRANCH  12  16
ATOM     16  O   UNK     1      37.189 -23.304 -11.035  0.00  0.00    -0.303 OA
ATOM     17  H   UNK     1      36.903 -22.377 -11.055  0.00  0.00    +0.222 HD
ENDBRANCH  12  16
ENDBRANCH  11  12
ENDBRANCH  10  11
ENDBRANCH   1  10
TORSDOF 8
ENDMDL
MODEL 5
REMARK VINA RESULT:      -6.0      1.706      2.280
REMARK  Name = 68841
REMARK  8 active torsions:
REMARK  status: ('A' for Active; 'I' for Inactive)
REMARK    1  A    between atoms: C_1  and  N_2
REMARK    2  A    between atoms: C_1  and  C_7
REMARK    3  A    between atoms: C_1  and  C_10
REMARK    4  A    between atoms: C_7  and  O_8
REMARK    5  A    between atoms: C_10  and  O_11
REMARK    6  A    between atoms: O_11  and  P_12
REMARK    7  A    between atoms: P_12  and  O_14
REMARK    8  A    between atoms: P_12  and  O_16
REMARK                            x       y       z     vdW  Elec       q    Type
REMARK                         _______ _______ _______ _____ _____    ______ ____
ROOT
ATOM      1  C   UNK     1      38.089 -26.198 -14.399  0.00  0.00    +0.066 C 
ENDROOT
BRANCH   1   2
ATOM      2  N   UNK     1      38.766 -25.159 -15.136  0.00  0.00    +0.390 N 
ATOM      3  H   UNK     1      39.242 -24.536 -14.485  0.00  0.00    -0.088 HD
ATOM      4  H   UNK     1      38.083 -24.628 -15.678  0.00  0.00    -0.088 HD
ATOM      5  H   UNK     1      39.448 -25.579 -15.767  0.00  0.00    -0.088 HD
ENDBRANCH   1   2
BRANCH   1   7
ATOM      6  O   UNK     1      36.654 -27.215 -16.083  0.00  0.00    -0.253 OA
ATOM      7  C   UNK     1      36.782 -26.479 -15.113  0.00  0.00    +0.295 C 
BRANCH   7   8
ATOM      8  O   UNK     1      35.750 -25.774 -14.580  0.00  0.00    -0.482 OA
ATOM      9  H   UNK     1      34.878 -26.112 -14.629  0.00  0.00    +0.295 HD
ENDBRANCH   7   8
ENDBRANCH   1   7
BRANCH   1  10
ATOM     10  C   UNK     1      37.834 -25.790 -12.956  0.00  0.00    +0.143 C 
BRANCH  10  11
ATOM     11  O   UNK     1      38.124 -24.406 -12.803  0.00  0.00    -0.275 OA
BRANCH  11  12
ATOM     12  P   UNK     1      37.117 -23.504 -11.917  0.00  0.00    +0.473 P 
ATOM     13  O   UNK     1      36.722 -24.101 -10.599  0.00  0.00    -0.228 OA
BRANCH  12  14
ATOM     14  O   UNK     1      35.894 -23.187 -12.928  0.00  0.00    -0.303 OA
ATOM     15  H   UNK     1      35.844 -22.231 -13.085  0.00  0.00    +0.222 HD
ENDBRANCH  12  14
BRANCH  12  16
ATOM     16  O   UNK     1      37.895 -22.090 -11.822  0.00  0.00    -0.303 OA
ATOM     17  H   UNK     1      37.253 -21.376 -11.679  0.00  0.00    +0.222 HD
ENDBRANCH  12  16
ENDBRANCH  11  12
ENDBRANCH  10  11
ENDBRANCH   1  10
TORSDOF 8
ENDMDL
MODEL 6
REMARK VINA RESULT:      -6.0      2.992      4.452
REMARK  Name = 68841
REMARK  8 active torsions:
REMARK  status: ('A' for Active; 'I' for Inactive)
REMARK    1  A    between atoms: C_1  and  N_2
REMARK    2  A    between atoms: C_1  and  C_7
REMARK    3  A    between atoms: C_1  and  C_10
REMARK    4  A    between atoms: C_7  and  O_8
REMARK    5  A    between atoms: C_10  and  O_11
REMARK    6  A    between atoms: O_11  and  P_12
REMARK    7  A    between atoms: P_12  and  O_14
REMARK    8  A    between atoms: P_12  and  O_16
REMARK                            x       y       z     vdW  Elec       q    Type
REMARK                         _______ _______ _______ _____ _____    ______ ____
ROOT
ATOM      1  C   UNK     1      36.549 -25.755 -14.071  0.00  0.00    +0.066 C 
ENDROOT
BRANCH   1   2
ATOM      2  N   UNK     1      36.204 -26.654 -15.145  0.00  0.00    +0.390 N 
ATOM      3  H   UNK     1      35.201 -26.839 -15.125  0.00  0.00    -0.088 HD
ATOM      4  H   UNK     1      36.713 -27.531 -15.029  0.00  0.00    -0.088 HD
ATOM      5  H   UNK     1      36.455 -26.230 -16.037  0.00  0.00    -0.088 HD
ENDBRANCH   1   2
BRANCH   1   7
ATOM      6  O   UNK     1      36.017 -23.388 -14.278  0.00  0.00    -0.253 OA
ATOM      7  C   UNK     1      36.649 -24.364 -14.662  0.00  0.00    +0.295 C 
BRANCH   7   8
ATOM      8  O   UNK     1      37.500 -24.321 -15.720  0.00  0.00    -0.482 OA
ATOM      9  H   UNK     1      38.255 -23.767 -15.692  0.00  0.00    +0.295 HD
ENDBRANCH   7   8
ENDBRANCH   1   7
BRANCH   1  10
ATOM     10  C   UNK     1      37.858 -26.149 -13.404  0.00  0.00    +0.143 C 
BRANCH  10  11
ATOM     11  O   UNK     1      38.732 -26.702 -14.381  0.00  0.00    -0.275 OA
BRANCH  11  12
ATOM     12  P   UNK     1      40.205 -26.058 -14.545  0.00  0.00    +0.473 P 
ATOM     13  O   UNK     1      41.332 -26.913 -14.045  0.00  0.00    -0.228 OA
BRANCH  12  14
ATOM     14  O   UNK     1      40.071 -24.607 -13.841  0.00  0.00    -0.303 OA
ATOM     15  H   UNK     1      39.733 -23.966 -14.485  0.00  0.00    +0.222 HD
ENDBRANCH  12  14
BRANCH  12  16
ATOM     16  O   UNK     1      40.265 -25.701 -16.121  0.00  0.00    -0.303 OA
ATOM     17  H   UNK     1      39.371 -25.739 -16.496  0.00  0.00    +0.222 HD
ENDBRANCH  12  16
ENDBRANCH  11  12
ENDBRANCH  10  11
ENDBRANCH   1  10
TORSDOF 8
ENDMDL
MODEL 7
REMARK VINA RESULT:      -5.9      3.526      4.687
REMARK  Name = 68841
REMARK  8 active torsions:
REMARK  status: ('A' for Active; 'I' for Inactive)
REMARK    1  A    between atoms: C_1  and  N_2
REMARK    2  A    between atoms: C_1  and  C_7
REMARK    3  A    between atoms: C_1  and  C_10
REMARK    4  A    between atoms: C_7  and  O_8
REMARK    5  A    between atoms: C_10  and  O_11
REMARK    6  A    between atoms: O_11  and  P_12
REMARK    7  A    between atoms: P_12  and  O_14
REMARK    8  A    between atoms: P_12  and  O_16
REMARK                            x       y       z     vdW  Elec       q    Type
REMARK                         _______ _______ _______ _____ _____    ______ ____
ROOT
ATOM      1  C   UNK     1      37.402 -23.432 -13.862  0.00  0.00    +0.066 C 
ENDROOT
BRANCH   1   2
ATOM      2  N   UNK     1      36.097 -23.296 -13.263  0.00  0.00    +0.390 N 
ATOM      3  H   UNK     1      35.434 -22.963 -13.963  0.00  0.00    -0.088 HD
ATOM      4  H   UNK     1      36.145 -22.626 -12.495  0.00  0.00    -0.088 HD
ATOM      5  H   UNK     1      35.790 -24.201 -12.907  0.00  0.00    -0.088 HD
ENDBRANCH   1   2
BRANCH   1   7
ATOM      6  O   UNK     1      36.176 -23.847 -15.924  0.00  0.00    -0.253 OA
ATOM      7  C   UNK     1      37.205 -23.494 -15.363  0.00  0.00    +0.295 C 
BRANCH   7   8
ATOM      8  O   UNK     1      38.334 -23.155 -16.038  0.00  0.00    -0.482 OA
ATOM      9  H   UNK     1      39.079 -23.723 -16.019  0.00  0.00    +0.295 HD
ENDBRANCH   7   8
ENDBRANCH   1   7
BRANCH   1  10
ATOM     10  C   UNK     1      38.123 -24.676 -13.365  0.00  0.00    +0.143 C 
BRANCH  10  11
ATOM     11  O   UNK     1      39.463 -24.662 -13.841  0.00  0.00    -0.275 OA
BRANCH  11  12
ATOM     12  P   UNK     1      40.032 -25.986 -14.571  0.00  0.00    +0.473 P 
ATOM     13  O   UNK     1      41.252 -26.587 -13.939  0.00  0.00    -0.228 OA
BRANCH  12  14
ATOM     14  O   UNK     1      40.205 -25.531 -16.114  0.00  0.00    -0.303 OA
ATOM     15  H   UNK     1      40.122 -26.307 -16.691  0.00  0.00    +0.222 HD
ENDBRANCH  12  14
BRANCH  12  16
ATOM     16  O   UNK     1      38.738 -26.954 -14.614  0.00  0.00    -0.303 OA
ATOM     17  H   UNK     1      38.782 -27.521 -15.400  0.00  0.00    +0.222 HD
ENDBRANCH  12  16
ENDBRANCH  11  12
ENDBRANCH  10  11
ENDBRANCH   1  10
TORSDOF 8
ENDMDL
MODEL 8
REMARK VINA RESULT:      -5.9      2.046      2.242
REMARK  Name = 68841
REMARK  8 active torsions:
REMARK  status: ('A' for Active; 'I' for Inactive)
REMARK    1  A    between atoms: C_1  and  N_2
REMARK    2  A    between atoms: C_1  and  C_7
REMARK    3  A    between atoms: C_1  and  C_10
REMARK    4  A    between atoms: C_7  and  O_8
REMARK    5  A    between atoms: C_10  and  O_11
REMARK    6  A    between atoms: O_11  and  P_12
REMARK    7  A    between atoms: P_12  and  O_14
REMARK    8  A    between atoms: P_12  and  O_16
REMARK                            x       y       z     vdW  Elec       q    Type
REMARK                         _______ _______ _______ _____ _____    ______ ____
ROOT
ATOM      1  C   UNK     1      38.586 -25.065 -14.527  0.00  0.00    +0.066 C 
ENDROOT
BRANCH   1   2
ATOM      2  N   UNK     1      37.862 -26.027 -15.321  0.00  0.00    +0.390 N 
ATOM      3  H   UNK     1      38.485 -26.429 -16.021  0.00  0.00    -0.088 HD
ATOM      4  H   UNK     1      37.081 -25.563 -15.787  0.00  0.00    -0.088 HD
ATOM      5  H   UNK     1      37.506 -26.768 -14.717  0.00  0.00    -0.088 HD
ENDBRANCH   1   2
BRANCH   1   7
ATOM      6  O   UNK     1      40.980 -24.756 -14.206  0.00  0.00    -0.253 OA
ATOM      7  C   UNK     1      40.056 -25.217 -14.864  0.00  0.00    +0.295 C 
BRANCH   7   8
ATOM      8  O   UNK     1      40.243 -25.892 -16.028  0.00  0.00    -0.482 OA
ATOM      9  H   UNK     1      40.671 -25.474 -16.748  0.00  0.00    +0.295 HD
ENDBRANCH   7   8
ENDBRANCH   1   7
BRANCH   1  10
ATOM     10  C   UNK     1      38.354 -25.274 -13.039  0.00  0.00    +0.143 C 
BRANCH  10  11
ATOM     11  O   UNK     1      36.964 -25.462 -12.804  0.00  0.00    -0.275 OA
BRANCH  11  12
ATOM     12  P   UNK     1      36.186 -24.376 -11.895  0.00  0.00    +0.473 P 
ATOM     13  O   UNK     1      36.864 -24.024 -10.603  0.00  0.00    -0.228 OA
BRANCH  12  14
ATOM     14  O   UNK     1      34.696 -24.992 -11.749  0.00  0.00    -0.303 OA
ATOM     15  H   UNK     1      34.065 -24.275 -11.582  0.00  0.00    +0.222 HD
ENDBRANCH  12  14
BRANCH  12  16
ATOM     16  O   UNK     1      35.977 -23.140 -12.916  0.00  0.00    -0.303 OA
ATOM     17  H   UNK     1      36.381 -22.340 -12.543  0.00  0.00    +0.222 HD
ENDBRANCH  12  16
ENDBRANCH  11  12
ENDBRANCH  10  11
ENDBRANCH   1  10
TORSDOF 8
ENDMDL
MODEL 9
REMARK VINA RESULT:      -5.9      2.820      4.643
REMARK  Name = 68841
REMARK  8 active torsions:
REMARK  status: ('A' for Active; 'I' for Inactive)
REMARK    1  A    between atoms: C_1  and  N_2
REMARK    2  A    between atoms: C_1  and  C_7
REMARK    3  A    between atoms: C_1  and  C_10
REMARK    4  A    between atoms: C_7  and  O_8
REMARK    5  A    between atoms: C_10  and  O_11
REMARK    6  A    between atoms: O_11  and  P_12
REMARK    7  A    between atoms: P_12  and  O_14
REMARK    8  A    between atoms: P_12  and  O_16
REMARK                            x       y       z     vdW  Elec       q    Type
REMARK                         _______ _______ _______ _____ _____    ______ ____
ROOT
ATOM      1  C   UNK     1      36.529 -23.592 -12.275  0.00  0.00    +0.066 C 
ENDROOT
BRANCH   1   2
ATOM      2  N   UNK     1      37.409 -23.007 -11.294  0.00  0.00    +0.390 N 
ATOM      3  H   UNK     1      36.918 -22.265 -10.795  0.00  0.00    -0.088 HD
ATOM      4  H   UNK     1      38.228 -22.617 -11.762  0.00  0.00    -0.088 HD
ATOM      5  H   UNK     1      37.706 -23.723 -10.632  0.00  0.00    -0.088 HD
ENDBRANCH   1   2
BRANCH   1   7
ATOM      6  O   UNK     1      35.311 -24.967 -10.677  0.00  0.00    -0.253 OA
ATOM      7  C   UNK     1      35.994 -24.883 -11.689  0.00  0.00    +0.295 C 
BRANCH   7   8
ATOM      8  O   UNK     1      36.403 -25.969 -12.396  0.00  0.00    -0.482 OA
ATOM      9  H   UNK     1      35.924 -26.772 -12.338  0.00  0.00    +0.295 HD
ENDBRANCH   7   8
ENDBRANCH   1   7
BRANCH   1  10
ATOM     10  C   UNK     1      37.248 -23.858 -13.589  0.00  0.00    +0.143 C 
BRANCH  10  11
ATOM     11  O   UNK     1      38.553 -24.353 -13.316  0.00  0.00    -0.275 OA
BRANCH  11  12
ATOM     12  P   UNK     1      39.345 -25.119 -14.498  0.00  0.00    +0.473 P 
ATOM     13  O   UNK     1      38.953 -26.553 -14.701  0.00  0.00    -0.228 OA
BRANCH  12  14
ATOM     14  O   UNK     1      40.904 -24.873 -14.140  0.00  0.00    -0.303 OA
ATOM     15  H   UNK     1      41.217 -25.582 -13.557  0.00  0.00    +0.222 HD
ENDBRANCH  12  14
BRANCH  12  16
ATOM     16  O   UNK     1      39.101 -24.157 -15.774  0.00  0.00    -0.303 OA
ATOM     17  H   UNK     1      39.621 -23.344 -15.671  0.00  0.00    +0.222 HD
ENDBRANCH  12  16
ENDBRANCH  11  12
ENDBRANCH  10  11
ENDBRANCH   1  10
TORSDOF 8
ENDMDL
