MODEL 1
REMARK VINA RESULT:      -9.3      0.000      0.000
REMARK  Name = 157920
REMARK  13 active torsions:
REMARK  status: ('A' for Active; 'I' for Inactive)
REMARK    1  A    between atoms: C_5  and  C_20
REMARK    2  A    between atoms: C_8  and  C_13
REMARK    3  A    between atoms: C_8  and  O_18
REMARK    4  A    between atoms: C_13  and  C_14
REMARK    5  A    between atoms: C_14  and  C_15
REMARK    6  A    between atoms: C_15  and  C_16
REMARK    7  A    between atoms: C_20  and  C_21
REMARK    8  A    between atoms: C_21  and  C_22
REMARK    9  A    between atoms: C_22  and  C_23
REMARK   10  A    between atoms: C_23  and  C_24
REMARK   11  A    between atoms: C_24  and  C_25
REMARK   12  A    between atoms: C_25  and  C_27
REMARK   13  A    between atoms: C_27  and  O_28
REMARK                            x       y       z     vdW  Elec       q    Type
REMARK                         _______ _______ _______ _____ _____    ______ ____
ROOT
ATOM      1  O   UNL     1      34.994 -23.816 -16.274  0.00  0.00    -0.332 OA
ATOM      2  O   UNL     1      32.972 -21.881 -20.115  0.00  0.00    -0.296 OA
ATOM      3  C   UNL     1      35.739 -22.312 -18.003  0.00  0.00    +0.035 C 
ATOM      4  C   UNL     1      34.584 -22.738 -17.101  0.00  0.00    +0.125 C 
ATOM      5  C   UNL     1      35.073 -21.364 -18.998  0.00  0.00    +0.060 C 
ATOM      6  C   UNL     1      36.863 -21.763 -17.140  0.00  0.00    +0.008 C 
ATOM      7  C   UNL     1      33.490 -23.106 -18.094  0.00  0.00    +0.094 C 
ATOM      8  C   UNL     1      36.050 -23.430 -15.372  0.00  0.00    +0.241 C 
ATOM      9  C   UNL     1      37.264 -22.852 -16.135  0.00  0.00    +0.062 C 
ATOM     10  C   UNL     1      33.746 -22.089 -19.190  0.00  0.00    +0.153 C 
ENDROOT
BRANCH   8  13
ATOM     11  F   UNL     1      35.388 -25.148 -13.932  0.00  0.00    -0.199 F 
ATOM     12  F   UNL     1      36.823 -25.632 -15.499  0.00  0.00    -0.199 F 
ATOM     13  C   UNL     1      36.467 -24.684 -14.602  0.00  0.00    +0.309 C 
BRANCH  13  14
ATOM     14  C   UNL     1      37.610 -24.415 -13.639  0.00  0.00    +0.072 C 
BRANCH  14  15
ATOM     15  C   UNL     1      38.439 -25.680 -13.398  0.00  0.00    +0.006 C 
BRANCH  15  16
ATOM     16  C   UNL     1      39.917 -25.439 -13.701  0.00  0.00    +0.000 C 
ATOM     17  C   UNL     1      40.188 -25.446 -15.198  0.00  0.00    +0.000 C 
ENDBRANCH  15  16
ENDBRANCH  14  15
ENDBRANCH  13  14
ENDBRANCH   8  13
BRANCH   8  18
ATOM     18  O   UNL     1      35.607 -22.447 -14.431  0.00  0.00    -0.360 OA
ATOM     19  H   UNL     1      34.640 -22.387 -14.458  0.00  0.00    +0.213 HD
ENDBRANCH   8  18
BRANCH   5  20
ATOM     20  C   UNL     1      35.849 -21.205 -20.290  0.00  0.00    +0.007 C 
BRANCH  20  21
ATOM     21  C   UNL     1      36.235 -19.745 -20.542  0.00  0.00    +0.000 C 
BRANCH  21  22
ATOM     22  C   UNL     1      35.038 -18.930 -21.036  0.00  0.00    +0.000 C 
BRANCH  22  23
ATOM     23  C   UNL     1      34.518 -19.377 -22.404  0.00  0.00    +0.001 C 
BRANCH  23  24
ATOM     24  C   UNL     1      35.334 -18.911 -23.613  0.00  0.00    +0.012 C 
BRANCH  24  25
ATOM     25  C   UNL     1      34.484 -18.283 -24.717  0.00  0.00    +0.109 C 
BRANCH  25  27
ATOM     26  O   UNL     1      35.077 -16.078 -23.869  0.00  0.00    -0.250 OA
ATOM     27  C   UNL     1      34.661 -16.783 -24.779  0.00  0.00    +0.314 C 
BRANCH  27  28
ATOM     28  O   UNL     1      34.303 -16.291 -25.994  0.00  0.00    -0.480 OA
ATOM     29  H   UNL     1      34.196 -15.368 -26.113  0.00  0.00    +0.295 HD
ENDBRANCH  27  28
ENDBRANCH  25  27
ENDBRANCH  24  25
ENDBRANCH  23  24
ENDBRANCH  22  23
ENDBRANCH  21  22
ENDBRANCH  20  21
ENDBRANCH   5  20
TORSDOF 13
ENDMDL
MODEL 2
REMARK VINA RESULT:      -9.2      4.522      9.698
REMARK  Name = 157920
REMARK  13 active torsions:
REMARK  status: ('A' for Active; 'I' for Inactive)
REMARK    1  A    between atoms: C_5  and  C_20
REMARK    2  A    between atoms: C_8  and  C_13
REMARK    3  A    between atoms: C_8  and  O_18
REMARK    4  A    between atoms: C_13  and  C_14
REMARK    5  A    between atoms: C_14  and  C_15
REMARK    6  A    between atoms: C_15  and  C_16
REMARK    7  A    between atoms: C_20  and  C_21
REMARK    8  A    between atoms: C_21  and  C_22
REMARK    9  A    between atoms: C_22  and  C_23
REMARK   10  A    between atoms: C_23  and  C_24
REMARK   11  A    between atoms: C_24  and  C_25
REMARK   12  A    between atoms: C_25  and  C_27
REMARK   13  A    between atoms: C_27  and  O_28
REMARK                            x       y       z     vdW  Elec       q    Type
REMARK                         _______ _______ _______ _____ _____    ______ ____
ROOT
ATOM      1  O   UNL     1      35.768 -19.472 -21.481  0.00  0.00    -0.332 OA
ATOM      2  O   UNL     1      36.597 -22.469 -17.887  0.00  0.00    -0.296 OA
ATOM      3  C   UNL     1      34.397 -20.941 -20.152  0.00  0.00    +0.035 C 
ATOM      4  C   UNL     1      35.584 -19.983 -20.170  0.00  0.00    +0.125 C 
ATOM      5  C   UNL     1      34.503 -21.602 -18.779  0.00  0.00    +0.060 C 
ATOM      6  C   UNL     1      33.131 -20.165 -20.472  0.00  0.00    +0.008 C 
ATOM      7  C   UNL     1      36.735 -20.852 -19.681  0.00  0.00    +0.094 C 
ATOM      8  C   UNL     1      34.643 -18.681 -21.913  0.00  0.00    +0.241 C 
ATOM      9  C   UNL     1      33.324 -19.482 -21.834  0.00  0.00    +0.062 C 
ATOM     10  C   UNL     1      36.018 -21.737 -18.680  0.00  0.00    +0.153 C 
ENDROOT
BRANCH   8  13
ATOM     11  F   UNL     1      36.146 -18.699 -23.703  0.00  0.00    -0.199 F 
ATOM     12  F   UNL     1      34.024 -18.898 -24.156  0.00  0.00    -0.199 F 
ATOM     13  C   UNL     1      34.913 -18.263 -23.358  0.00  0.00    +0.309 C 
BRANCH  13  14
ATOM     14  C   UNL     1      34.814 -16.760 -23.552  0.00  0.00    +0.072 C 
BRANCH  14  15
ATOM     15  C   UNL     1      34.421 -16.413 -24.991  0.00  0.00    +0.006 C 
BRANCH  15  16
ATOM     16  C   UNL     1      33.484 -15.207 -25.034  0.00  0.00    +0.000 C 
ATOM     17  C   UNL     1      33.048 -14.889 -26.455  0.00  0.00    +0.000 C 
ENDBRANCH  15  16
ENDBRANCH  14  15
ENDBRANCH  13  14
ENDBRANCH   8  13
BRANCH   8  18
ATOM     18  O   UNL     1      34.494 -17.499 -21.120  0.00  0.00    -0.360 OA
ATOM     19  H   UNL     1      34.035 -17.720 -20.294  0.00  0.00    +0.213 HD
ENDBRANCH   8  18
BRANCH   5  20
ATOM     20  C   UNL     1      33.787 -22.936 -18.697  0.00  0.00    +0.007 C 
BRANCH  20  21
ATOM     21  C   UNL     1      33.386 -23.275 -17.258  0.00  0.00    +0.000 C 
BRANCH  21  22
ATOM     22  C   UNL     1      31.916 -22.943 -16.996  0.00  0.00    +0.000 C 
BRANCH  22  23
ATOM     23  C   UNL     1      31.457 -23.287 -15.577  0.00  0.00    +0.001 C 
BRANCH  23  24
ATOM     24  C   UNL     1      30.054 -22.805 -15.194  0.00  0.00    +0.012 C 
BRANCH  24  25
ATOM     25  C   UNL     1      28.934 -23.639 -15.815  0.00  0.00    +0.109 C 
BRANCH  25  27
ATOM     26  O   UNL     1      27.766 -21.672 -16.650  0.00  0.00    -0.250 OA
ATOM     27  C   UNL     1      28.112 -22.836 -16.797  0.00  0.00    +0.314 C 
BRANCH  27  28
ATOM     28  O   UNL     1      27.797 -23.570 -17.896  0.00  0.00    -0.480 OA
ATOM     29  H   UNL     1      27.431 -24.426 -17.799  0.00  0.00    +0.295 HD
ENDBRANCH  27  28
ENDBRANCH  25  27
ENDBRANCH  24  25
ENDBRANCH  23  24
ENDBRANCH  22  23
ENDBRANCH  21  22
ENDBRANCH  20  21
ENDBRANCH   5  20
TORSDOF 13
ENDMDL
MODEL 3
REMARK VINA RESULT:      -9.2      5.519     10.905
REMARK  Name = 157920
REMARK  13 active torsions:
REMARK  status: ('A' for Active; 'I' for Inactive)
REMARK    1  A    between atoms: C_5  and  C_20
REMARK    2  A    between atoms: C_8  and  C_13
REMARK    3  A    between atoms: C_8  and  O_18
REMARK    4  A    between atoms: C_13  and  C_14
REMARK    5  A    between atoms: C_14  and  C_15
REMARK    6  A    between atoms: C_15  and  C_16
REMARK    7  A    between atoms: C_20  and  C_21
REMARK    8  A    between atoms: C_21  and  C_22
REMARK    9  A    between atoms: C_22  and  C_23
REMARK   10  A    between atoms: C_23  and  C_24
REMARK   11  A    between atoms: C_24  and  C_25
REMARK   12  A    between atoms: C_25  and  C_27
REMARK   13  A    between atoms: C_27  and  O_28
REMARK                            x       y       z     vdW  Elec       q    Type
REMARK                         _______ _______ _______ _____ _____    ______ ____
ROOT
ATOM      1  O   UNL     1      33.513 -15.321 -23.552  0.00  0.00    -0.332 OA
ATOM      2  O   UNL     1      35.082 -19.704 -24.510  0.00  0.00    -0.296 OA
ATOM      3  C   UNL     1      34.363 -17.143 -22.223  0.00  0.00    +0.035 C 
ATOM      4  C   UNL     1      34.465 -16.373 -23.537  0.00  0.00    +0.125 C 
ATOM      5  C   UNL     1      35.228 -18.376 -22.473  0.00  0.00    +0.060 C 
ATOM      6  C   UNL     1      34.751 -16.221 -21.080  0.00  0.00    +0.008 C 
ATOM      7  C   UNL     1      34.211 -17.448 -24.585  0.00  0.00    +0.094 C 
ATOM      8  C   UNL     1      33.775 -14.344 -22.525  0.00  0.00    +0.241 C 
ATOM      9  C   UNL     1      33.829 -14.994 -21.124  0.00  0.00    +0.062 C 
ATOM     10  C   UNL     1      34.868 -18.647 -23.930  0.00  0.00    +0.153 C 
ENDROOT
BRANCH   8  13
ATOM     11  F   UNL     1      33.156 -12.146 -23.024  0.00  0.00    -0.199 F 
ATOM     12  F   UNL     1      31.739 -13.732 -23.495  0.00  0.00    -0.199 F 
ATOM     13  C   UNL     1      32.645 -13.316 -22.580  0.00  0.00    +0.309 C 
BRANCH  13  14
ATOM     14  C   UNL     1      31.977 -13.121 -21.230  0.00  0.00    +0.072 C 
BRANCH  14  15
ATOM     15  C   UNL     1      31.466 -11.686 -21.069  0.00  0.00    +0.006 C 
BRANCH  15  16
ATOM     16  C   UNL     1      31.462 -11.262 -19.601  0.00  0.00    +0.000 C 
ATOM     17  C   UNL     1      31.890  -9.812 -19.438  0.00  0.00    +0.000 C 
ENDBRANCH  15  16
ENDBRANCH  14  15
ENDBRANCH  13  14
ENDBRANCH   8  13
BRANCH   8  18
ATOM     18  O   UNL     1      35.015 -13.665 -22.747  0.00  0.00    -0.360 OA
ATOM     19  H   UNL     1      35.471 -13.539 -21.901  0.00  0.00    +0.213 HD
ENDBRANCH   8  18
BRANCH   5  20
ATOM     20  C   UNL     1      34.896 -19.539 -21.559  0.00  0.00    +0.007 C 
BRANCH  20  21
ATOM     21  C   UNL     1      33.396 -19.617 -21.265  0.00  0.00    +0.000 C 
BRANCH  21  22
ATOM     22  C   UNL     1      33.112 -20.496 -20.046  0.00  0.00    +0.000 C 
BRANCH  22  23
ATOM     23  C   UNL     1      34.328 -21.299 -19.575  0.00  0.00    +0.001 C 
BRANCH  23  24
ATOM     24  C   UNL     1      34.049 -22.738 -19.133  0.00  0.00    +0.012 C 
BRANCH  24  25
ATOM     25  C   UNL     1      33.144 -22.833 -17.905  0.00  0.00    +0.109 C 
BRANCH  25  27
ATOM     26  O   UNL     1      33.408 -23.581 -15.603  0.00  0.00    -0.250 OA
ATOM     27  C   UNL     1      33.906 -23.271 -16.676  0.00  0.00    +0.314 C 
BRANCH  27  28
ATOM     28  O   UNL     1      35.246 -23.288 -16.904  0.00  0.00    -0.480 OA
ATOM     29  H   UNL     1      35.597 -22.873 -17.667  0.00  0.00    +0.295 HD
ENDBRANCH  27  28
ENDBRANCH  25  27
ENDBRANCH  24  25
ENDBRANCH  23  24
ENDBRANCH  22  23
ENDBRANCH  21  22
ENDBRANCH  20  21
ENDBRANCH   5  20
TORSDOF 13
ENDMDL
MODEL 4
REMARK VINA RESULT:      -9.1      5.700      8.962
REMARK  Name = 157920
REMARK  13 active torsions:
REMARK  status: ('A' for Active; 'I' for Inactive)
REMARK    1  A    between atoms: C_5  and  C_20
REMARK    2  A    between atoms: C_8  and  C_13
REMARK    3  A    between atoms: C_8  and  O_18
REMARK    4  A    between atoms: C_13  and  C_14
REMARK    5  A    between atoms: C_14  and  C_15
REMARK    6  A    between atoms: C_15  and  C_16
REMARK    7  A    between atoms: C_20  and  C_21
REMARK    8  A    between atoms: C_21  and  C_22
REMARK    9  A    between atoms: C_22  and  C_23
REMARK   10  A    between atoms: C_23  and  C_24
REMARK   11  A    between atoms: C_24  and  C_25
REMARK   12  A    between atoms: C_25  and  C_27
REMARK   13  A    between atoms: C_27  and  O_28
REMARK                            x       y       z     vdW  Elec       q    Type
REMARK                         _______ _______ _______ _____ _____    ______ ____
ROOT
ATOM      1  O   UNL     1      33.424 -17.185 -21.059  0.00  0.00    -0.332 OA
ATOM      2  O   UNL     1      31.949 -12.668 -21.154  0.00  0.00    -0.296 OA
ATOM      3  C   UNL     1      33.718 -15.340 -22.581  0.00  0.00    +0.035 C 
ATOM      4  C   UNL     1      33.604 -15.779 -21.124  0.00  0.00    +0.125 C 
ATOM      5  C   UNL     1      33.626 -13.818 -22.494  0.00  0.00    +0.060 C 
ATOM      6  C   UNL     1      34.977 -15.943 -23.181  0.00  0.00    +0.008 C 
ATOM      7  C   UNL     1      32.410 -14.981 -20.617  0.00  0.00    +0.094 C 
ATOM      8  C   UNL     1      34.565 -17.898 -21.576  0.00  0.00    +0.241 C 
ATOM      9  C   UNL     1      34.893 -17.469 -23.025  0.00  0.00    +0.062 C 
ATOM     10  C   UNL     1      32.580 -13.690 -21.393  0.00  0.00    +0.153 C 
ENDROOT
BRANCH   8  13
ATOM     11  F   UNL     1      32.897 -19.512 -21.298  0.00  0.00    -0.199 F 
ATOM     12  F   UNL     1      34.457 -19.907 -22.767  0.00  0.00    -0.199 F 
ATOM     13  C   UNL     1      34.222 -19.387 -21.540  0.00  0.00    +0.309 C 
BRANCH  13  14
ATOM     14  C   UNL     1      35.021 -20.138 -20.489  0.00  0.00    +0.072 C 
BRANCH  14  15
ATOM     15  C   UNL     1      34.180 -21.239 -19.837  0.00  0.00    +0.006 C 
BRANCH  15  16
ATOM     16  C   UNL     1      34.997 -22.028 -18.815  0.00  0.00    +0.000 C 
ATOM     17  C   UNL     1      36.429 -21.521 -18.733  0.00  0.00    +0.000 C 
ENDBRANCH  15  16
ENDBRANCH  14  15
ENDBRANCH  13  14
ENDBRANCH   8  13
BRANCH   8  18
ATOM     18  O   UNL     1      35.730 -17.682 -20.774  0.00  0.00    -0.360 OA
ATOM     19  H   UNL     1      35.576 -18.028 -19.881  0.00  0.00    +0.213 HD
ENDBRANCH   8  18
BRANCH   5  20
ATOM     20  C   UNL     1      33.195 -13.166 -23.794  0.00  0.00    +0.007 C 
BRANCH  20  21
ATOM     21  C   UNL     1      33.906 -11.829 -24.019  0.00  0.00    +0.000 C 
BRANCH  21  22
ATOM     22  C   UNL     1      32.980 -10.649 -23.724  0.00  0.00    +0.000 C 
BRANCH  22  23
ATOM     23  C   UNL     1      33.725  -9.333 -23.485  0.00  0.00    +0.001 C 
BRANCH  23  24
ATOM     24  C   UNL     1      33.052  -8.349 -22.525  0.00  0.00    +0.012 C 
BRANCH  24  25
ATOM     25  C   UNL     1      32.040  -9.008 -21.588  0.00  0.00    +0.109 C 
BRANCH  25  27
ATOM     26  O   UNL     1      32.099  -9.565 -19.218  0.00  0.00    -0.250 OA
ATOM     27  C   UNL     1      32.411  -8.818 -20.135  0.00  0.00    +0.314 C 
BRANCH  27  28
ATOM     28  O   UNL     1      33.156  -7.696 -19.956  0.00  0.00    -0.480 OA
ATOM     29  H   UNL     1      33.979  -7.745 -19.512  0.00  0.00    +0.295 HD
ENDBRANCH  27  28
ENDBRANCH  25  27
ENDBRANCH  24  25
ENDBRANCH  23  24
ENDBRANCH  22  23
ENDBRANCH  21  22
ENDBRANCH  20  21
ENDBRANCH   5  20
TORSDOF 13
ENDMDL
MODEL 5
REMARK VINA RESULT:      -9.1      3.988      9.694
REMARK  Name = 157920
REMARK  13 active torsions:
REMARK  status: ('A' for Active; 'I' for Inactive)
REMARK    1  A    between atoms: C_5  and  C_20
REMARK    2  A    between atoms: C_8  and  C_13
REMARK    3  A    between atoms: C_8  and  O_18
REMARK    4  A    between atoms: C_13  and  C_14
REMARK    5  A    between atoms: C_14  and  C_15
REMARK    6  A    between atoms: C_15  and  C_16
REMARK    7  A    between atoms: C_20  and  C_21
REMARK    8  A    between atoms: C_21  and  C_22
REMARK    9  A    between atoms: C_22  and  C_23
REMARK   10  A    between atoms: C_23  and  C_24
REMARK   11  A    between atoms: C_24  and  C_25
REMARK   12  A    between atoms: C_25  and  C_27
REMARK   13  A    between atoms: C_27  and  O_28
REMARK                            x       y       z     vdW  Elec       q    Type
REMARK                         _______ _______ _______ _____ _____    ______ ____
ROOT
ATOM      1  O   UNL     1      33.868 -19.029 -20.984  0.00  0.00    -0.332 OA
ATOM      2  O   UNL     1      32.554 -22.703 -18.271  0.00  0.00    -0.296 OA
ATOM      3  C   UNL     1      35.046 -20.671 -19.672  0.00  0.00    +0.035 C 
ATOM      4  C   UNL     1      33.859 -20.392 -20.589  0.00  0.00    +0.125 C 
ATOM      5  C   UNL     1      34.744 -22.064 -19.124  0.00  0.00    +0.060 C 
ATOM      6  C   UNL     1      36.333 -20.480 -20.458  0.00  0.00    +0.008 C 
ATOM      7  C   UNL     1      32.663 -20.775 -19.729  0.00  0.00    +0.094 C 
ATOM      8  C   UNL     1      35.032 -18.704 -21.771  0.00  0.00    +0.241 C 
ATOM      9  C   UNL     1      36.338 -19.050 -21.019  0.00  0.00    +0.062 C 
ATOM     10  C   UNL     1      33.233 -21.946 -18.952  0.00  0.00    +0.153 C 
ENDROOT
BRANCH   8  13
ATOM     11  F   UNL     1      36.106 -16.859 -22.723  0.00  0.00    -0.199 F 
ATOM     12  F   UNL     1      33.936 -16.969 -22.888  0.00  0.00    -0.199 F 
ATOM     13  C   UNL     1      34.979 -17.204 -22.059  0.00  0.00    +0.309 C 
BRANCH  13  14
ATOM     14  C   UNL     1      34.840 -16.378 -20.793  0.00  0.00    +0.072 C 
BRANCH  14  15
ATOM     15  C   UNL     1      34.446 -14.934 -21.115  0.00  0.00    +0.006 C 
BRANCH  15  16
ATOM     16  C   UNL     1      32.992 -14.658 -20.731  0.00  0.00    +0.000 C 
ATOM     17  C   UNL     1      32.319 -13.728 -21.727  0.00  0.00    +0.000 C 
ENDBRANCH  15  16
ENDBRANCH  14  15
ENDBRANCH  13  14
ENDBRANCH   8  13
BRANCH   8  18
ATOM     18  O   UNL     1      35.038 -19.406 -23.018  0.00  0.00    -0.360 OA
ATOM     19  H   UNL     1      35.700 -20.114 -22.988  0.00  0.00    +0.213 HD
ENDBRANCH   8  18
BRANCH   5  20
ATOM     20  C   UNL     1      35.462 -22.369 -17.824  0.00  0.00    +0.007 C 
BRANCH  20  21
ATOM     21  C   UNL     1      36.839 -21.700 -17.769  0.00  0.00    +0.000 C 
BRANCH  21  22
ATOM     22  C   UNL     1      37.561 -22.020 -16.460  0.00  0.00    +0.000 C 
BRANCH  22  23
ATOM     23  C   UNL     1      36.702 -22.804 -15.464  0.00  0.00    +0.001 C 
BRANCH  23  24
ATOM     24  C   UNL     1      37.384 -23.996 -14.787  0.00  0.00    +0.012 C 
BRANCH  24  25
ATOM     25  C   UNL     1      36.674 -25.326 -15.038  0.00  0.00    +0.109 C 
BRANCH  25  27
ATOM     26  O   UNL     1      38.250 -27.156 -14.720  0.00  0.00    -0.250 OA
ATOM     27  C   UNL     1      37.335 -26.465 -14.295  0.00  0.00    +0.314 C 
BRANCH  27  28
ATOM     28  O   UNL     1      36.787 -26.636 -13.063  0.00  0.00    -0.480 OA
ATOM     29  H   UNL     1      37.222 -26.300 -12.305  0.00  0.00    +0.295 HD
ENDBRANCH  27  28
ENDBRANCH  25  27
ENDBRANCH  24  25
ENDBRANCH  23  24
ENDBRANCH  22  23
ENDBRANCH  21  22
ENDBRANCH  20  21
ENDBRANCH   5  20
TORSDOF 13
ENDMDL
MODEL 6
REMARK VINA RESULT:      -9.0      3.825      8.759
REMARK  Name = 157920
REMARK  13 active torsions:
REMARK  status: ('A' for Active; 'I' for Inactive)
REMARK    1  A    between atoms: C_5  and  C_20
REMARK    2  A    between atoms: C_8  and  C_13
REMARK    3  A    between atoms: C_8  and  O_18
REMARK    4  A    between atoms: C_13  and  C_14
REMARK    5  A    between atoms: C_14  and  C_15
REMARK    6  A    between atoms: C_15  and  C_16
REMARK    7  A    between atoms: C_20  and  C_21
REMARK    8  A    between atoms: C_21  and  C_22
REMARK    9  A    between atoms: C_22  and  C_23
REMARK   10  A    between atoms: C_23  and  C_24
REMARK   11  A    between atoms: C_24  and  C_25
REMARK   12  A    between atoms: C_25  and  C_27
REMARK   13  A    between atoms: C_27  and  O_28
REMARK                            x       y       z     vdW  Elec       q    Type
REMARK                         _______ _______ _______ _____ _____    ______ ____
ROOT
ATOM      1  O   UNL     1      32.512 -22.628 -17.636  0.00  0.00    -0.332 OA
ATOM      2  O   UNL     1      31.570 -24.514 -13.377  0.00  0.00    -0.296 OA
ATOM      3  C   UNL     1      33.837 -23.196 -15.707  0.00  0.00    +0.035 C 
ATOM      4  C   UNL     1      32.659 -23.581 -16.596  0.00  0.00    +0.125 C 
ATOM      5  C   UNL     1      33.692 -24.134 -14.510  0.00  0.00    +0.060 C 
ATOM      6  C   UNL     1      35.118 -23.275 -16.521  0.00  0.00    +0.008 C 
ATOM      7  C   UNL     1      31.490 -23.615 -15.622  0.00  0.00    +0.094 C 
ATOM      8  C   UNL     1      33.654 -22.610 -18.516  0.00  0.00    +0.241 C 
ATOM      9  C   UNL     1      34.964 -22.351 -17.738  0.00  0.00    +0.062 C 
ATOM     10  C   UNL     1      32.174 -24.136 -14.373  0.00  0.00    +0.153 C 
ENDROOT
BRANCH   8  13
ATOM     11  F   UNL     1      32.841 -22.031 -20.630  0.00  0.00    -0.199 F 
ATOM     12  F   UNL     1      32.544 -20.612 -19.003  0.00  0.00    -0.199 F 
ATOM     13  C   UNL     1      33.423 -21.493 -19.534  0.00  0.00    +0.309 C 
BRANCH  13  14
ATOM     14  C   UNL     1      34.711 -20.785 -19.915  0.00  0.00    +0.072 C 
BRANCH  14  15
ATOM     15  C   UNL     1      34.449 -19.671 -20.934  0.00  0.00    +0.006 C 
BRANCH  15  16
ATOM     16  C   UNL     1      35.723 -18.881 -21.229  0.00  0.00    +0.000 C 
ATOM     17  C   UNL     1      36.941 -19.525 -20.587  0.00  0.00    +0.000 C 
ENDBRANCH  15  16
ENDBRANCH  14  15
ENDBRANCH  13  14
ENDBRANCH   8  13
BRANCH   8  18
ATOM     18  O   UNL     1      33.794 -23.846 -19.224  0.00  0.00    -0.360 OA
ATOM     19  H   UNL     1      33.204 -23.846 -19.994  0.00  0.00    +0.213 HD
ENDBRANCH   8  18
BRANCH   5  20
ATOM     20  C   UNL     1      34.395 -23.632 -13.263  0.00  0.00    +0.007 C 
BRANCH  20  21
ATOM     21  C   UNL     1      35.586 -24.519 -12.890  0.00  0.00    +0.000 C 
BRANCH  21  22
ATOM     22  C   UNL     1      36.914 -23.832 -13.212  0.00  0.00    +0.000 C 
BRANCH  22  23
ATOM     23  C   UNL     1      38.091 -24.363 -12.388  0.00  0.00    +0.001 C 
BRANCH  23  24
ATOM     24  C   UNL     1      38.759 -25.634 -12.919  0.00  0.00    +0.012 C 
BRANCH  24  25
ATOM     25  C   UNL     1      38.808 -25.705 -14.445  0.00  0.00    +0.109 C 
BRANCH  25  27
ATOM     26  O   UNL     1      41.066 -24.796 -14.373  0.00  0.00    -0.250 OA
ATOM     27  C   UNL     1      40.188 -25.394 -14.979  0.00  0.00    +0.314 C 
BRANCH  27  28
ATOM     28  O   UNL     1      40.350 -25.872 -16.240  0.00  0.00    -0.480 OA
ATOM     29  H   UNL     1      40.610 -26.761 -16.375  0.00  0.00    +0.295 HD
ENDBRANCH  27  28
ENDBRANCH  25  27
ENDBRANCH  24  25
ENDBRANCH  23  24
ENDBRANCH  22  23
ENDBRANCH  21  22
ENDBRANCH  20  21
ENDBRANCH   5  20
TORSDOF 13
ENDMDL
MODEL 7
REMARK VINA RESULT:      -8.9      3.916      6.852
REMARK  Name = 157920
REMARK  13 active torsions:
REMARK  status: ('A' for Active; 'I' for Inactive)
REMARK    1  A    between atoms: C_5  and  C_20
REMARK    2  A    between atoms: C_8  and  C_13
REMARK    3  A    between atoms: C_8  and  O_18
REMARK    4  A    between atoms: C_13  and  C_14
REMARK    5  A    between atoms: C_14  and  C_15
REMARK    6  A    between atoms: C_15  and  C_16
REMARK    7  A    between atoms: C_20  and  C_21
REMARK    8  A    between atoms: C_21  and  C_22
REMARK    9  A    between atoms: C_22  and  C_23
REMARK   10  A    between atoms: C_23  and  C_24
REMARK   11  A    between atoms: C_24  and  C_25
REMARK   12  A    between atoms: C_25  and  C_27
REMARK   13  A    between atoms: C_27  and  O_28
REMARK                            x       y       z     vdW  Elec       q    Type
REMARK                         _______ _______ _______ _____ _____    ______ ____
ROOT
ATOM      1  O   UNL     1      33.601 -23.802 -12.949  0.00  0.00    -0.332 OA
ATOM      2  O   UNL     1      38.338 -23.982 -12.619  0.00  0.00    -0.296 OA
ATOM      3  C   UNL     1      35.410 -23.776 -14.539  0.00  0.00    +0.035 C 
ATOM      4  C   UNL     1      34.885 -24.340 -13.223  0.00  0.00    +0.125 C 
ATOM      5  C   UNL     1      36.873 -24.217 -14.549  0.00  0.00    +0.060 C 
ATOM      6  C   UNL     1      34.516 -24.251 -15.672  0.00  0.00    +0.008 C 
ATOM      7  C   UNL     1      35.953 -23.924 -12.220  0.00  0.00    +0.094 C 
ATOM      8  C   UNL     1      32.630 -24.197 -13.939  0.00  0.00    +0.241 C 
ATOM      9  C   UNL     1      33.080 -23.802 -15.364  0.00  0.00    +0.062 C 
ATOM     10  C   UNL     1      37.202 -24.034 -13.072  0.00  0.00    +0.153 C 
ENDROOT
BRANCH   8  13
ATOM     11  F   UNL     1      30.554 -24.346 -12.875  0.00  0.00    -0.199 F 
ATOM     12  F   UNL     1      31.603 -22.438 -12.793  0.00  0.00    -0.199 F 
ATOM     13  C   UNL     1      31.319 -23.492 -13.593  0.00  0.00    +0.309 C 
BRANCH  13  14
ATOM     14  C   UNL     1      30.570 -23.026 -14.829  0.00  0.00    +0.072 C 
BRANCH  14  15
ATOM     15  C   UNL     1      29.403 -23.963 -15.153  0.00  0.00    +0.006 C 
BRANCH  15  16
ATOM     16  C   UNL     1      28.840 -23.685 -16.547  0.00  0.00    +0.000 C 
ATOM     17  C   UNL     1      27.953 -22.450 -16.554  0.00  0.00    +0.000 C 
ENDBRANCH  15  16
ENDBRANCH  14  15
ENDBRANCH  13  14
ENDBRANCH   8  13
BRANCH   8  18
ATOM     18  O   UNL     1      32.403 -25.610 -13.920  0.00  0.00    -0.360 OA
ATOM     19  H   UNL     1      32.959 -26.018 -13.238  0.00  0.00    +0.213 HD
ENDBRANCH   8  18
BRANCH   5  20
ATOM     20  C   UNL     1      37.749 -23.376 -15.457  0.00  0.00    +0.007 C 
BRANCH  20  21
ATOM     21  C   UNL     1      37.215 -21.948 -15.594  0.00  0.00    +0.000 C 
BRANCH  21  22
ATOM     22  C   UNL     1      37.223 -21.488 -17.053  0.00  0.00    +0.000 C 
BRANCH  22  23
ATOM     23  C   UNL     1      35.973 -21.905 -17.832  0.00  0.00    +0.001 C 
BRANCH  23  24
ATOM     24  C   UNL     1      35.876 -21.382 -19.268  0.00  0.00    +0.012 C 
BRANCH  24  25
ATOM     25  C   UNL     1      34.440 -21.267 -19.778  0.00  0.00    +0.109 C 
BRANCH  25  27
ATOM     26  O   UNL     1      32.587 -22.244 -18.536  0.00  0.00    -0.250 OA
ATOM     27  C   UNL     1      33.566 -22.384 -19.256  0.00  0.00    +0.314 C 
BRANCH  27  28
ATOM     28  O   UNL     1      33.997 -23.596 -19.694  0.00  0.00    -0.480 OA
ATOM     29  H   UNL     1      34.853 -23.899 -19.467  0.00  0.00    +0.295 HD
ENDBRANCH  27  28
ENDBRANCH  25  27
ENDBRANCH  24  25
ENDBRANCH  23  24
ENDBRANCH  22  23
ENDBRANCH  21  22
ENDBRANCH  20  21
ENDBRANCH   5  20
TORSDOF 13
ENDMDL
MODEL 8
REMARK VINA RESULT:      -8.8      8.179     13.942
REMARK  Name = 157920
REMARK  13 active torsions:
REMARK  status: ('A' for Active; 'I' for Inactive)
REMARK    1  A    between atoms: C_5  and  C_20
REMARK    2  A    between atoms: C_8  and  C_13
REMARK    3  A    between atoms: C_8  and  O_18
REMARK    4  A    between atoms: C_13  and  C_14
REMARK    5  A    between atoms: C_14  and  C_15
REMARK    6  A    between atoms: C_15  and  C_16
REMARK    7  A    between atoms: C_20  and  C_21
REMARK    8  A    between atoms: C_21  and  C_22
REMARK    9  A    between atoms: C_22  and  C_23
REMARK   10  A    between atoms: C_23  and  C_24
REMARK   11  A    between atoms: C_24  and  C_25
REMARK   12  A    between atoms: C_25  and  C_27
REMARK   13  A    between atoms: C_27  and  O_28
REMARK                            x       y       z     vdW  Elec       q    Type
REMARK                         _______ _______ _______ _____ _____    ______ ____
ROOT
ATOM      1  O   UNL     1      32.722 -10.108 -22.159  0.00  0.00    -0.332 OA
ATOM      2  O   UNL     1      32.071 -14.800 -21.778  0.00  0.00    -0.296 OA
ATOM      3  C   UNL     1      33.496 -12.029 -23.389  0.00  0.00    +0.035 C 
ATOM      4  C   UNL     1      32.338 -11.391 -22.628  0.00  0.00    +0.125 C 
ATOM      5  C   UNL     1      33.035 -13.473 -23.578  0.00  0.00    +0.060 C 
ATOM      6  C   UNL     1      33.783 -11.206 -24.634  0.00  0.00    +0.008 C 
ATOM      7  C   UNL     1      32.061 -12.395 -21.518  0.00  0.00    +0.094 C 
ATOM      8  C   UNL     1      33.002  -9.200 -23.243  0.00  0.00    +0.241 C 
ATOM      9  C   UNL     1      34.084  -9.767 -24.191  0.00  0.00    +0.062 C 
ATOM     10  C   UNL     1      32.354 -13.700 -22.233  0.00  0.00    +0.153 C 
ENDROOT
BRANCH   8  13
ATOM     11  F   UNL     1      33.322  -7.969 -21.282  0.00  0.00    -0.199 F 
ATOM     12  F   UNL     1      34.815  -7.777 -22.857  0.00  0.00    -0.199 F 
ATOM     13  C   UNL     1      33.488  -7.890 -22.622  0.00  0.00    +0.309 C 
BRANCH  13  14
ATOM     14  C   UNL     1      32.752  -6.682 -23.173  0.00  0.00    +0.072 C 
BRANCH  14  15
ATOM     15  C   UNL     1      31.945  -5.979 -22.078  0.00  0.00    +0.006 C 
BRANCH  15  16
ATOM     16  C   UNL     1      30.980  -4.954 -22.672  0.00  0.00    +0.000 C 
ATOM     17  C   UNL     1      31.196  -4.786 -24.168  0.00  0.00    +0.000 C 
ENDBRANCH  15  16
ENDBRANCH  14  15
ENDBRANCH  13  14
ENDBRANCH   8  13
BRANCH   8  18
ATOM     18  O   UNL     1      31.830  -8.927 -24.018  0.00  0.00    -0.360 OA
ATOM     19  H   UNL     1      32.088  -8.531 -24.866  0.00  0.00    +0.213 HD
ENDBRANCH   8  18
BRANCH   5  20
ATOM     20  C   UNL     1      34.175 -14.441 -23.831  0.00  0.00    +0.007 C 
BRANCH  20  21
ATOM     21  C   UNL     1      33.728 -15.630 -24.686  0.00  0.00    +0.000 C 
BRANCH  21  22
ATOM     22  C   UNL     1      34.894 -16.575 -24.978  0.00  0.00    +0.000 C 
BRANCH  22  23
ATOM     23  C   UNL     1      34.480 -18.047 -25.060  0.00  0.00    +0.001 C 
BRANCH  23  24
ATOM     24  C   UNL     1      34.826 -18.907 -23.842  0.00  0.00    +0.012 C 
BRANCH  24  25
ATOM     25  C   UNL     1      35.731 -18.200 -22.834  0.00  0.00    +0.109 C 
BRANCH  25  27
ATOM     26  O   UNL     1      35.290 -18.917 -20.549  0.00  0.00    -0.250 OA
ATOM     27  C   UNL     1      35.098 -18.127 -21.463  0.00  0.00    +0.314 C 
BRANCH  27  28
ATOM     28  O   UNL     1      34.273 -17.053 -21.354  0.00  0.00    -0.480 OA
ATOM     29  H   UNL     1      33.893 -16.837 -20.526  0.00  0.00    +0.295 HD
ENDBRANCH  27  28
ENDBRANCH  25  27
ENDBRANCH  24  25
ENDBRANCH  23  24
ENDBRANCH  22  23
ENDBRANCH  21  22
ENDBRANCH  20  21
ENDBRANCH   5  20
TORSDOF 13
ENDMDL
MODEL 9
REMARK VINA RESULT:      -8.7      5.740      9.055
REMARK  Name = 157920
REMARK  13 active torsions:
REMARK  status: ('A' for Active; 'I' for Inactive)
REMARK    1  A    between atoms: C_5  and  C_20
REMARK    2  A    between atoms: C_8  and  C_13
REMARK    3  A    between atoms: C_8  and  O_18
REMARK    4  A    between atoms: C_13  and  C_14
REMARK    5  A    between atoms: C_14  and  C_15
REMARK    6  A    between atoms: C_15  and  C_16
REMARK    7  A    between atoms: C_20  and  C_21
REMARK    8  A    between atoms: C_21  and  C_22
REMARK    9  A    between atoms: C_22  and  C_23
REMARK   10  A    between atoms: C_23  and  C_24
REMARK   11  A    between atoms: C_24  and  C_25
REMARK   12  A    between atoms: C_25  and  C_27
REMARK   13  A    between atoms: C_27  and  O_28
REMARK                            x       y       z     vdW  Elec       q    Type
REMARK                         _______ _______ _______ _____ _____    ______ ____
ROOT
ATOM      1  O   UNL     1      33.727 -17.275 -21.268  0.00  0.00    -0.332 OA
ATOM      2  O   UNL     1      32.063 -12.836 -20.925  0.00  0.00    -0.296 OA
ATOM      3  C   UNL     1      33.719 -15.353 -22.721  0.00  0.00    +0.035 C 
ATOM      4  C   UNL     1      33.836 -15.860 -21.287  0.00  0.00    +0.125 C 
ATOM      5  C   UNL     1      33.576 -13.842 -22.546  0.00  0.00    +0.060 C 
ATOM      6  C   UNL     1      34.902 -15.867 -23.524  0.00  0.00    +0.008 C 
ATOM      7  C   UNL     1      32.695 -15.145 -20.576  0.00  0.00    +0.094 C 
ATOM      8  C   UNL     1      34.810 -17.908 -21.977  0.00  0.00    +0.241 C 
ATOM      9  C   UNL     1      34.907 -17.400 -23.434  0.00  0.00    +0.062 C 
ATOM     10  C   UNL     1      32.696 -13.814 -21.302  0.00  0.00    +0.153 C 
ENDROOT
BRANCH   8  13
ATOM     11  F   UNL     1      33.215 -19.604 -21.774  0.00  0.00    -0.199 F 
ATOM     12  F   UNL     1      34.843 -19.905 -23.190  0.00  0.00    -0.199 F 
ATOM     13  C   UNL     1      34.540 -19.412 -21.967  0.00  0.00    +0.309 C 
BRANCH  13  14
ATOM     14  C   UNL     1      35.337 -20.135 -20.896  0.00  0.00    +0.072 C 
BRANCH  14  15
ATOM     15  C   UNL     1      34.413 -20.857 -19.911  0.00  0.00    +0.006 C 
BRANCH  15  16
ATOM     16  C   UNL     1      35.136 -22.011 -19.219  0.00  0.00    +0.000 C 
ATOM     17  C   UNL     1      36.436 -21.552 -18.577  0.00  0.00    +0.000 C 
ENDBRANCH  15  16
ENDBRANCH  14  15
ENDBRANCH  13  14
ENDBRANCH   8  13
BRANCH   8  18
ATOM     18  O   UNL     1      36.069 -17.669 -21.339  0.00  0.00    -0.360 OA
ATOM     19  H   UNL     1      35.925 -17.181 -20.513  0.00  0.00    +0.213 HD
ENDBRANCH   8  18
BRANCH   5  20
ATOM     20  C   UNL     1      32.935 -13.157 -23.737  0.00  0.00    +0.007 C 
BRANCH  20  21
ATOM     21  C   UNL     1      33.909 -12.203 -24.432  0.00  0.00    +0.000 C 
BRANCH  21  22
ATOM     22  C   UNL     1      33.664 -10.752 -24.013  0.00  0.00    +0.000 C 
BRANCH  22  23
ATOM     23  C   UNL     1      34.836  -9.819 -24.329  0.00  0.00    +0.001 C 
BRANCH  23  24
ATOM     24  C   UNL     1      34.670  -8.364 -23.883  0.00  0.00    +0.012 C 
BRANCH  24  25
ATOM     25  C   UNL     1      33.595  -8.174 -22.813  0.00  0.00    +0.109 C 
BRANCH  25  27
ATOM     26  O   UNL     1      31.475  -6.985 -22.669  0.00  0.00    -0.250 OA
ATOM     27  C   UNL     1      32.527  -7.200 -23.254  0.00  0.00    +0.314 C 
BRANCH  27  28
ATOM     28  O   UNL     1      32.878  -6.567 -24.405  0.00  0.00    -0.480 OA
ATOM     29  H   UNL     1      33.656  -6.822 -24.861  0.00  0.00    +0.295 HD
ENDBRANCH  27  28
ENDBRANCH  25  27
ENDBRANCH  24  25
ENDBRANCH  23  24
ENDBRANCH  22  23
ENDBRANCH  21  22
ENDBRANCH  20  21
ENDBRANCH   5  20
TORSDOF 13
ENDMDL
