MODEL 1
REMARK VINA RESULT:      -6.2      0.000      0.000
REMARK  Name = 122357
REMARK  9 active torsions:
REMARK  status: ('A' for Active; 'I' for Inactive)
REMARK    1  A    between atoms: C_1  and  O_2
REMARK    2  A    between atoms: C_1  and  C_4
REMARK    3  A    between atoms: C_1  and  C_12
REMARK    4  A    between atoms: C_4  and  O_5
REMARK    5  A    between atoms: O_5  and  P_6
REMARK    6  A    between atoms: P_6  and  O_8
REMARK    7  A    between atoms: P_6  and  O_10
REMARK    8  A    between atoms: C_12  and  O_13
REMARK    9  A    between atoms: C_12  and  C_16
REMARK                            x       y       z     vdW  Elec       q    Type
REMARK                         _______ _______ _______ _____ _____    ______ ____
ROOT
ATOM      1  C   UNL     1      37.766 -25.970 -14.334  0.00  0.00    +0.175 C 
ENDROOT
BRANCH   1   2
ATOM      2  O   UNL     1      37.543 -26.410 -15.677  0.00  0.00    -0.379 OA
ATOM      3  H   UNL     1      36.813 -27.047 -15.692  0.00  0.00    +0.211 HD
ENDBRANCH   1   2
BRANCH   1   4
ATOM      4  C   UNL     1      36.510 -25.274 -13.822  0.00  0.00    +0.186 C 
BRANCH   4   5
ATOM      5  O   UNL     1      36.376 -25.539 -12.429  0.00  0.00    -0.271 OA
BRANCH   5   6
ATOM      6  P   UNL     1      35.953 -24.321 -11.455  0.00  0.00    +0.473 P 
ATOM      7  O   UNL     1      37.058 -23.366 -11.110  0.00  0.00    -0.227 OA
BRANCH   6   8
ATOM      8  O   UNL     1      35.260 -25.060 -10.194  0.00  0.00    -0.303 OA
ATOM      9  H   UNL     1      34.798 -25.857 -10.499  0.00  0.00    +0.222 HD
ENDBRANCH   6   8
BRANCH   6  10
ATOM     10  O   UNL     1      34.700 -23.662 -12.235  0.00  0.00    -0.303 OA
ATOM     11  H   UNL     1      34.173 -23.134 -11.614  0.00  0.00    +0.222 HD
ENDBRANCH   6  10
ENDBRANCH   5   6
ENDBRANCH   4   5
ENDBRANCH   1   4
BRANCH   1  12
ATOM     12  C   UNL     1      39.006 -25.074 -14.307  0.00  0.00    +0.205 C 
BRANCH  12  13
ATOM     13  O   UNL     1      39.164 -24.519 -13.009  0.00  0.00    -0.375 OA
ATOM     14  H   UNL     1      39.335 -23.567 -13.083  0.00  0.00    +0.211 HD
ENDBRANCH  12  13
BRANCH  12  16
ATOM     15  O   UNL     1      40.613 -26.071 -15.829  0.00  0.00    -0.286 OA
ATOM     16  C   UNL     1      40.279 -25.807 -14.678  0.00  0.00    +0.239 C 
ENDBRANCH  12  16
ENDBRANCH   1  12
TORSDOF 9
ENDMDL
MODEL 2
REMARK VINA RESULT:      -6.0      2.714      4.544
REMARK  Name = 122357
REMARK  9 active torsions:
REMARK  status: ('A' for Active; 'I' for Inactive)
REMARK    1  A    between atoms: C_1  and  O_2
REMARK    2  A    between atoms: C_1  and  C_4
REMARK    3  A    between atoms: C_1  and  C_12
REMARK    4  A    between atoms: C_4  and  O_5
REMARK    5  A    between atoms: O_5  and  P_6
REMARK    6  A    between atoms: P_6  and  O_8
REMARK    7  A    between atoms: P_6  and  O_10
REMARK    8  A    between atoms: C_12  and  O_13
REMARK    9  A    between atoms: C_12  and  C_16
REMARK                            x       y       z     vdW  Elec       q    Type
REMARK                         _______ _______ _______ _____ _____    ______ ____
ROOT
ATOM      1  C   UNL     1      37.324 -23.948 -12.201  0.00  0.00    +0.175 C 
ENDROOT
BRANCH   1   2
ATOM      2  O   UNL     1      38.188 -22.940 -11.666  0.00  0.00    -0.379 OA
ATOM      3  H   UNL     1      38.430 -23.172 -10.757  0.00  0.00    +0.211 HD
ENDBRANCH   1   2
BRANCH   1   4
ATOM      4  C   UNL     1      38.140 -25.206 -12.481  0.00  0.00    +0.186 C 
BRANCH   4   5
ATOM      5  O   UNL     1      39.359 -24.829 -13.114  0.00  0.00    -0.271 OA
BRANCH   5   6
ATOM      6  P   UNL     1      39.759 -25.556 -14.500  0.00  0.00    +0.473 P 
ATOM      7  O   UNL     1      41.166 -26.074 -14.566  0.00  0.00    -0.227 OA
BRANCH   6   8
ATOM      8  O   UNL     1      39.368 -24.468 -15.632  0.00  0.00    -0.303 OA
ATOM      9  H   UNL     1      38.565 -23.996 -15.363  0.00  0.00    +0.222 HD
ENDBRANCH   6   8
BRANCH   6  10
ATOM     10  O   UNL     1      38.609 -26.683 -14.654  0.00  0.00    -0.303 OA
ATOM     11  H   UNL     1      38.004 -26.634 -13.896  0.00  0.00    +0.222 HD
ENDBRANCH   6  10
ENDBRANCH   5   6
ENDBRANCH   4   5
ENDBRANCH   1   4
BRANCH   1  12
ATOM     12  C   UNL     1      36.628 -23.392 -13.445  0.00  0.00    +0.205 C 
BRANCH  12  13
ATOM     13  O   UNL     1      37.572 -22.704 -14.253  0.00  0.00    -0.375 OA
ATOM     14  H   UNL     1      37.379 -21.754 -14.237  0.00  0.00    +0.211 HD
ENDBRANCH  12  13
BRANCH  12  16
ATOM     15  O   UNL     1      36.305 -24.755 -15.429  0.00  0.00    -0.286 OA
ATOM     16  C   UNL     1      35.965 -24.465 -14.286  0.00  0.00    +0.239 C 
ENDBRANCH  12  16
ENDBRANCH   1  12
TORSDOF 9
ENDMDL
MODEL 3
REMARK VINA RESULT:      -6.0      2.192      5.089
REMARK  Name = 122357
REMARK  9 active torsions:
REMARK  status: ('A' for Active; 'I' for Inactive)
REMARK    1  A    between atoms: C_1  and  O_2
REMARK    2  A    between atoms: C_1  and  C_4
REMARK    3  A    between atoms: C_1  and  C_12
REMARK    4  A    between atoms: C_4  and  O_5
REMARK    5  A    between atoms: O_5  and  P_6
REMARK    6  A    between atoms: P_6  and  O_8
REMARK    7  A    between atoms: P_6  and  O_10
REMARK    8  A    between atoms: C_12  and  O_13
REMARK    9  A    between atoms: C_12  and  C_16
REMARK                            x       y       z     vdW  Elec       q    Type
REMARK                         _______ _______ _______ _____ _____    ______ ____
ROOT
ATOM      1  C   UNL     1      36.717 -25.187 -12.710  0.00  0.00    +0.175 C 
ENDROOT
BRANCH   1   2
ATOM      2  O   UNL     1      36.814 -26.383 -11.930  0.00  0.00    -0.379 OA
ATOM      3  H   UNL     1      36.958 -26.151 -11.000  0.00  0.00    +0.211 HD
ENDBRANCH   1   2
BRANCH   1   4
ATOM      4  C   UNL     1      38.081 -24.507 -12.751  0.00  0.00    +0.186 C 
BRANCH   4   5
ATOM      5  O   UNL     1      39.055 -25.460 -13.166  0.00  0.00    -0.271 OA
BRANCH   5   6
ATOM      6  P   UNL     1      39.500 -25.474 -14.718  0.00  0.00    +0.473 P 
ATOM      7  O   UNL     1      40.943 -25.803 -14.967  0.00  0.00    -0.227 OA
BRANCH   6   8
ATOM      8  O   UNL     1      39.014 -24.033 -15.271  0.00  0.00    -0.303 OA
ATOM      9  H   UNL     1      39.291 -23.339 -14.652  0.00  0.00    +0.222 HD
ENDBRANCH   6   8
BRANCH   6  10
ATOM     10  O   UNL     1      38.442 -26.501 -15.381  0.00  0.00    -0.303 OA
ATOM     11  H   UNL     1      38.847 -26.931 -16.152  0.00  0.00    +0.222 HD
ENDBRANCH   6  10
ENDBRANCH   5   6
ENDBRANCH   4   5
ENDBRANCH   1   4
BRANCH   1  12
ATOM     12  C   UNL     1      35.619 -24.300 -12.120  0.00  0.00    +0.205 C 
BRANCH  12  13
ATOM     13  O   UNL     1      34.359 -24.938 -12.270  0.00  0.00    -0.375 OA
ATOM     14  H   UNL     1      34.477 -25.900 -12.238  0.00  0.00    +0.211 HD
ENDBRANCH  12  13
BRANCH  12  16
ATOM     15  O   UNL     1      35.379 -24.661  -9.731  0.00  0.00    -0.286 OA
ATOM     16  C   UNL     1      35.830 -23.987 -10.652  0.00  0.00    +0.239 C 
ENDBRANCH  12  16
ENDBRANCH   1  12
TORSDOF 9
ENDMDL
MODEL 4
REMARK VINA RESULT:      -6.0      3.097      4.722
REMARK  Name = 122357
REMARK  9 active torsions:
REMARK  status: ('A' for Active; 'I' for Inactive)
REMARK    1  A    between atoms: C_1  and  O_2
REMARK    2  A    between atoms: C_1  and  C_4
REMARK    3  A    between atoms: C_1  and  C_12
REMARK    4  A    between atoms: C_4  and  O_5
REMARK    5  A    between atoms: O_5  and  P_6
REMARK    6  A    between atoms: P_6  and  O_8
REMARK    7  A    between atoms: P_6  and  O_10
REMARK    8  A    between atoms: C_12  and  O_13
REMARK    9  A    between atoms: C_12  and  C_16
REMARK                            x       y       z     vdW  Elec       q    Type
REMARK                         _______ _______ _______ _____ _____    ______ ____
ROOT
ATOM      1  C   UNL     1      36.874 -25.727 -15.070  0.00  0.00    +0.175 C 
ENDROOT
BRANCH   1   2
ATOM      2  O   UNL     1      35.547 -26.261 -15.108  0.00  0.00    -0.379 OA
ATOM      3  H   UNL     1      35.114 -26.109 -14.255  0.00  0.00    +0.211 HD
ENDBRANCH   1   2
BRANCH   1   4
ATOM      4  C   UNL     1      37.631 -26.355 -13.904  0.00  0.00    +0.186 C 
BRANCH   4   5
ATOM      5  O   UNL     1      38.861 -26.885 -14.390  0.00  0.00    -0.271 OA
BRANCH   5   6
ATOM      6  P   UNL     1      40.131 -25.894 -14.501  0.00  0.00    +0.473 P 
ATOM      7  O   UNL     1      40.015 -24.617 -13.722  0.00  0.00    -0.227 OA
BRANCH   6   8
ATOM      8  O   UNL     1      40.342 -25.715 -16.095  0.00  0.00    -0.303 OA
ATOM      9  H   UNL     1      40.494 -24.779 -16.298  0.00  0.00    +0.222 HD
ENDBRANCH   6   8
BRANCH   6  10
ATOM     10  O   UNL     1      41.364 -26.848 -14.068  0.00  0.00    -0.303 OA
ATOM     11  H   UNL     1      41.279 -27.080 -13.129  0.00  0.00    +0.222 HD
ENDBRANCH   6  10
ENDBRANCH   5   6
ENDBRANCH   4   5
ENDBRANCH   1   4
BRANCH   1  12
ATOM     12  C   UNL     1      36.792 -24.202 -14.983  0.00  0.00    +0.205 C 
BRANCH  12  13
ATOM     13  O   UNL     1      37.812 -23.622 -15.784  0.00  0.00    -0.375 OA
ATOM     14  H   UNL     1      38.310 -22.978 -15.257  0.00  0.00    +0.211 HD
ENDBRANCH  12  13
BRANCH  12  16
ATOM     15  O   UNL     1      35.045 -23.691 -16.591  0.00  0.00    -0.286 OA
ATOM     16  C   UNL     1      35.453 -23.651 -15.434  0.00  0.00    +0.239 C 
ENDBRANCH  12  16
ENDBRANCH   1  12
TORSDOF 9
ENDMDL
MODEL 5
REMARK VINA RESULT:      -5.9      1.161      2.087
REMARK  Name = 122357
REMARK  9 active torsions:
REMARK  status: ('A' for Active; 'I' for Inactive)
REMARK    1  A    between atoms: C_1  and  O_2
REMARK    2  A    between atoms: C_1  and  C_4
REMARK    3  A    between atoms: C_1  and  C_12
REMARK    4  A    between atoms: C_4  and  O_5
REMARK    5  A    between atoms: O_5  and  P_6
REMARK    6  A    between atoms: P_6  and  O_8
REMARK    7  A    between atoms: P_6  and  O_10
REMARK    8  A    between atoms: C_12  and  O_13
REMARK    9  A    between atoms: C_12  and  C_16
REMARK                            x       y       z     vdW  Elec       q    Type
REMARK                         _______ _______ _______ _____ _____    ______ ____
ROOT
ATOM      1  C   UNL     1      37.767 -24.867 -14.864  0.00  0.00    +0.175 C 
ENDROOT
BRANCH   1   2
ATOM      2  O   UNL     1      38.184 -23.529 -14.575  0.00  0.00    -0.379 OA
ATOM      3  H   UNL     1      38.208 -23.398 -13.615  0.00  0.00    +0.211 HD
ENDBRANCH   1   2
BRANCH   1   4
ATOM      4  C   UNL     1      36.389 -25.102 -14.256  0.00  0.00    +0.186 C 
BRANCH   4   5
ATOM      5  O   UNL     1      36.552 -25.578 -12.924  0.00  0.00    -0.271 OA
BRANCH   5   6
ATOM      6  P   UNL     1      36.232 -24.568 -11.705  0.00  0.00    +0.473 P 
ATOM      7  O   UNL     1      35.262 -25.086 -10.684  0.00  0.00    -0.227 OA
BRANCH   6   8
ATOM      8  O   UNL     1      35.792 -23.198 -12.445  0.00  0.00    -0.303 OA
ATOM      9  H   UNL     1      35.273 -23.411 -13.237  0.00  0.00    +0.222 HD
ENDBRANCH   6   8
BRANCH   6  10
ATOM     10  O   UNL     1      37.705 -24.224 -11.133  0.00  0.00    -0.303 OA
ATOM     11  H   UNL     1      38.324 -24.121 -11.874  0.00  0.00    +0.222 HD
ENDBRANCH   6  10
ENDBRANCH   5   6
ENDBRANCH   4   5
ENDBRANCH   1   4
BRANCH   1  12
ATOM     12  C   UNL     1      38.829 -25.838 -14.344  0.00  0.00    +0.205 C 
BRANCH  12  13
ATOM     13  O   UNL     1      38.431 -27.173 -14.622  0.00  0.00    -0.375 OA
ATOM     14  H   UNL     1      38.826 -27.460 -15.460  0.00  0.00    +0.211 HD
ENDBRANCH  12  13
BRANCH  12  16
ATOM     15  O   UNL     1      41.001 -24.772 -14.546  0.00  0.00    -0.286 OA
ATOM     16  C   UNL     1      40.198 -25.606 -14.953  0.00  0.00    +0.239 C 
ENDBRANCH  12  16
ENDBRANCH   1  12
TORSDOF 9
ENDMDL
MODEL 6
REMARK VINA RESULT:      -5.9      1.809      2.200
REMARK  Name = 122357
REMARK  9 active torsions:
REMARK  status: ('A' for Active; 'I' for Inactive)
REMARK    1  A    between atoms: C_1  and  O_2
REMARK    2  A    between atoms: C_1  and  C_4
REMARK    3  A    between atoms: C_1  and  C_12
REMARK    4  A    between atoms: C_4  and  O_5
REMARK    5  A    between atoms: O_5  and  P_6
REMARK    6  A    between atoms: P_6  and  O_8
REMARK    7  A    between atoms: P_6  and  O_10
REMARK    8  A    between atoms: C_12  and  O_13
REMARK    9  A    between atoms: C_12  and  C_16
REMARK                            x       y       z     vdW  Elec       q    Type
REMARK                         _______ _______ _______ _____ _____    ______ ____
ROOT
ATOM      1  C   UNL     1      37.588 -26.143 -13.839  0.00  0.00    +0.175 C 
ENDROOT
BRANCH   1   2
ATOM      2  O   UNL     1      36.905 -27.384 -13.638  0.00  0.00    -0.379 OA
ATOM      3  H   UNL     1      35.968 -27.277 -13.862  0.00  0.00    +0.211 HD
ENDBRANCH   1   2
BRANCH   1   4
ATOM      4  C   UNL     1      37.787 -25.459 -12.490  0.00  0.00    +0.186 C 
BRANCH   4   5
ATOM      5  O   UNL     1      36.547 -25.459 -11.791  0.00  0.00    -0.271 OA
BRANCH   5   6
ATOM      6  P   UNL     1      36.055 -24.082 -11.103  0.00  0.00    +0.473 P 
ATOM      7  O   UNL     1      37.122 -23.042 -10.924  0.00  0.00    -0.227 OA
BRANCH   6   8
ATOM      8  O   UNL     1      35.330 -24.569  -9.741  0.00  0.00    -0.303 OA
ATOM      9  H   UNL     1      35.516 -23.935  -9.031  0.00  0.00    +0.222 HD
ENDBRANCH   6   8
BRANCH   6  10
ATOM     10  O   UNL     1      34.819 -23.637 -12.045  0.00  0.00    -0.303 OA
ATOM     11  H   UNL     1      34.386 -22.856 -11.663  0.00  0.00    +0.222 HD
ENDBRANCH   6  10
ENDBRANCH   5   6
ENDBRANCH   4   5
ENDBRANCH   1   4
BRANCH   1  12
ATOM     12  C   UNL     1      36.791 -25.295 -14.832  0.00  0.00    +0.205 C 
BRANCH  12  13
ATOM     13  O   UNL     1      35.414 -25.328 -14.489  0.00  0.00    -0.375 OA
ATOM     14  H   UNL     1      35.192 -26.198 -14.123  0.00  0.00    +0.211 HD
ENDBRANCH  12  13
BRANCH  12  16
ATOM     15  O   UNL     1      38.306 -23.473 -15.363  0.00  0.00    -0.286 OA
ATOM     16  C   UNL     1      37.243 -23.849 -14.878  0.00  0.00    +0.239 C 
ENDBRANCH  12  16
ENDBRANCH   1  12
TORSDOF 9
ENDMDL
MODEL 7
REMARK VINA RESULT:      -5.8      2.482      4.313
REMARK  Name = 122357
REMARK  9 active torsions:
REMARK  status: ('A' for Active; 'I' for Inactive)
REMARK    1  A    between atoms: C_1  and  O_2
REMARK    2  A    between atoms: C_1  and  C_4
REMARK    3  A    between atoms: C_1  and  C_12
REMARK    4  A    between atoms: C_4  and  O_5
REMARK    5  A    between atoms: O_5  and  P_6
REMARK    6  A    between atoms: P_6  and  O_8
REMARK    7  A    between atoms: P_6  and  O_10
REMARK    8  A    between atoms: C_12  and  O_13
REMARK    9  A    between atoms: C_12  and  C_16
REMARK                            x       y       z     vdW  Elec       q    Type
REMARK                         _______ _______ _______ _____ _____    ______ ____
ROOT
ATOM      1  C   UNL     1      35.335 -23.877 -12.859  0.00  0.00    +0.175 C 
ENDROOT
BRANCH   1   2
ATOM      2  O   UNL     1      34.227 -24.777 -12.759  0.00  0.00    -0.379 OA
ATOM      3  H   UNL     1      34.318 -25.476 -13.424  0.00  0.00    +0.211 HD
ENDBRANCH   1   2
BRANCH   1   4
ATOM      4  C   UNL     1      35.999 -24.054 -14.220  0.00  0.00    +0.186 C 
BRANCH   4   5
ATOM      5  O   UNL     1      35.668 -25.343 -14.727  0.00  0.00    -0.271 OA
BRANCH   5   6
ATOM      6  P   UNL     1      36.869 -26.382 -15.022  0.00  0.00    +0.473 P 
ATOM      7  O   UNL     1      36.642 -27.308 -16.181  0.00  0.00    -0.227 OA
BRANCH   6   8
ATOM      8  O   UNL     1      37.110 -27.107 -13.595  0.00  0.00    -0.303 OA
ATOM      9  H   UNL     1      37.373 -28.029 -13.742  0.00  0.00    +0.222 HD
ENDBRANCH   6   8
BRANCH   6  10
ATOM     10  O   UNL     1      38.152 -25.409 -15.166  0.00  0.00    -0.303 OA
ATOM     11  H   UNL     1      37.967 -24.726 -15.831  0.00  0.00    +0.222 HD
ENDBRANCH   6  10
ENDBRANCH   5   6
ENDBRANCH   4   5
ENDBRANCH   1   4
BRANCH   1  12
ATOM     12  C   UNL     1      36.286 -24.131 -11.687  0.00  0.00    +0.205 C 
BRANCH  12  13
ATOM     13  O   UNL     1      36.191 -25.489 -11.283  0.00  0.00    -0.375 OA
ATOM     14  H   UNL     1      35.415 -25.604 -10.713  0.00  0.00    +0.211 HD
ENDBRANCH  12  13
BRANCH  12  16
ATOM     15  O   UNL     1      38.343 -22.845 -11.601  0.00  0.00    -0.286 OA
ATOM     16  C   UNL     1      37.733 -23.825 -12.017  0.00  0.00    +0.239 C 
ENDBRANCH  12  16
ENDBRANCH   1  12
TORSDOF 9
ENDMDL
MODEL 8
REMARK VINA RESULT:      -5.8      2.277      4.381
REMARK  Name = 122357
REMARK  9 active torsions:
REMARK  status: ('A' for Active; 'I' for Inactive)
REMARK    1  A    between atoms: C_1  and  O_2
REMARK    2  A    between atoms: C_1  and  C_4
REMARK    3  A    between atoms: C_1  and  C_12
REMARK    4  A    between atoms: C_4  and  O_5
REMARK    5  A    between atoms: O_5  and  P_6
REMARK    6  A    between atoms: P_6  and  O_8
REMARK    7  A    between atoms: P_6  and  O_10
REMARK    8  A    between atoms: C_12  and  O_13
REMARK    9  A    between atoms: C_12  and  C_16
REMARK                            x       y       z     vdW  Elec       q    Type
REMARK                         _______ _______ _______ _____ _____    ______ ____
ROOT
ATOM      1  C   UNL     1      36.955 -23.191 -13.561  0.00  0.00    +0.175 C 
ENDROOT
BRANCH   1   2
ATOM      2  O   UNL     1      35.541 -23.404 -13.615  0.00  0.00    -0.379 OA
ATOM      3  H   UNL     1      35.290 -24.072 -12.961  0.00  0.00    +0.211 HD
ENDBRANCH   1   2
BRANCH   1   4
ATOM      4  C   UNL     1      37.603 -23.836 -14.782  0.00  0.00    +0.186 C 
BRANCH   4   5
ATOM      5  O   UNL     1      36.819 -24.957 -15.177  0.00  0.00    -0.271 OA
BRANCH   5   6
ATOM      6  P   UNL     1      37.418 -26.436 -14.930  0.00  0.00    +0.473 P 
ATOM      7  O   UNL     1      38.908 -26.502 -14.764  0.00  0.00    -0.227 OA
BRANCH   6   8
ATOM      8  O   UNL     1      36.821 -27.305 -16.157  0.00  0.00    -0.303 OA
ATOM      9  H   UNL     1      37.122 -28.224 -16.079  0.00  0.00    +0.222 HD
ENDBRANCH   6   8
BRANCH   6  10
ATOM     10  O   UNL     1      36.566 -26.955 -13.657  0.00  0.00    -0.303 OA
ATOM     11  H   UNL     1      36.286 -26.195 -13.123  0.00  0.00    +0.222 HD
ENDBRANCH   6  10
ENDBRANCH   5   6
ENDBRANCH   4   5
ENDBRANCH   1   4
BRANCH   1  12
ATOM     12  C   UNL     1      37.487 -23.740 -12.236  0.00  0.00    +0.205 C 
BRANCH  12  13
ATOM     13  O   UNL     1      38.264 -22.745 -11.586  0.00  0.00    -0.375 OA
ATOM     14  H   UNL     1      38.816 -22.288 -12.239  0.00  0.00    +0.211 HD
ENDBRANCH  12  13
BRANCH  12  16
ATOM     15  O   UNL     1      35.866 -25.298 -11.320  0.00  0.00    -0.286 OA
ATOM     16  C   UNL     1      36.388 -24.188 -11.293  0.00  0.00    +0.239 C 
ENDBRANCH  12  16
ENDBRANCH   1  12
TORSDOF 9
ENDMDL
MODEL 9
REMARK VINA RESULT:      -5.7      2.455      4.274
REMARK  Name = 122357
REMARK  9 active torsions:
REMARK  status: ('A' for Active; 'I' for Inactive)
REMARK    1  A    between atoms: C_1  and  O_2
REMARK    2  A    between atoms: C_1  and  C_4
REMARK    3  A    between atoms: C_1  and  C_12
REMARK    4  A    between atoms: C_4  and  O_5
REMARK    5  A    between atoms: O_5  and  P_6
REMARK    6  A    between atoms: P_6  and  O_8
REMARK    7  A    between atoms: P_6  and  O_10
REMARK    8  A    between atoms: C_12  and  O_13
REMARK    9  A    between atoms: C_12  and  C_16
REMARK                            x       y       z     vdW  Elec       q    Type
REMARK                         _______ _______ _______ _____ _____    ______ ____
ROOT
ATOM      1  C   UNL     1      36.661 -25.620 -14.084  0.00  0.00    +0.175 C 
ENDROOT
BRANCH   1   2
ATOM      2  O   UNL     1      36.820 -26.124 -12.755  0.00  0.00    -0.379 OA
ATOM      3  H   UNL     1      37.044 -27.066 -12.792  0.00  0.00    +0.211 HD
ENDBRANCH   1   2
BRANCH   1   4
ATOM      4  C   UNL     1      37.698 -26.272 -14.993  0.00  0.00    +0.186 C 
BRANCH   4   5
ATOM      5  O   UNL     1      38.791 -26.716 -14.195  0.00  0.00    -0.271 OA
BRANCH   5   6
ATOM      6  P   UNL     1      40.250 -26.084 -14.475  0.00  0.00    +0.473 P 
ATOM      7  O   UNL     1      41.408 -26.940 -14.053  0.00  0.00    -0.227 OA
BRANCH   6   8
ATOM      8  O   UNL     1      40.179 -24.625 -13.779  0.00  0.00    -0.303 OA
ATOM      9  H   UNL     1      40.940 -24.512 -13.188  0.00  0.00    +0.222 HD
ENDBRANCH   6   8
BRANCH   6  10
ATOM     10  O   UNL     1      40.192 -25.745 -16.055  0.00  0.00    -0.303 OA
ATOM     11  H   UNL     1      39.331 -25.352 -16.271  0.00  0.00    +0.222 HD
ENDBRANCH   6  10
ENDBRANCH   5   6
ENDBRANCH   4   5
ENDBRANCH   1   4
BRANCH   1  12
ATOM     12  C   UNL     1      36.765 -24.093 -14.050  0.00  0.00    +0.205 C 
BRANCH  12  13
ATOM     13  O   UNL     1      37.675 -23.701 -13.032  0.00  0.00    -0.375 OA
ATOM     14  H   UNL     1      38.571 -23.651 -13.401  0.00  0.00    +0.211 HD
ENDBRANCH  12  13
BRANCH  12  16
ATOM     15  O   UNL     1      38.392 -23.217 -15.625  0.00  0.00    -0.286 OA
ATOM     16  C   UNL     1      37.226 -23.498 -15.365  0.00  0.00    +0.239 C 
ENDBRANCH  12  16
ENDBRANCH   1  12
TORSDOF 9
ENDMDL
