MODEL 1
REMARK VINA RESULT:     -10.4      0.000      0.000
REMARK  Name = 448123
REMARK  11 active torsions:
REMARK  status: ('A' for Active; 'I' for Inactive)
REMARK    1  A    between atoms: C_1  and  C_20
REMARK    2  A    between atoms: C_2  and  O_18
REMARK    3  A    between atoms: C_8  and  C_10
REMARK    4  A    between atoms: C_15  and  O_16
REMARK    5  A    between atoms: C_20  and  C_22
REMARK    6  A    between atoms: C_20  and  C_25
REMARK    7  A    between atoms: C_22  and  O_23
REMARK    8  A    between atoms: C_25  and  C_26
REMARK    9  A    between atoms: C_26  and  C_27
REMARK   10  A    between atoms: C_27  and  C_28
REMARK   11  A    between atoms: C_28  and  C_31
REMARK                            x       y       z     vdW  Elec       q    Type
REMARK                         _______ _______ _______ _____ _____    ______ ____
ROOT
ATOM      1  C   UNL     1      34.252 -24.201 -15.730  0.00  0.00    +0.060 C 
ATOM      2  C   UNL     1      35.342 -24.905 -14.887  0.00  0.00    +0.119 C 
ATOM      3  C   UNL     1      35.089 -23.256 -16.550  0.00  0.00    -0.023 C 
ATOM      4  C   UNL     1      36.528 -23.932 -14.765  0.00  0.00    +0.056 C 
ATOM      5  C   UNL     1      36.372 -23.113 -16.009  0.00  0.00    -0.024 C 
ATOM      6  C   UNL     1      34.717 -22.561 -17.691  0.00  0.00    -0.004 C 
ATOM      7  C   UNL     1      37.303 -22.266 -16.589  0.00  0.00    -0.004 C 
ATOM      8  C   UNL     1      35.653 -21.714 -18.288  0.00  0.00    -0.000 C 
ATOM      9  C   UNL     1      36.936 -21.567 -17.740  0.00  0.00    -0.000 C 
ENDROOT
BRANCH   8  10
ATOM     10  C   UNL     1      35.295 -20.978 -19.482  0.00  0.00    +0.000 C 
ATOM     11  C   UNL     1      36.287 -20.359 -20.242  0.00  0.00    +0.003 C 
ATOM     12  C   UNL     1      33.960 -20.888 -19.872  0.00  0.00    +0.003 C 
ATOM     13  C   UNL     1      35.943 -19.648 -21.392  0.00  0.00    +0.037 C 
ATOM     14  C   UNL     1      33.615 -20.177 -21.022  0.00  0.00    +0.037 C 
ATOM     15  C   UNL     1      34.607 -19.558 -21.781  0.00  0.00    +0.134 C 
BRANCH  15  16
ATOM     16  O   UNL     1      34.271 -18.863 -22.903  0.00  0.00    -0.506 OA
ATOM     17  H   UNL     1      33.421 -18.476 -22.977  0.00  0.00    +0.292 HD
ENDBRANCH  15  16
ENDBRANCH   8  10
BRANCH   2  18
ATOM     18  O   UNL     1      35.794 -26.074 -15.577  0.00  0.00    -0.384 OA
ATOM     19  H   UNL     1      35.050 -26.482 -16.045  0.00  0.00    +0.210 HD
ENDBRANCH   2  18
BRANCH   1  20
ATOM     20  C   UNL     1      33.253 -23.444 -14.863  0.00  0.00    +0.105 C 
BRANCH  20  22
ATOM     21  O   UNL     1      32.418 -25.171 -13.360  0.00  0.00    -0.250 OA
ATOM     22  C   UNL     1      33.057 -24.141 -13.526  0.00  0.00    +0.314 C 
BRANCH  22  23
ATOM     23  O   UNL     1      33.683 -23.491 -12.512  0.00  0.00    -0.480 OA
ATOM     24  H   UNL     1      33.454 -22.605 -12.309  0.00  0.00    +0.295 HD
ENDBRANCH  22  23
ENDBRANCH  20  22
BRANCH  20  25
ATOM     25  C   UNL     1      31.909 -23.211 -15.572  0.00  0.00    +0.012 C 
BRANCH  25  26
ATOM     26  C   UNL     1      30.784 -22.700 -14.663  0.00  0.00    +0.001 C 
BRANCH  26  27
ATOM     27  C   UNL     1      29.515 -23.542 -14.829  0.00  0.00    +0.008 C 
BRANCH  27  28
ATOM     28  C   UNL     1      29.158 -23.789 -16.295  0.00  0.00    +0.060 C 
BRANCH  28  31
ATOM     29  N   UNL     1      27.267 -22.293 -15.759  0.00  0.00    -0.346 N 
ATOM     30  N   UNL     1      27.509 -23.157 -17.941  0.00  0.00    -0.289 NA
ATOM     31  C   UNL     1      27.903 -23.045 -16.710  0.00  0.00    +0.093 C 
ATOM     32  H   UNL     1      26.450 -21.795 -15.990  0.00  0.00    +0.143 HD
ATOM     33  H   UNL     1      27.627 -22.249 -14.843  0.00  0.00    +0.143 HD
ATOM     34  H   UNL     1      26.699 -22.687 -18.243  0.00  0.00    +0.188 HD
ENDBRANCH  28  31
ENDBRANCH  27  28
ENDBRANCH  26  27
ENDBRANCH  25  26
ENDBRANCH  20  25
ENDBRANCH   1  20
TORSDOF 11
ENDMDL
MODEL 2
REMARK VINA RESULT:      -9.3      1.243      2.023
REMARK  Name = 448123
REMARK  11 active torsions:
REMARK  status: ('A' for Active; 'I' for Inactive)
REMARK    1  A    between atoms: C_1  and  C_20
REMARK    2  A    between atoms: C_2  and  O_18
REMARK    3  A    between atoms: C_8  and  C_10
REMARK    4  A    between atoms: C_15  and  O_16
REMARK    5  A    between atoms: C_20  and  C_22
REMARK    6  A    between atoms: C_20  and  C_25
REMARK    7  A    between atoms: C_22  and  O_23
REMARK    8  A    between atoms: C_25  and  C_26
REMARK    9  A    between atoms: C_26  and  C_27
REMARK   10  A    between atoms: C_27  and  C_28
REMARK   11  A    between atoms: C_28  and  C_31
REMARK                            x       y       z     vdW  Elec       q    Type
REMARK                         _______ _______ _______ _____ _____    ______ ____
ROOT
ATOM      1  C   UNL     1      35.167 -24.733 -14.714  0.00  0.00    +0.060 C 
ATOM      2  C   UNL     1      36.439 -25.367 -14.102  0.00  0.00    +0.119 C 
ATOM      3  C   UNL     1      35.772 -23.780 -15.709  0.00  0.00    -0.023 C 
ATOM      4  C   UNL     1      37.579 -24.344 -14.250  0.00  0.00    +0.056 C 
ATOM      5  C   UNL     1      37.131 -23.570 -15.451  0.00  0.00    -0.024 C 
ATOM      6  C   UNL     1      35.140 -23.135 -16.762  0.00  0.00    -0.004 C 
ATOM      7  C   UNL     1      37.882 -22.705 -16.230  0.00  0.00    -0.004 C 
ATOM      8  C   UNL     1      35.892 -22.269 -17.559  0.00  0.00    -0.000 C 
ATOM      9  C   UNL     1      37.254 -22.055 -17.294  0.00  0.00    -0.000 C 
ENDROOT
BRANCH   8  10
ATOM     10  C   UNL     1      35.261 -21.585 -18.667  0.00  0.00    +0.000 C 
ATOM     11  C   UNL     1      33.886 -21.699 -18.864  0.00  0.00    +0.003 C 
ATOM     12  C   UNL     1      36.029 -20.814 -19.538  0.00  0.00    +0.003 C 
ATOM     13  C   UNL     1      33.277 -21.041 -19.934  0.00  0.00    +0.037 C 
ATOM     14  C   UNL     1      35.421 -20.155 -20.608  0.00  0.00    +0.037 C 
ATOM     15  C   UNL     1      34.045 -20.269 -20.804  0.00  0.00    +0.134 C 
BRANCH  15  16
ATOM     16  O   UNL     1      33.452 -19.628 -21.848  0.00  0.00    -0.506 OA
ATOM     17  H   UNL     1      32.820 -20.075 -22.375  0.00  0.00    +0.292 HD
ENDBRANCH  15  16
ENDBRANCH   8  10
BRANCH   2  18
ATOM     18  O   UNL     1      36.790 -26.537 -14.846  0.00  0.00    -0.384 OA
ATOM     19  H   UNL     1      36.711 -27.318 -14.278  0.00  0.00    +0.210 HD
ENDBRANCH   2  18
BRANCH   1  20
ATOM     20  C   UNL     1      34.336 -23.990 -13.673  0.00  0.00    +0.105 C 
BRANCH  20  22
ATOM     21  O   UNL     1      35.799 -23.200 -11.891  0.00  0.00    -0.250 OA
ATOM     22  C   UNL     1      35.008 -24.034 -12.309  0.00  0.00    +0.314 C 
BRANCH  22  23
ATOM     23  O   UNL     1      34.629 -25.118 -11.585  0.00  0.00    -0.480 OA
ATOM     24  H   UNL     1      33.755 -25.177 -11.251  0.00  0.00    +0.295 HD
ENDBRANCH  22  23
ENDBRANCH  20  22
BRANCH  20  25
ATOM     25  C   UNL     1      32.888 -24.499 -13.596  0.00  0.00    +0.012 C 
BRANCH  25  26
ATOM     26  C   UNL     1      32.098 -24.388 -14.907  0.00  0.00    +0.001 C 
BRANCH  26  27
ATOM     27  C   UNL     1      31.567 -22.966 -15.111  0.00  0.00    +0.008 C 
BRANCH  27  28
ATOM     28  C   UNL     1      30.869 -22.784 -16.459  0.00  0.00    +0.060 C 
BRANCH  28  31
ATOM     29  N   UNL     1      28.593 -23.219 -17.316  0.00  0.00    -0.346 N 
ATOM     30  N   UNL     1      28.888 -22.117 -15.250  0.00  0.00    -0.289 NA
ATOM     31  C   UNL     1      29.362 -22.688 -16.314  0.00  0.00    +0.093 C 
ATOM     32  H   UNL     1      27.612 -23.177 -17.258  0.00  0.00    +0.143 HD
ATOM     33  H   UNL     1      29.022 -23.644 -18.094  0.00  0.00    +0.143 HD
ATOM     34  H   UNL     1      27.915 -22.038 -15.126  0.00  0.00    +0.188 HD
ENDBRANCH  28  31
ENDBRANCH  27  28
ENDBRANCH  26  27
ENDBRANCH  25  26
ENDBRANCH  20  25
ENDBRANCH   1  20
TORSDOF 11
ENDMDL
MODEL 3
REMARK VINA RESULT:      -8.9      4.135      6.143
REMARK  Name = 448123
REMARK  11 active torsions:
REMARK  status: ('A' for Active; 'I' for Inactive)
REMARK    1  A    between atoms: C_1  and  C_20
REMARK    2  A    between atoms: C_2  and  O_18
REMARK    3  A    between atoms: C_8  and  C_10
REMARK    4  A    between atoms: C_15  and  O_16
REMARK    5  A    between atoms: C_20  and  C_22
REMARK    6  A    between atoms: C_20  and  C_25
REMARK    7  A    between atoms: C_22  and  O_23
REMARK    8  A    between atoms: C_25  and  C_26
REMARK    9  A    between atoms: C_26  and  C_27
REMARK   10  A    between atoms: C_27  and  C_28
REMARK   11  A    between atoms: C_28  and  C_31
REMARK                            x       y       z     vdW  Elec       q    Type
REMARK                         _______ _______ _______ _____ _____    ______ ____
ROOT
ATOM      1  C   UNL     1      34.619 -23.867 -14.018  0.00  0.00    +0.060 C 
ATOM      2  C   UNL     1      33.425 -24.251 -13.112  0.00  0.00    +0.119 C 
ATOM      3  C   UNL     1      33.907 -23.500 -15.292  0.00  0.00    -0.023 C 
ATOM      4  C   UNL     1      32.284 -24.720 -14.031  0.00  0.00    +0.056 C 
ATOM      5  C   UNL     1      32.591 -23.974 -15.293  0.00  0.00    -0.024 C 
ATOM      6  C   UNL     1      34.414 -22.804 -16.379  0.00  0.00    -0.004 C 
ATOM      7  C   UNL     1      31.759 -23.773 -16.383  0.00  0.00    -0.004 C 
ATOM      8  C   UNL     1      33.579 -22.588 -17.478  0.00  0.00    -0.000 C 
ATOM      9  C   UNL     1      32.261 -23.070 -17.479  0.00  0.00    -0.000 C 
ENDROOT
BRANCH   8  10
ATOM     10  C   UNL     1      34.078 -21.862 -18.626  0.00  0.00    +0.000 C 
ATOM     11  C   UNL     1      35.444 -21.854 -18.905  0.00  0.00    +0.003 C 
ATOM     12  C   UNL     1      33.193 -21.169 -19.451  0.00  0.00    +0.003 C 
ATOM     13  C   UNL     1      35.926 -21.152 -20.010  0.00  0.00    +0.037 C 
ATOM     14  C   UNL     1      33.675 -20.467 -20.557  0.00  0.00    +0.037 C 
ATOM     15  C   UNL     1      35.041 -20.460 -20.836  0.00  0.00    +0.134 C 
BRANCH  15  16
ATOM     16  O   UNL     1      35.511 -19.775 -21.914  0.00  0.00    -0.506 OA
ATOM     17  H   UNL     1      34.911 -19.374 -22.512  0.00  0.00    +0.292 HD
ENDBRANCH  15  16
ENDBRANCH   8  10
BRANCH   2  18
ATOM     18  O   UNL     1      32.977 -23.092 -12.402  0.00  0.00    -0.384 OA
ATOM     19  H   UNL     1      33.551 -22.341 -12.614  0.00  0.00    +0.210 HD
ENDBRANCH   2  18
BRANCH   1  20
ATOM     20  C   UNL     1      35.575 -25.035 -14.235  0.00  0.00    +0.105 C 
BRANCH  20  22
ATOM     21  O   UNL     1      36.351 -24.718 -11.947  0.00  0.00    -0.250 OA
ATOM     22  C   UNL     1      36.248 -25.436 -12.932  0.00  0.00    +0.314 C 
BRANCH  22  23
ATOM     23  O   UNL     1      36.730 -26.704 -12.973  0.00  0.00    -0.480 OA
ATOM     24  H   UNL     1      36.677 -27.252 -12.214  0.00  0.00    +0.295 HD
ENDBRANCH  22  23
ENDBRANCH  20  22
BRANCH  20  25
ATOM     25  C   UNL     1      36.613 -24.755 -15.335  0.00  0.00    +0.012 C 
BRANCH  25  26
ATOM     26  C   UNL     1      37.535 -23.561 -15.058  0.00  0.00    +0.001 C 
BRANCH  26  27
ATOM     27  C   UNL     1      39.006 -23.943 -15.259  0.00  0.00    +0.008 C 
BRANCH  27  28
ATOM     28  C   UNL     1      39.511 -24.921 -14.199  0.00  0.00    +0.060 C 
BRANCH  28  31
ATOM     29  N   UNL     1      41.105 -26.787 -13.911  0.00  0.00    -0.346 N 
ATOM     30  N   UNL     1      40.545 -26.035 -16.076  0.00  0.00    -0.289 NA
ATOM     31  C   UNL     1      40.439 -25.969 -14.785  0.00  0.00    +0.093 C 
ATOM     32  H   UNL     1      41.715 -27.480 -14.253  0.00  0.00    +0.143 HD
ATOM     33  H   UNL     1      40.972 -26.684 -12.940  0.00  0.00    +0.143 HD
ATOM     34  H   UNL     1      41.139 -26.703 -16.488  0.00  0.00    +0.188 HD
ENDBRANCH  28  31
ENDBRANCH  27  28
ENDBRANCH  26  27
ENDBRANCH  25  26
ENDBRANCH  20  25
ENDBRANCH   1  20
TORSDOF 11
ENDMDL
MODEL 4
REMARK VINA RESULT:      -8.9      3.138      6.219
REMARK  Name = 448123
REMARK  11 active torsions:
REMARK  status: ('A' for Active; 'I' for Inactive)
REMARK    1  A    between atoms: C_1  and  C_20
REMARK    2  A    between atoms: C_2  and  O_18
REMARK    3  A    between atoms: C_8  and  C_10
REMARK    4  A    between atoms: C_15  and  O_16
REMARK    5  A    between atoms: C_20  and  C_22
REMARK    6  A    between atoms: C_20  and  C_25
REMARK    7  A    between atoms: C_22  and  O_23
REMARK    8  A    between atoms: C_25  and  C_26
REMARK    9  A    between atoms: C_26  and  C_27
REMARK   10  A    between atoms: C_27  and  C_28
REMARK   11  A    between atoms: C_28  and  C_31
REMARK                            x       y       z     vdW  Elec       q    Type
REMARK                         _______ _______ _______ _____ _____    ______ ____
ROOT
ATOM      1  C   UNL     1      36.904 -23.056 -14.170  0.00  0.00    +0.060 C 
ATOM      2  C   UNL     1      37.557 -23.516 -12.845  0.00  0.00    +0.119 C 
ATOM      3  C   UNL     1      35.476 -23.478 -13.948  0.00  0.00    -0.023 C 
ATOM      4  C   UNL     1      36.719 -24.686 -12.302  0.00  0.00    +0.056 C 
ATOM      5  C   UNL     1      35.374 -24.388 -12.891  0.00  0.00    -0.024 C 
ATOM      6  C   UNL     1      34.352 -23.083 -14.658  0.00  0.00    -0.004 C 
ATOM      7  C   UNL     1      34.152 -24.932 -12.530  0.00  0.00    -0.004 C 
ATOM      8  C   UNL     1      33.114 -23.617 -14.294  0.00  0.00    -0.000 C 
ATOM      9  C   UNL     1      33.016 -24.536 -13.237  0.00  0.00    -0.000 C 
ENDROOT
BRANCH   8  10
ATOM     10  C   UNL     1      31.923 -23.222 -15.013  0.00  0.00    +0.000 C 
ATOM     11  C   UNL     1      30.720 -23.049 -14.328  0.00  0.00    +0.003 C 
ATOM     12  C   UNL     1      31.976 -23.015 -16.391  0.00  0.00    +0.003 C 
ATOM     13  C   UNL     1      29.570 -22.670 -15.021  0.00  0.00    +0.037 C 
ATOM     14  C   UNL     1      30.827 -22.635 -17.085  0.00  0.00    +0.037 C 
ATOM     15  C   UNL     1      29.625 -22.463 -16.399  0.00  0.00    +0.134 C 
BRANCH  15  16
ATOM     16  O   UNL     1      28.503 -22.094 -17.077  0.00  0.00    -0.506 OA
ATOM     17  H   UNL     1      28.104 -22.688 -17.681  0.00  0.00    +0.292 HD
ENDBRANCH  15  16
ENDBRANCH   8  10
BRANCH   2  18
ATOM     18  O   UNL     1      37.502 -22.449 -11.894  0.00  0.00    -0.384 OA
ATOM     19  H   UNL     1      37.457 -22.816 -10.998  0.00  0.00    +0.210 HD
ENDBRANCH   2  18
BRANCH   1  20
ATOM     20  C   UNL     1      37.505 -23.757 -15.383  0.00  0.00    +0.105 C 
BRANCH  20  22
ATOM     21  O   UNL     1      39.661 -24.447 -14.481  0.00  0.00    -0.250 OA
ATOM     22  C   UNL     1      38.577 -24.749 -14.960  0.00  0.00    +0.314 C 
BRANCH  22  23
ATOM     23  O   UNL     1      38.197 -26.036 -15.169  0.00  0.00    -0.480 OA
ATOM     24  H   UNL     1      37.590 -26.447 -14.585  0.00  0.00    +0.295 HD
ENDBRANCH  22  23
ENDBRANCH  20  22
BRANCH  20  25
ATOM     25  C   UNL     1      38.041 -22.771 -16.434  0.00  0.00    +0.012 C 
BRANCH  25  26
ATOM     26  C   UNL     1      37.108 -21.594 -16.745  0.00  0.00    +0.001 C 
BRANCH  26  27
ATOM     27  C   UNL     1      36.621 -21.646 -18.196  0.00  0.00    +0.008 C 
BRANCH  27  28
ATOM     28  C   UNL     1      35.198 -22.189 -18.322  0.00  0.00    +0.060 C 
BRANCH  28  31
ATOM     29  N   UNL     1      33.171 -21.982 -19.720  0.00  0.00    -0.346 N 
ATOM     30  N   UNL     1      34.970 -20.484 -20.017  0.00  0.00    -0.289 NA
ATOM     31  C   UNL     1      34.417 -21.497 -19.424  0.00  0.00    +0.093 C 
ATOM     32  H   UNL     1      32.634 -21.559 -20.428  0.00  0.00    +0.143 HD
ATOM     33  H   UNL     1      32.811 -22.753 -19.223  0.00  0.00    +0.143 HD
ATOM     34  H   UNL     1      34.491 -20.013 -20.736  0.00  0.00    +0.188 HD
ENDBRANCH  28  31
ENDBRANCH  27  28
ENDBRANCH  26  27
ENDBRANCH  25  26
ENDBRANCH  20  25
ENDBRANCH   1  20
TORSDOF 11
ENDMDL
MODEL 5
REMARK VINA RESULT:      -8.8      7.848     12.770
REMARK  Name = 448123
REMARK  11 active torsions:
REMARK  status: ('A' for Active; 'I' for Inactive)
REMARK    1  A    between atoms: C_1  and  C_20
REMARK    2  A    between atoms: C_2  and  O_18
REMARK    3  A    between atoms: C_8  and  C_10
REMARK    4  A    between atoms: C_15  and  O_16
REMARK    5  A    between atoms: C_20  and  C_22
REMARK    6  A    between atoms: C_20  and  C_25
REMARK    7  A    between atoms: C_22  and  O_23
REMARK    8  A    between atoms: C_25  and  C_26
REMARK    9  A    between atoms: C_26  and  C_27
REMARK   10  A    between atoms: C_27  and  C_28
REMARK   11  A    between atoms: C_28  and  C_31
REMARK                            x       y       z     vdW  Elec       q    Type
REMARK                         _______ _______ _______ _____ _____    ______ ____
ROOT
ATOM      1  C   UNL     1      34.037 -12.089 -24.668  0.00  0.00    +0.060 C 
ATOM      2  C   UNL     1      33.806 -11.682 -26.143  0.00  0.00    +0.119 C 
ATOM      3  C   UNL     1      33.959 -13.589 -24.769  0.00  0.00    -0.023 C 
ATOM      4  C   UNL     1      32.987 -12.802 -26.806  0.00  0.00    +0.056 C 
ATOM      5  C   UNL     1      33.376 -13.987 -25.977  0.00  0.00    -0.024 C 
ATOM      6  C   UNL     1      34.369 -14.527 -23.834  0.00  0.00    -0.004 C 
ATOM      7  C   UNL     1      33.180 -15.327 -26.269  0.00  0.00    -0.004 C 
ATOM      8  C   UNL     1      34.185 -15.880 -24.124  0.00  0.00    -0.000 C 
ATOM      9  C   UNL     1      33.593 -16.277 -25.334  0.00  0.00    -0.000 C 
ENDROOT
BRANCH   8  10
ATOM     10  C   UNL     1      34.606 -16.883 -23.169  0.00  0.00    +0.000 C 
ATOM     11  C   UNL     1      34.853 -16.522 -21.845  0.00  0.00    +0.003 C 
ATOM     12  C   UNL     1      34.765 -18.207 -23.573  0.00  0.00    +0.003 C 
ATOM     13  C   UNL     1      35.261 -17.487 -20.924  0.00  0.00    +0.037 C 
ATOM     14  C   UNL     1      35.173 -19.173 -22.653  0.00  0.00    +0.037 C 
ATOM     15  C   UNL     1      35.420 -18.813 -21.328  0.00  0.00    +0.134 C 
BRANCH  15  16
ATOM     16  O   UNL     1      35.818 -19.755 -20.430  0.00  0.00    -0.506 OA
ATOM     17  H   UNL     1      35.949 -20.641 -20.707  0.00  0.00    +0.292 HD
ENDBRANCH  15  16
ENDBRANCH   8  10
BRANCH   2  18
ATOM     18  O   UNL     1      35.067 -11.594 -26.814  0.00  0.00    -0.384 OA
ATOM     19  H   UNL     1      35.217 -10.682 -27.103  0.00  0.00    +0.210 HD
ENDBRANCH   2  18
BRANCH   1  20
ATOM     20  C   UNL     1      32.956 -11.541 -23.744  0.00  0.00    +0.105 C 
BRANCH  20  22
ATOM     21  O   UNL     1      32.122  -9.259 -23.555  0.00  0.00    -0.250 OA
ATOM     22  C   UNL     1      33.069 -10.030 -23.612  0.00  0.00    +0.314 C 
BRANCH  22  23
ATOM     23  O   UNL     1      34.361  -9.615 -23.559  0.00  0.00    -0.480 OA
ATOM     24  H   UNL     1      34.867  -9.554 -24.346  0.00  0.00    +0.295 HD
ENDBRANCH  22  23
ENDBRANCH  20  22
BRANCH  20  25
ATOM     25  C   UNL     1      32.953 -12.221 -22.365  0.00  0.00    +0.012 C 
BRANCH  25  26
ATOM     26  C   UNL     1      31.562 -12.415 -21.748  0.00  0.00    +0.001 C 
BRANCH  26  27
ATOM     27  C   UNL     1      31.530 -11.929 -20.296  0.00  0.00    +0.008 C 
BRANCH  27  28
ATOM     28  C   UNL     1      30.887 -10.550 -20.149  0.00  0.00    +0.060 C 
BRANCH  28  31
ATOM     29  N   UNL     1      31.949  -8.395 -20.729  0.00  0.00    -0.346 N 
ATOM     30  N   UNL     1      32.693  -9.611 -18.848  0.00  0.00    -0.289 NA
ATOM     31  C   UNL     1      31.914  -9.466 -19.876  0.00  0.00    +0.093 C 
ATOM     32  H   UNL     1      32.600  -7.672 -20.584  0.00  0.00    +0.143 HD
ATOM     33  H   UNL     1      31.322  -8.348 -21.487  0.00  0.00    +0.143 HD
ATOM     34  H   UNL     1      33.369  -8.927 -18.643  0.00  0.00    +0.188 HD
ENDBRANCH  28  31
ENDBRANCH  27  28
ENDBRANCH  26  27
ENDBRANCH  25  26
ENDBRANCH  20  25
ENDBRANCH   1  20
TORSDOF 11
ENDMDL
MODEL 6
REMARK VINA RESULT:      -8.8      8.726     13.383
REMARK  Name = 448123
REMARK  11 active torsions:
REMARK  status: ('A' for Active; 'I' for Inactive)
REMARK    1  A    between atoms: C_1  and  C_20
REMARK    2  A    between atoms: C_2  and  O_18
REMARK    3  A    between atoms: C_8  and  C_10
REMARK    4  A    between atoms: C_15  and  O_16
REMARK    5  A    between atoms: C_20  and  C_22
REMARK    6  A    between atoms: C_20  and  C_25
REMARK    7  A    between atoms: C_22  and  O_23
REMARK    8  A    between atoms: C_25  and  C_26
REMARK    9  A    between atoms: C_26  and  C_27
REMARK   10  A    between atoms: C_27  and  C_28
REMARK   11  A    between atoms: C_28  and  C_31
REMARK                            x       y       z     vdW  Elec       q    Type
REMARK                         _______ _______ _______ _____ _____    ______ ____
ROOT
ATOM      1  C   UNL     1      33.107 -13.561 -25.606  0.00  0.00    +0.060 C 
ATOM      2  C   UNL     1      33.581 -13.511 -27.078  0.00  0.00    +0.119 C 
ATOM      3  C   UNL     1      33.478 -12.180 -25.137  0.00  0.00    -0.023 C 
ATOM      4  C   UNL     1      34.718 -12.478 -27.159  0.00  0.00    +0.056 C 
ATOM      5  C   UNL     1      34.378 -11.569 -26.018  0.00  0.00    -0.024 C 
ATOM      6  C   UNL     1      33.049 -11.526 -23.992  0.00  0.00    -0.004 C 
ATOM      7  C   UNL     1      34.876 -10.301 -25.766  0.00  0.00    -0.004 C 
ATOM      8  C   UNL     1      33.538 -10.243 -23.736  0.00  0.00    -0.000 C 
ATOM      9  C   UNL     1      34.446  -9.636 -24.617  0.00  0.00    -0.000 C 
ENDROOT
BRANCH   8  10
ATOM     10  C   UNL     1      33.106  -9.534 -22.551  0.00  0.00    +0.000 C 
ATOM     11  C   UNL     1      32.288 -10.171 -21.618  0.00  0.00    +0.003 C 
ATOM     12  C   UNL     1      33.506  -8.215 -22.343  0.00  0.00    +0.003 C 
ATOM     13  C   UNL     1      31.869  -9.487 -20.476  0.00  0.00    +0.037 C 
ATOM     14  C   UNL     1      33.088  -7.531 -21.201  0.00  0.00    +0.037 C 
ATOM     15  C   UNL     1      32.270  -8.168 -20.268  0.00  0.00    +0.134 C 
BRANCH  15  16
ATOM     16  O   UNL     1      31.861  -7.500 -19.154  0.00  0.00    -0.506 OA
ATOM     17  H   UNL     1      30.949  -7.451 -18.945  0.00  0.00    +0.292 HD
ENDBRANCH  15  16
ENDBRANCH   8  10
BRANCH   2  18
ATOM     18  O   UNL     1      32.507 -13.058 -27.907  0.00  0.00    -0.384 OA
ATOM     19  H   UNL     1      32.653 -12.131 -28.148  0.00  0.00    +0.210 HD
ENDBRANCH   2  18
BRANCH   1  20
ATOM     20  C   UNL     1      33.835 -14.632 -24.802  0.00  0.00    +0.105 C 
BRANCH  20  22
ATOM     21  O   UNL     1      32.878 -16.366 -26.221  0.00  0.00    -0.250 OA
ATOM     22  C   UNL     1      33.801 -15.970 -25.523  0.00  0.00    +0.314 C 
BRANCH  22  23
ATOM     23  O   UNL     1      34.929 -16.696 -25.312  0.00  0.00    -0.480 OA
ATOM     24  H   UNL     1      34.975 -17.296 -24.594  0.00  0.00    +0.295 HD
ENDBRANCH  22  23
ENDBRANCH  20  22
BRANCH  20  25
ATOM     25  C   UNL     1      33.304 -14.760 -23.365  0.00  0.00    +0.012 C 
BRANCH  25  26
ATOM     26  C   UNL     1      34.332 -14.445 -22.270  0.00  0.00    +0.001 C 
BRANCH  26  27
ATOM     27  C   UNL     1      34.292 -15.498 -21.158  0.00  0.00    +0.008 C 
BRANCH  27  28
ATOM     28  C   UNL     1      34.089 -16.915 -21.693  0.00  0.00    +0.060 C 
BRANCH  28  31
ATOM     29  N   UNL     1      36.076 -17.676 -22.948  0.00  0.00    -0.346 N 
ATOM     30  N   UNL     1      35.782 -18.319 -20.696  0.00  0.00    -0.289 NA
ATOM     31  C   UNL     1      35.390 -17.692 -21.762  0.00  0.00    +0.093 C 
ATOM     32  H   UNL     1      36.925 -18.167 -23.032  0.00  0.00    +0.143 HD
ATOM     33  H   UNL     1      35.721 -17.172 -23.716  0.00  0.00    +0.143 HD
ATOM     34  H   UNL     1      36.621 -18.832 -20.708  0.00  0.00    +0.188 HD
ENDBRANCH  28  31
ENDBRANCH  27  28
ENDBRANCH  26  27
ENDBRANCH  25  26
ENDBRANCH  20  25
ENDBRANCH   1  20
TORSDOF 11
ENDMDL
MODEL 7
REMARK VINA RESULT:      -8.6      9.949     13.451
REMARK  Name = 448123
REMARK  11 active torsions:
REMARK  status: ('A' for Active; 'I' for Inactive)
REMARK    1  A    between atoms: C_1  and  C_20
REMARK    2  A    between atoms: C_2  and  O_18
REMARK    3  A    between atoms: C_8  and  C_10
REMARK    4  A    between atoms: C_15  and  O_16
REMARK    5  A    between atoms: C_20  and  C_22
REMARK    6  A    between atoms: C_20  and  C_25
REMARK    7  A    between atoms: C_22  and  O_23
REMARK    8  A    between atoms: C_25  and  C_26
REMARK    9  A    between atoms: C_26  and  C_27
REMARK   10  A    between atoms: C_27  and  C_28
REMARK   11  A    between atoms: C_28  and  C_31
REMARK                            x       y       z     vdW  Elec       q    Type
REMARK                         _______ _______ _______ _____ _____    ______ ____
ROOT
ATOM      1  C   UNL     1      33.990 -14.548 -22.724  0.00  0.00    +0.060 C 
ATOM      2  C   UNL     1      33.851 -15.453 -21.478  0.00  0.00    +0.119 C 
ATOM      3  C   UNL     1      33.204 -13.340 -22.291  0.00  0.00    -0.023 C 
ATOM      4  C   UNL     1      32.544 -15.060 -20.768  0.00  0.00    +0.056 C 
ATOM      5  C   UNL     1      32.398 -13.629 -21.185  0.00  0.00    -0.024 C 
ATOM      6  C   UNL     1      33.202 -12.076 -22.863  0.00  0.00    -0.004 C 
ATOM      7  C   UNL     1      31.565 -12.667 -20.635  0.00  0.00    -0.004 C 
ATOM      8  C   UNL     1      32.374 -11.097 -22.308  0.00  0.00    -0.000 C 
ATOM      9  C   UNL     1      31.561 -11.392 -21.203  0.00  0.00    -0.000 C 
ENDROOT
BRANCH   8  10
ATOM     10  C   UNL     1      32.352  -9.768 -22.880  0.00  0.00    +0.000 C 
ATOM     11  C   UNL     1      33.547  -9.147 -23.242  0.00  0.00    +0.003 C 
ATOM     12  C   UNL     1      31.139  -9.110 -23.068  0.00  0.00    +0.003 C 
ATOM     13  C   UNL     1      33.528  -7.864 -23.791  0.00  0.00    +0.037 C 
ATOM     14  C   UNL     1      31.118  -7.827 -23.618  0.00  0.00    +0.037 C 
ATOM     15  C   UNL     1      32.313  -7.206 -23.980  0.00  0.00    +0.134 C 
BRANCH  15  16
ATOM     16  O   UNL     1      32.293  -5.954 -24.515  0.00  0.00    -0.506 OA
ATOM     17  H   UNL     1      31.669  -5.325 -24.212  0.00  0.00    +0.292 HD
ENDBRANCH  15  16
ENDBRANCH   8  10
BRANCH   2  18
ATOM     18  O   UNL     1      34.938 -15.200 -20.583  0.00  0.00    -0.384 OA
ATOM     19  H   UNL     1      35.406 -16.028 -20.399  0.00  0.00    +0.210 HD
ENDBRANCH   2  18
BRANCH   1  20
ATOM     20  C   UNL     1      33.384 -15.184 -23.970  0.00  0.00    +0.105 C 
BRANCH  20  22
ATOM     21  O   UNL     1      34.085 -16.960 -25.485  0.00  0.00    -0.250 OA
ATOM     22  C   UNL     1      34.371 -16.135 -24.629  0.00  0.00    +0.314 C 
BRANCH  22  23
ATOM     23  O   UNL     1      35.635 -15.969 -24.161  0.00  0.00    -0.480 OA
ATOM     24  H   UNL     1      35.856 -15.202 -23.668  0.00  0.00    +0.295 HD
ENDBRANCH  22  23
ENDBRANCH  20  22
BRANCH  20  25
ATOM     25  C   UNL     1      32.859 -14.145 -24.973  0.00  0.00    +0.012 C 
BRANCH  25  26
ATOM     26  C   UNL     1      33.360 -14.329 -26.410  0.00  0.00    +0.001 C 
BRANCH  26  27
ATOM     27  C   UNL     1      33.512 -12.979 -27.118  0.00  0.00    +0.008 C 
BRANCH  27  28
ATOM     28  C   UNL     1      33.787 -11.830 -26.147  0.00  0.00    +0.060 C 
BRANCH  28  31
ATOM     29  N   UNL     1      35.658 -11.315 -27.676  0.00  0.00    -0.346 N 
ATOM     30  N   UNL     1      35.641 -10.432 -25.488  0.00  0.00    -0.289 NA
ATOM     31  C   UNL     1      35.109 -11.145 -26.432  0.00  0.00    +0.093 C 
ATOM     32  H   UNL     1      36.515 -10.886 -27.899  0.00  0.00    +0.143 HD
ATOM     33  H   UNL     1      35.194 -11.867 -28.347  0.00  0.00    +0.143 HD
ATOM     34  H   UNL     1      36.499  -9.975 -25.640  0.00  0.00    +0.188 HD
ENDBRANCH  28  31
ENDBRANCH  27  28
ENDBRANCH  26  27
ENDBRANCH  25  26
ENDBRANCH  20  25
ENDBRANCH   1  20
TORSDOF 11
ENDMDL
MODEL 8
REMARK VINA RESULT:      -8.5     12.941     16.848
REMARK  Name = 448123
REMARK  11 active torsions:
REMARK  status: ('A' for Active; 'I' for Inactive)
REMARK    1  A    between atoms: C_1  and  C_20
REMARK    2  A    between atoms: C_2  and  O_18
REMARK    3  A    between atoms: C_8  and  C_10
REMARK    4  A    between atoms: C_15  and  O_16
REMARK    5  A    between atoms: C_20  and  C_22
REMARK    6  A    between atoms: C_20  and  C_25
REMARK    7  A    between atoms: C_22  and  O_23
REMARK    8  A    between atoms: C_25  and  C_26
REMARK    9  A    between atoms: C_26  and  C_27
REMARK   10  A    between atoms: C_27  and  C_28
REMARK   11  A    between atoms: C_28  and  C_31
REMARK                            x       y       z     vdW  Elec       q    Type
REMARK                         _______ _______ _______ _____ _____    ______ ____
ROOT
ATOM      1  C   UNL     1      33.421  -8.111 -21.960  0.00  0.00    +0.060 C 
ATOM      2  C   UNL     1      32.829  -8.000 -20.534  0.00  0.00    +0.119 C 
ATOM      3  C   UNL     1      32.697  -6.993 -22.659  0.00  0.00    -0.023 C 
ATOM      4  C   UNL     1      31.433  -7.367 -20.665  0.00  0.00    +0.056 C 
ATOM      5  C   UNL     1      31.584  -6.570 -21.925  0.00  0.00    -0.024 C 
ATOM      6  C   UNL     1      33.008  -6.409 -23.878  0.00  0.00    -0.004 C 
ATOM      7  C   UNL     1      30.754  -5.566 -22.397  0.00  0.00    -0.004 C 
ATOM      8  C   UNL     1      32.183  -5.389 -24.357  0.00  0.00    -0.000 C 
ATOM      9  C   UNL     1      31.063  -4.971 -23.621  0.00  0.00    -0.000 C 
ENDROOT
BRANCH   8  10
ATOM     10  C   UNL     1      32.484  -4.758 -25.624  0.00  0.00    +0.000 C 
ATOM     11  C   UNL     1      31.693  -3.706 -26.083  0.00  0.00    +0.003 C 
ATOM     12  C   UNL     1      33.564  -5.203 -26.385  0.00  0.00    +0.003 C 
ATOM     13  C   UNL     1      31.981  -3.098 -27.306  0.00  0.00    +0.037 C 
ATOM     14  C   UNL     1      33.853  -4.595 -27.608  0.00  0.00    +0.037 C 
ATOM     15  C   UNL     1      33.061  -3.543 -28.067  0.00  0.00    +0.134 C 
BRANCH  15  16
ATOM     16  O   UNL     1      33.343  -2.951 -29.260  0.00  0.00    -0.506 OA
ATOM     17  H   UNL     1      34.154  -2.499 -29.379  0.00  0.00    +0.292 HD
ENDBRANCH  15  16
ENDBRANCH   8  10
BRANCH   2  18
ATOM     18  O   UNL     1      33.644  -7.125 -19.749  0.00  0.00    -0.384 OA
ATOM     19  H   UNL     1      34.025  -7.618 -19.006  0.00  0.00    +0.210 HD
ENDBRANCH   2  18
BRANCH   1  20
ATOM     20  C   UNL     1      33.116  -9.457 -22.607  0.00  0.00    +0.105 C 
BRANCH  20  22
ATOM     21  O   UNL     1      35.146  -9.216 -23.934  0.00  0.00    -0.250 OA
ATOM     22  C   UNL     1      34.038  -9.712 -23.789  0.00  0.00    +0.314 C 
BRANCH  22  23
ATOM     23  O   UNL     1      33.493 -10.572 -24.688  0.00  0.00    -0.480 OA
ATOM     24  H   UNL     1      32.562 -10.660 -24.750  0.00  0.00    +0.295 HD
ENDBRANCH  22  23
ENDBRANCH  20  22
BRANCH  20  25
ATOM     25  C   UNL     1      31.639  -9.601 -23.010  0.00  0.00    +0.012 C 
BRANCH  25  26
ATOM     26  C   UNL     1      30.873 -10.698 -22.260  0.00  0.00    +0.001 C 
BRANCH  26  27
ATOM     27  C   UNL     1      31.832 -11.749 -21.692  0.00  0.00    +0.008 C 
BRANCH  27  28
ATOM     28  C   UNL     1      31.976 -12.970 -22.601  0.00  0.00    +0.060 C 
BRANCH  28  31
ATOM     29  N   UNL     1      33.653 -14.365 -21.443  0.00  0.00    -0.346 N 
ATOM     30  N   UNL     1      34.193 -13.324 -23.490  0.00  0.00    -0.289 NA
ATOM     31  C   UNL     1      33.364 -13.578 -22.525  0.00  0.00    +0.093 C 
ATOM     32  H   UNL     1      34.543 -14.778 -21.358  0.00  0.00    +0.143 HD
ATOM     33  H   UNL     1      32.971 -14.520 -20.749  0.00  0.00    +0.143 HD
ATOM     34  H   UNL     1      35.101 -13.703 -23.471  0.00  0.00    +0.188 HD
ENDBRANCH  28  31
ENDBRANCH  27  28
ENDBRANCH  26  27
ENDBRANCH  25  26
ENDBRANCH  20  25
ENDBRANCH   1  20
TORSDOF 11
ENDMDL
MODEL 9
REMARK VINA RESULT:      -8.4      3.195      6.465
REMARK  Name = 448123
REMARK  11 active torsions:
REMARK  status: ('A' for Active; 'I' for Inactive)
REMARK    1  A    between atoms: C_1  and  C_20
REMARK    2  A    between atoms: C_2  and  O_18
REMARK    3  A    between atoms: C_8  and  C_10
REMARK    4  A    between atoms: C_15  and  O_16
REMARK    5  A    between atoms: C_20  and  C_22
REMARK    6  A    between atoms: C_20  and  C_25
REMARK    7  A    between atoms: C_22  and  O_23
REMARK    8  A    between atoms: C_25  and  C_26
REMARK    9  A    between atoms: C_26  and  C_27
REMARK   10  A    between atoms: C_27  and  C_28
REMARK   11  A    between atoms: C_28  and  C_31
REMARK                            x       y       z     vdW  Elec       q    Type
REMARK                         _______ _______ _______ _____ _____    ______ ____
ROOT
ATOM      1  C   UNL     1      35.000 -22.959 -14.602  0.00  0.00    +0.060 C 
ATOM      2  C   UNL     1      35.732 -23.611 -13.406  0.00  0.00    +0.119 C 
ATOM      3  C   UNL     1      33.621 -23.543 -14.447  0.00  0.00    -0.023 C 
ATOM      4  C   UNL     1      35.015 -24.936 -13.094  0.00  0.00    +0.056 C 
ATOM      5  C   UNL     1      33.631 -24.649 -13.592  0.00  0.00    -0.024 C 
ATOM      6  C   UNL     1      32.445 -23.117 -15.047  0.00  0.00    -0.004 C 
ATOM      7  C   UNL     1      32.471 -25.360 -13.328  0.00  0.00    -0.004 C 
ATOM      8  C   UNL     1      31.269 -23.822 -14.778  0.00  0.00    -0.000 C 
ATOM      9  C   UNL     1      31.284 -24.936 -13.925  0.00  0.00    -0.000 C 
ENDROOT
BRANCH   8  10
ATOM     10  C   UNL     1      30.026 -23.400 -15.387  0.00  0.00    +0.000 C 
ATOM     11  C   UNL     1      29.543 -24.063 -16.515  0.00  0.00    +0.003 C 
ATOM     12  C   UNL     1      29.312 -22.332 -14.846  0.00  0.00    +0.003 C 
ATOM     13  C   UNL     1      28.345 -23.656 -17.104  0.00  0.00    +0.037 C 
ATOM     14  C   UNL     1      28.114 -21.924 -15.434  0.00  0.00    +0.037 C 
ATOM     15  C   UNL     1      27.632 -22.587 -16.562  0.00  0.00    +0.134 C 
BRANCH  15  16
ATOM     16  O   UNL     1      26.463 -22.189 -17.136  0.00  0.00    -0.506 OA
ATOM     17  H   UNL     1      26.322 -21.284 -17.333  0.00  0.00    +0.292 HD
ENDBRANCH  15  16
ENDBRANCH   8  10
BRANCH   2  18
ATOM     18  O   UNL     1      35.619 -22.762 -12.260  0.00  0.00    -0.384 OA
ATOM     19  H   UNL     1      34.683 -22.628 -12.048  0.00  0.00    +0.210 HD
ENDBRANCH   2  18
BRANCH   1  20
ATOM     20  C   UNL     1      35.618 -23.350 -15.939  0.00  0.00    +0.105 C 
BRANCH  20  22
ATOM     21  O   UNL     1      37.909 -22.521 -15.873  0.00  0.00    -0.250 OA
ATOM     22  C   UNL     1      37.131 -23.463 -15.825  0.00  0.00    +0.314 C 
BRANCH  22  23
ATOM     23  O   UNL     1      37.538 -24.747 -15.656  0.00  0.00    -0.480 OA
ATOM     24  H   UNL     1      38.071 -25.161 -16.308  0.00  0.00    +0.295 HD
ENDBRANCH  22  23
ENDBRANCH  20  22
BRANCH  20  25
ATOM     25  C   UNL     1      35.215 -22.402 -17.080  0.00  0.00    +0.012 C 
BRANCH  25  26
ATOM     26  C   UNL     1      34.070 -22.913 -17.964  0.00  0.00    +0.001 C 
BRANCH  26  27
ATOM     27  C   UNL     1      34.244 -22.448 -19.414  0.00  0.00    +0.008 C 
BRANCH  27  28
ATOM     28  C   UNL     1      33.527 -21.129 -19.700  0.00  0.00    +0.060 C 
BRANCH  28  31
ATOM     29  N   UNL     1      35.718 -20.101 -20.196  0.00  0.00    -0.346 N 
ATOM     30  N   UNL     1      33.816 -19.492 -21.452  0.00  0.00    -0.289 NA
ATOM     31  C   UNL     1      34.387 -20.175 -20.509  0.00  0.00    +0.093 C 
ATOM     32  H   UNL     1      36.309 -19.494 -20.698  0.00  0.00    +0.143 HD
ATOM     33  H   UNL     1      36.086 -20.655 -19.469  0.00  0.00    +0.143 HD
ATOM     34  H   UNL     1      34.345 -18.864 -21.995  0.00  0.00    +0.188 HD
ENDBRANCH  28  31
ENDBRANCH  27  28
ENDBRANCH  26  27
ENDBRANCH  25  26
ENDBRANCH  20  25
ENDBRANCH   1  20
TORSDOF 11
ENDMDL
