MODEL 1
REMARK VINA RESULT:      -9.4      0.000      0.000
REMARK  Name = 5288222
REMARK  9 active torsions:
REMARK  status: ('A' for Active; 'I' for Inactive)
REMARK    1  A    between atoms: C_7  and  C_23
REMARK    2  A    between atoms: C_9  and  C_15
REMARK    3  A    between atoms: C_16  and  O_20
REMARK    4  A    between atoms: C_22  and  C_24
REMARK    5  A    between atoms: C_24  and  O_25
REMARK    6  A    between atoms: C_24  and  C_27
REMARK    7  A    between atoms: C_27  and  N_28
REMARK    8  A    between atoms: C_27  and  C_32
REMARK    9  A    between atoms: C_32  and  O_34
REMARK                            x       y       z     vdW  Elec       q    Type
REMARK                         _______ _______ _______ _____ _____    ______ ____
ROOT
ATOM      1  F   UNL     1      30.362 -22.490 -16.923  0.00  0.00    -0.204 F 
ATOM      2  O   UNL     1      35.365 -25.148 -12.502  0.00  0.00    -0.270 OA
ATOM      3  N   UNL     1      33.081 -24.574 -12.648  0.00  0.00    -0.280 N 
ATOM      4  C   UNL     1      32.987 -23.811 -14.816  0.00  0.00    +0.028 C 
ATOM      5  C   UNL     1      34.354 -24.227 -14.518  0.00  0.00    +0.057 C 
ATOM      6  C   UNL     1      32.256 -24.043 -13.646  0.00  0.00    +0.051 C 
ATOM      7  C   UNL     1      32.373 -23.288 -15.935  0.00  0.00    +0.070 C 
ATOM      8  C   UNL     1      34.396 -24.721 -13.101  0.00  0.00    +0.250 C 
ATOM      9  C   UNL     1      35.455 -24.223 -15.274  0.00  0.00    +0.022 C 
ATOM     10  C   UNL     1      30.907 -23.766 -13.550  0.00  0.00    +0.017 C 
ATOM     11  C   UNL     1      31.007 -22.999 -15.863  0.00  0.00    +0.148 C 
ATOM     12  C   UNL     1      30.281 -23.236 -14.680  0.00  0.00    +0.032 C 
ATOM     13  H   UNL     1      32.775 -24.812 -11.743  0.00  0.00    +0.155 HD
ENDROOT
BRANCH   9  15
ATOM     14  N   UNL     1      37.136 -25.904 -15.237  0.00  0.00    -0.309 N 
ATOM     15  C   UNL     1      36.745 -24.669 -14.835  0.00  0.00    +0.083 C 
ATOM     16  C   UNL     1      37.715 -24.107 -14.069  0.00  0.00    +0.153 C 
ATOM     17  C   UNL     1      38.767 -25.052 -13.994  0.00  0.00    +0.054 C 
ATOM     18  C   UNL     1      38.383 -26.154 -14.727  0.00  0.00    +0.065 C 
ATOM     19  H   UNL     1      36.612 -26.518 -15.802  0.00  0.00    +0.152 HD
BRANCH  16  20
ATOM     20  O   UNL     1      37.665 -22.892 -13.503  0.00  0.00    -0.470 OA
ATOM     21  C   UNL     1      37.652 -22.822 -12.069  0.00  0.00    +0.253 C 
ENDBRANCH  16  20
ENDBRANCH   9  15
BRANCH   7  23
ATOM     22  C   UNL     1      33.654 -22.811 -18.184  0.00  0.00    -0.060 C 
ATOM     23  C   UNL     1      33.073 -23.032 -17.157  0.00  0.00    -0.060 C 
BRANCH  22  24
ATOM     24  C   UNL     1      34.370 -22.545 -19.442  0.00  0.00    +0.157 C 
BRANCH  24  25
ATOM     25  O   UNL     1      34.342 -23.718 -20.251  0.00  0.00    -0.374 OA
ATOM     26  H   UNL     1      35.173 -23.789 -20.746  0.00  0.00    +0.211 HD
ENDBRANCH  24  25
BRANCH  24  27
ATOM     27  C   UNL     1      33.783 -21.332 -20.209  0.00  0.00    +0.002 C 
BRANCH  27  28
ATOM     28  N   UNL     1      32.630 -20.832 -19.445  0.00  0.00    +0.386 N 
ATOM     29  H   UNL     1      32.330 -21.544 -18.780  0.00  0.00    -0.089 HD
ATOM     30  H   UNL     1      31.864 -20.621 -20.085  0.00  0.00    -0.089 HD
ATOM     31  H   UNL     1      32.897 -19.987 -18.942  0.00  0.00    -0.089 HD
ENDBRANCH  27  28
BRANCH  27  32
ATOM     32  C   UNL     1      34.788 -20.177 -20.447  0.00  0.00    +0.094 C 
ATOM     33  C   UNL     1      36.236 -20.563 -20.147  0.00  0.00    +0.030 C 
BRANCH  32  34
ATOM     34  O   UNL     1      34.728 -19.772 -21.815  0.00  0.00    -0.386 OA
ATOM     35  H   UNL     1      33.808 -19.586 -22.057  0.00  0.00    +0.210 HD
ENDBRANCH  32  34
ENDBRANCH  27  32
ENDBRANCH  24  27
ENDBRANCH  22  24
ENDBRANCH   7  23
TORSDOF 9
ENDMDL
MODEL 2
REMARK VINA RESULT:      -8.5      1.604      2.029
REMARK  Name = 5288222
REMARK  9 active torsions:
REMARK  status: ('A' for Active; 'I' for Inactive)
REMARK    1  A    between atoms: C_7  and  C_23
REMARK    2  A    between atoms: C_9  and  C_15
REMARK    3  A    between atoms: C_16  and  O_20
REMARK    4  A    between atoms: C_22  and  C_24
REMARK    5  A    between atoms: C_24  and  O_25
REMARK    6  A    between atoms: C_24  and  C_27
REMARK    7  A    between atoms: C_27  and  N_28
REMARK    8  A    between atoms: C_27  and  C_32
REMARK    9  A    between atoms: C_32  and  O_34
REMARK                            x       y       z     vdW  Elec       q    Type
REMARK                         _______ _______ _______ _____ _____    ______ ____
ROOT
ATOM      1  F   UNL     1      29.574 -22.772 -17.323  0.00  0.00    -0.204 F 
ATOM      2  O   UNL     1      34.640 -24.668 -12.591  0.00  0.00    -0.270 OA
ATOM      3  N   UNL     1      32.306 -24.493 -12.898  0.00  0.00    -0.280 N 
ATOM      4  C   UNL     1      32.234 -23.687 -15.051  0.00  0.00    +0.028 C 
ATOM      5  C   UNL     1      33.628 -23.870 -14.659  0.00  0.00    +0.057 C 
ATOM      6  C   UNL     1      31.474 -24.080 -13.944  0.00  0.00    +0.051 C 
ATOM      7  C   UNL     1      31.619 -23.242 -16.203  0.00  0.00    +0.070 C 
ATOM      8  C   UNL     1      33.655 -24.395 -13.254  0.00  0.00    +0.250 C 
ATOM      9  C   UNL     1      34.762 -23.650 -15.329  0.00  0.00    +0.022 C 
ATOM     10  C   UNL     1      30.094 -24.044 -13.945  0.00  0.00    +0.017 C 
ATOM     11  C   UNL     1      30.222 -23.196 -16.228  0.00  0.00    +0.148 C 
ATOM     12  C   UNL     1      29.466 -23.594 -15.108  0.00  0.00    +0.032 C 
ATOM     13  H   UNL     1      31.983 -24.810 -12.023  0.00  0.00    +0.155 HD
ENDROOT
BRANCH   9  15
ATOM     14  N   UNL     1      36.582 -22.931 -13.978  0.00  0.00    -0.309 N 
ATOM     15  C   UNL     1      36.076 -23.880 -14.804  0.00  0.00    +0.083 C 
ATOM     16  C   UNL     1      36.976 -24.886 -14.954  0.00  0.00    +0.153 C 
ATOM     17  C   UNL     1      38.105 -24.535 -14.174  0.00  0.00    +0.054 C 
ATOM     18  C   UNL     1      37.833 -23.322 -13.580  0.00  0.00    +0.065 C 
ATOM     19  H   UNL     1      36.125 -22.100 -13.709  0.00  0.00    +0.152 HD
BRANCH  16  20
ATOM     20  O   UNL     1      36.809 -25.988 -15.701  0.00  0.00    -0.470 OA
ATOM     21  C   UNL     1      36.937 -27.262 -15.052  0.00  0.00    +0.253 C 
ENDBRANCH  16  20
ENDBRANCH   9  15
BRANCH   7  23
ATOM     22  C   UNL     1      32.965 -22.480 -18.332  0.00  0.00    -0.060 C 
ATOM     23  C   UNL     1      32.347 -22.828 -17.363  0.00  0.00    -0.060 C 
BRANCH  22  24
ATOM     24  C   UNL     1      33.717 -22.053 -19.523  0.00  0.00    +0.157 C 
BRANCH  24  25
ATOM     25  O   UNL     1      32.826 -21.416 -20.433  0.00  0.00    -0.374 OA
ATOM     26  H   UNL     1      33.337 -20.942 -21.108  0.00  0.00    +0.211 HD
ENDBRANCH  24  25
BRANCH  24  27
ATOM     27  C   UNL     1      34.903 -21.119 -19.168  0.00  0.00    +0.002 C 
BRANCH  27  28
ATOM     28  N   UNL     1      35.906 -21.920 -18.450  0.00  0.00    +0.386 N 
ATOM     29  H   UNL     1      35.636 -22.903 -18.474  0.00  0.00    -0.089 HD
ATOM     30  H   UNL     1      35.961 -21.606 -17.481  0.00  0.00    -0.089 HD
ATOM     31  H   UNL     1      36.815 -21.805 -18.898  0.00  0.00    -0.089 HD
ENDBRANCH  27  28
BRANCH  27  32
ATOM     32  C   UNL     1      35.564 -20.430 -20.388  0.00  0.00    +0.094 C 
ATOM     33  C   UNL     1      34.743 -19.268 -20.945  0.00  0.00    +0.030 C 
BRANCH  32  34
ATOM     34  O   UNL     1      36.837 -19.910 -20.005  0.00  0.00    -0.386 OA
ATOM     35  H   UNL     1      37.364 -20.613 -19.594  0.00  0.00    +0.210 HD
ENDBRANCH  32  34
ENDBRANCH  27  32
ENDBRANCH  24  27
ENDBRANCH  22  24
ENDBRANCH   7  23
TORSDOF 9
ENDMDL
MODEL 3
REMARK VINA RESULT:      -8.4      2.191      5.834
REMARK  Name = 5288222
REMARK  9 active torsions:
REMARK  status: ('A' for Active; 'I' for Inactive)
REMARK    1  A    between atoms: C_7  and  C_23
REMARK    2  A    between atoms: C_9  and  C_15
REMARK    3  A    between atoms: C_16  and  O_20
REMARK    4  A    between atoms: C_22  and  C_24
REMARK    5  A    between atoms: C_24  and  O_25
REMARK    6  A    between atoms: C_24  and  C_27
REMARK    7  A    between atoms: C_27  and  N_28
REMARK    8  A    between atoms: C_27  and  C_32
REMARK    9  A    between atoms: C_32  and  O_34
REMARK                            x       y       z     vdW  Elec       q    Type
REMARK                         _______ _______ _______ _____ _____    ______ ____
ROOT
ATOM      1  F   UNL     1      31.760 -25.409 -12.707  0.00  0.00    -0.204 F 
ATOM      2  O   UNL     1      32.672 -21.711 -18.801  0.00  0.00    -0.270 OA
ATOM      3  N   UNL     1      31.036 -22.513 -17.301  0.00  0.00    -0.280 N 
ATOM      4  C   UNL     1      32.377 -23.570 -15.760  0.00  0.00    +0.028 C 
ATOM      5  C   UNL     1      33.218 -22.990 -16.801  0.00  0.00    +0.057 C 
ATOM      6  C   UNL     1      31.061 -23.251 -16.112  0.00  0.00    +0.051 C 
ATOM      7  C   UNL     1      32.640 -24.297 -14.616  0.00  0.00    +0.070 C 
ATOM      8  C   UNL     1      32.328 -22.305 -17.796  0.00  0.00    +0.250 C 
ATOM      9  C   UNL     1      34.544 -22.994 -16.959  0.00  0.00    +0.022 C 
ATOM     10  C   UNL     1      29.977 -23.638 -15.351  0.00  0.00    +0.017 C 
ATOM     11  C   UNL     1      31.558 -24.701 -13.829  0.00  0.00    +0.148 C 
ATOM     12  C   UNL     1      30.238 -24.374 -14.193  0.00  0.00    +0.032 C 
ATOM     13  H   UNL     1      30.215 -22.183 -17.733  0.00  0.00    +0.155 HD
ENDROOT
BRANCH   9  15
ATOM     14  N   UNL     1      34.828 -22.699 -19.301  0.00  0.00    -0.309 N 
ATOM     15  C   UNL     1      35.237 -22.372 -18.049  0.00  0.00    +0.083 C 
ATOM     16  C   UNL     1      36.262 -21.485 -18.117  0.00  0.00    +0.153 C 
ATOM     17  C   UNL     1      36.500 -21.250 -19.493  0.00  0.00    +0.054 C 
ATOM     18  C   UNL     1      35.598 -22.012 -20.203  0.00  0.00    +0.065 C 
ATOM     19  H   UNL     1      34.100 -23.323 -19.524  0.00  0.00    +0.152 HD
BRANCH  16  20
ATOM     20  O   UNL     1      36.909 -20.948 -17.072  0.00  0.00    -0.470 OA
ATOM     21  C   UNL     1      37.580 -21.841 -16.170  0.00  0.00    +0.253 C 
ENDBRANCH  16  20
ENDBRANCH   9  15
BRANCH   7  23
ATOM     22  C   UNL     1      35.078 -24.941 -13.864  0.00  0.00    -0.060 C 
ATOM     23  C   UNL     1      33.965 -24.651 -14.209  0.00  0.00    -0.060 C 
BRANCH  22  24
ATOM     24  C   UNL     1      36.442 -25.301 -13.443  0.00  0.00    +0.157 C 
BRANCH  24  25
ATOM     25  O   UNL     1      36.416 -25.702 -12.076  0.00  0.00    -0.374 OA
ATOM     26  H   UNL     1      35.637 -26.257 -11.917  0.00  0.00    +0.211 HD
ENDBRANCH  24  25
BRANCH  24  27
ATOM     27  C   UNL     1      37.061 -26.409 -14.332  0.00  0.00    +0.002 C 
BRANCH  27  28
ATOM     28  N   UNL     1      36.069 -26.770 -15.357  0.00  0.00    +0.386 N 
ATOM     29  H   UNL     1      35.668 -25.920 -15.755  0.00  0.00    -0.089 HD
ATOM     30  H   UNL     1      35.328 -27.327 -14.931  0.00  0.00    -0.089 HD
ATOM     31  H   UNL     1      36.522 -27.310 -16.093  0.00  0.00    -0.089 HD
ENDBRANCH  27  28
BRANCH  27  32
ATOM     32  C   UNL     1      38.393 -26.013 -15.017  0.00  0.00    +0.094 C 
ATOM     33  C   UNL     1      38.887 -24.622 -14.620  0.00  0.00    +0.030 C 
BRANCH  32  34
ATOM     34  O   UNL     1      39.409 -26.947 -14.652  0.00  0.00    -0.386 OA
ATOM     35  H   UNL     1      40.281 -26.569 -14.846  0.00  0.00    +0.210 HD
ENDBRANCH  32  34
ENDBRANCH  27  32
ENDBRANCH  24  27
ENDBRANCH  22  24
ENDBRANCH   7  23
TORSDOF 9
ENDMDL
MODEL 4
REMARK VINA RESULT:      -8.3      2.307      6.165
REMARK  Name = 5288222
REMARK  9 active torsions:
REMARK  status: ('A' for Active; 'I' for Inactive)
REMARK    1  A    between atoms: C_7  and  C_23
REMARK    2  A    between atoms: C_9  and  C_15
REMARK    3  A    between atoms: C_16  and  O_20
REMARK    4  A    between atoms: C_22  and  C_24
REMARK    5  A    between atoms: C_24  and  O_25
REMARK    6  A    between atoms: C_24  and  C_27
REMARK    7  A    between atoms: C_27  and  N_28
REMARK    8  A    between atoms: C_27  and  C_32
REMARK    9  A    between atoms: C_32  and  O_34
REMARK                            x       y       z     vdW  Elec       q    Type
REMARK                         _______ _______ _______ _____ _____    ______ ____
ROOT
ATOM      1  F   UNL     1      32.313 -25.409 -12.847  0.00  0.00    -0.204 F 
ATOM      2  O   UNL     1      32.718 -21.592 -18.923  0.00  0.00    -0.270 OA
ATOM      3  N   UNL     1      31.211 -22.436 -17.314  0.00  0.00    -0.280 N 
ATOM      4  C   UNL     1      32.675 -23.510 -15.903  0.00  0.00    +0.028 C 
ATOM      5  C   UNL     1      33.428 -22.904 -16.996  0.00  0.00    +0.057 C 
ATOM      6  C   UNL     1      31.334 -23.195 -16.145  0.00  0.00    +0.051 C 
ATOM      7  C   UNL     1      33.033 -24.255 -14.798  0.00  0.00    +0.070 C 
ATOM      8  C   UNL     1      32.458 -22.208 -17.906  0.00  0.00    +0.250 C 
ATOM      9  C   UNL     1      34.738 -22.894 -17.257  0.00  0.00    +0.022 C 
ATOM     10  C   UNL     1      30.315 -23.605 -15.309  0.00  0.00    +0.017 C 
ATOM     11  C   UNL     1      32.019 -24.682 -13.936  0.00  0.00    +0.148 C 
ATOM     12  C   UNL     1      30.672 -24.360 -14.189  0.00  0.00    +0.032 C 
ATOM     13  H   UNL     1      30.356 -22.105 -17.674  0.00  0.00    +0.155 HD
ENDROOT
BRANCH   9  15
ATOM     14  N   UNL     1      34.870 -22.592 -19.612  0.00  0.00    -0.309 N 
ATOM     15  C   UNL     1      35.338 -22.246 -18.387  0.00  0.00    +0.083 C 
ATOM     16  C   UNL     1      36.321 -21.318 -18.515  0.00  0.00    +0.153 C 
ATOM     17  C   UNL     1      36.466 -21.076 -19.903  0.00  0.00    +0.054 C 
ATOM     18  C   UNL     1      35.556 -21.876 -20.558  0.00  0.00    +0.065 C 
ATOM     19  H   UNL     1      34.155 -23.245 -19.791  0.00  0.00    +0.152 HD
BRANCH  16  20
ATOM     20  O   UNL     1      37.007 -20.754 -17.511  0.00  0.00    -0.470 OA
ATOM     21  C   UNL     1      37.537 -21.618 -16.494  0.00  0.00    +0.253 C 
ENDBRANCH  16  20
ENDBRANCH   9  15
BRANCH   7  23
ATOM     22  C   UNL     1      35.523 -24.906 -14.252  0.00  0.00    -0.060 C 
ATOM     23  C   UNL     1      34.388 -24.606 -14.503  0.00  0.00    -0.060 C 
BRANCH  22  24
ATOM     24  C   UNL     1      36.916 -25.271 -13.945  0.00  0.00    +0.157 C 
BRANCH  24  25
ATOM     25  O   UNL     1      37.784 -24.585 -14.842  0.00  0.00    -0.374 OA
ATOM     26  H   UNL     1      37.406 -23.719 -15.059  0.00  0.00    +0.211 HD
ENDBRANCH  24  25
BRANCH  24  27
ATOM     27  C   UNL     1      37.294 -24.970 -12.472  0.00  0.00    +0.002 C 
BRANCH  27  28
ATOM     28  N   UNL     1      38.731 -24.659 -12.432  0.00  0.00    +0.386 N 
ATOM     29  H   UNL     1      39.007 -24.456 -11.471  0.00  0.00    -0.089 HD
ATOM     30  H   UNL     1      38.920 -23.846 -13.018  0.00  0.00    -0.089 HD
ATOM     31  H   UNL     1      39.261 -25.459 -12.776  0.00  0.00    -0.089 HD
ENDBRANCH  27  28
BRANCH  27  32
ATOM     32  C   UNL     1      36.494 -23.809 -11.830  0.00  0.00    +0.094 C 
ATOM     33  C   UNL     1      35.582 -24.261 -10.690  0.00  0.00    +0.030 C 
BRANCH  32  34
ATOM     34  O   UNL     1      37.403 -22.847 -11.294  0.00  0.00    -0.386 OA
ATOM     35  H   UNL     1      37.053 -22.502 -10.458  0.00  0.00    +0.210 HD
ENDBRANCH  32  34
ENDBRANCH  27  32
ENDBRANCH  24  27
ENDBRANCH  22  24
ENDBRANCH   7  23
TORSDOF 9
ENDMDL
MODEL 5
REMARK VINA RESULT:      -8.3      2.590      5.205
REMARK  Name = 5288222
REMARK  9 active torsions:
REMARK  status: ('A' for Active; 'I' for Inactive)
REMARK    1  A    between atoms: C_7  and  C_23
REMARK    2  A    between atoms: C_9  and  C_15
REMARK    3  A    between atoms: C_16  and  O_20
REMARK    4  A    between atoms: C_22  and  C_24
REMARK    5  A    between atoms: C_24  and  O_25
REMARK    6  A    between atoms: C_24  and  C_27
REMARK    7  A    between atoms: C_27  and  N_28
REMARK    8  A    between atoms: C_27  and  C_32
REMARK    9  A    between atoms: C_32  and  O_34
REMARK                            x       y       z     vdW  Elec       q    Type
REMARK                         _______ _______ _______ _____ _____    ______ ____
ROOT
ATOM      1  F   UNL     1      37.368 -22.041 -16.950  0.00  0.00    -0.204 F 
ATOM      2  O   UNL     1      32.039 -25.021 -13.160  0.00  0.00    -0.270 OA
ATOM      3  N   UNL     1      34.342 -24.508 -13.107  0.00  0.00    -0.280 N 
ATOM      4  C   UNL     1      34.587 -23.509 -15.164  0.00  0.00    +0.028 C 
ATOM      5  C   UNL     1      33.195 -23.911 -14.995  0.00  0.00    +0.057 C 
ATOM      6  C   UNL     1      35.240 -23.896 -13.989  0.00  0.00    +0.051 C 
ATOM      7  C   UNL     1      35.281 -22.882 -16.178  0.00  0.00    +0.070 C 
ATOM      8  C   UNL     1      33.054 -24.560 -13.649  0.00  0.00    +0.250 C 
ATOM      9  C   UNL     1      32.142 -23.783 -15.806  0.00  0.00    +0.022 C 
ATOM     10  C   UNL     1      36.587 -23.676 -13.784  0.00  0.00    +0.017 C 
ATOM     11  C   UNL     1      36.648 -22.648 -15.995  0.00  0.00    +0.148 C 
ATOM     12  C   UNL     1      37.295 -23.041 -14.808  0.00  0.00    +0.032 C 
ATOM     13  H   UNL     1      34.587 -24.859 -12.220  0.00  0.00    +0.155 HD
ENDROOT
BRANCH   9  15
ATOM     14  N   UNL     1      30.678 -25.536 -15.144  0.00  0.00    -0.309 N 
ATOM     15  C   UNL     1      30.816 -24.234 -15.497  0.00  0.00    +0.083 C 
ATOM     16  C   UNL     1      29.605 -23.620 -15.477  0.00  0.00    +0.153 C 
ATOM     17  C   UNL     1      28.663 -24.603 -15.088  0.00  0.00    +0.054 C 
ATOM     18  C   UNL     1      29.354 -25.778 -14.887  0.00  0.00    +0.065 C 
ATOM     19  H   UNL     1      31.406 -26.195 -15.081  0.00  0.00    +0.152 HD
BRANCH  16  20
ATOM     20  O   UNL     1      29.369 -22.333 -15.773  0.00  0.00    -0.470 OA
ATOM     21  C   UNL     1      28.107 -22.006 -16.375  0.00  0.00    +0.253 C 
ENDBRANCH  16  20
ENDBRANCH   9  15
BRANCH   7  23
ATOM     22  C   UNL     1      34.153 -22.112 -18.428  0.00  0.00    -0.060 C 
ATOM     23  C   UNL     1      34.665 -22.465 -17.400  0.00  0.00    -0.060 C 
BRANCH  22  24
ATOM     24  C   UNL     1      33.522 -21.680 -19.685  0.00  0.00    +0.157 C 
BRANCH  24  25
ATOM     25  O   UNL     1      32.409 -20.843 -19.384  0.00  0.00    -0.374 OA
ATOM     26  H   UNL     1      32.538 -20.434 -18.514  0.00  0.00    +0.211 HD
ENDBRANCH  24  25
BRANCH  24  27
ATOM     27  C   UNL     1      34.518 -20.956 -20.627  0.00  0.00    +0.002 C 
BRANCH  27  28
ATOM     28  N   UNL     1      33.809 -19.828 -21.249  0.00  0.00    +0.386 N 
ATOM     29  H   UNL     1      34.026 -19.800 -22.246  0.00  0.00    -0.089 HD
ATOM     30  H   UNL     1      34.108 -18.956 -20.812  0.00  0.00    -0.089 HD
ATOM     31  H   UNL     1      32.805 -19.946 -21.123  0.00  0.00    -0.089 HD
ENDBRANCH  27  28
BRANCH  27  32
ATOM     32  C   UNL     1      35.802 -20.440 -19.928  0.00  0.00    +0.094 C 
ATOM     33  C   UNL     1      37.021 -21.328 -20.171  0.00  0.00    +0.030 C 
BRANCH  32  34
ATOM     34  O   UNL     1      36.117 -19.137 -20.419  0.00  0.00    -0.386 OA
ATOM     35  H   UNL     1      36.477 -18.598 -19.698  0.00  0.00    +0.210 HD
ENDBRANCH  32  34
ENDBRANCH  27  32
ENDBRANCH  24  27
ENDBRANCH  22  24
ENDBRANCH   7  23
TORSDOF 9
ENDMDL
MODEL 6
REMARK VINA RESULT:      -8.3      2.650      7.226
REMARK  Name = 5288222
REMARK  9 active torsions:
REMARK  status: ('A' for Active; 'I' for Inactive)
REMARK    1  A    between atoms: C_7  and  C_23
REMARK    2  A    between atoms: C_9  and  C_15
REMARK    3  A    between atoms: C_16  and  O_20
REMARK    4  A    between atoms: C_22  and  C_24
REMARK    5  A    between atoms: C_24  and  O_25
REMARK    6  A    between atoms: C_24  and  C_27
REMARK    7  A    between atoms: C_27  and  N_28
REMARK    8  A    between atoms: C_27  and  C_32
REMARK    9  A    between atoms: C_32  and  O_34
REMARK                            x       y       z     vdW  Elec       q    Type
REMARK                         _______ _______ _______ _____ _____    ______ ____
ROOT
ATOM      1  F   UNL     1      37.904 -22.429 -16.223  0.00  0.00    -0.204 F 
ATOM      2  O   UNL     1      30.885 -23.268 -17.519  0.00  0.00    -0.270 OA
ATOM      3  N   UNL     1      32.895 -22.442 -18.441  0.00  0.00    -0.280 N 
ATOM      4  C   UNL     1      34.357 -22.919 -16.731  0.00  0.00    +0.028 C 
ATOM      5  C   UNL     1      33.021 -23.363 -16.350  0.00  0.00    +0.057 C 
ATOM      6  C   UNL     1      34.224 -22.367 -18.009  0.00  0.00    +0.051 C 
ATOM      7  C   UNL     1      35.587 -22.953 -16.106  0.00  0.00    +0.070 C 
ATOM      8  C   UNL     1      32.081 -23.045 -17.476  0.00  0.00    +0.250 C 
ATOM      9  C   UNL     1      32.579 -23.958 -15.238  0.00  0.00    +0.022 C 
ATOM     10  C   UNL     1      35.294 -21.836 -18.701  0.00  0.00    +0.017 C 
ATOM     11  C   UNL     1      36.686 -22.421 -16.786  0.00  0.00    +0.148 C 
ATOM     12  C   UNL     1      36.541 -21.867 -18.073  0.00  0.00    +0.032 C 
ATOM     13  H   UNL     1      32.574 -22.112 -19.312  0.00  0.00    +0.155 HD
ENDROOT
BRANCH   9  15
ATOM     14  N   UNL     1      30.937 -25.667 -15.049  0.00  0.00    -0.309 N 
ATOM     15  C   UNL     1      31.217 -24.340 -15.006  0.00  0.00    +0.083 C 
ATOM     16  C   UNL     1      30.086 -23.639 -14.738  0.00  0.00    +0.153 C 
ATOM     17  C   UNL     1      29.045 -24.591 -14.608  0.00  0.00    +0.054 C 
ATOM     18  C   UNL     1      29.599 -25.837 -14.804  0.00  0.00    +0.065 C 
ATOM     19  H   UNL     1      31.586 -26.386 -15.225  0.00  0.00    +0.152 HD
BRANCH  16  20
ATOM     20  O   UNL     1      29.993 -22.306 -14.624  0.00  0.00    -0.470 OA
ATOM     21  C   UNL     1      28.756 -21.686 -15.006  0.00  0.00    +0.253 C 
ENDBRANCH  16  20
ENDBRANCH   9  15
BRANCH   7  23
ATOM     22  C   UNL     1      35.943 -23.975 -13.707  0.00  0.00    -0.060 C 
ATOM     23  C   UNL     1      35.780 -23.505 -14.800  0.00  0.00    -0.060 C 
BRANCH  22  24
ATOM     24  C   UNL     1      36.142 -24.548 -12.366  0.00  0.00    +0.157 C 
BRANCH  24  25
ATOM     25  O   UNL     1      34.885 -24.987 -11.857  0.00  0.00    -0.374 OA
ATOM     26  H   UNL     1      34.994 -25.284 -10.940  0.00  0.00    +0.211 HD
ENDBRANCH  24  25
BRANCH  24  27
ATOM     27  C   UNL     1      37.173 -25.705 -12.365  0.00  0.00    +0.002 C 
BRANCH  27  28
ATOM     28  N   UNL     1      36.818 -26.624 -13.457  0.00  0.00    +0.386 N 
ATOM     29  H   UNL     1      37.639 -27.170 -13.721  0.00  0.00    -0.089 HD
ATOM     30  H   UNL     1      36.496 -26.086 -14.262  0.00  0.00    -0.089 HD
ATOM     31  H   UNL     1      36.077 -27.250 -13.147  0.00  0.00    -0.089 HD
ENDBRANCH  27  28
BRANCH  27  32
ATOM     32  C   UNL     1      38.646 -25.251 -12.527  0.00  0.00    +0.094 C 
ATOM     33  C   UNL     1      39.174 -25.408 -13.952  0.00  0.00    +0.030 C 
BRANCH  32  34
ATOM     34  O   UNL     1      38.756 -23.871 -12.179  0.00  0.00    -0.386 OA
ATOM     35  H   UNL     1      38.442 -23.740 -11.271  0.00  0.00    +0.210 HD
ENDBRANCH  32  34
ENDBRANCH  27  32
ENDBRANCH  24  27
ENDBRANCH  22  24
ENDBRANCH   7  23
TORSDOF 9
ENDMDL
MODEL 7
REMARK VINA RESULT:      -8.1      2.664      5.412
REMARK  Name = 5288222
REMARK  9 active torsions:
REMARK  status: ('A' for Active; 'I' for Inactive)
REMARK    1  A    between atoms: C_7  and  C_23
REMARK    2  A    between atoms: C_9  and  C_15
REMARK    3  A    between atoms: C_16  and  O_20
REMARK    4  A    between atoms: C_22  and  C_24
REMARK    5  A    between atoms: C_24  and  O_25
REMARK    6  A    between atoms: C_24  and  C_27
REMARK    7  A    between atoms: C_27  and  N_28
REMARK    8  A    between atoms: C_27  and  C_32
REMARK    9  A    between atoms: C_32  and  O_34
REMARK                            x       y       z     vdW  Elec       q    Type
REMARK                         _______ _______ _______ _____ _____    ______ ____
ROOT
ATOM      1  F   UNL     1      37.551 -22.995 -16.331  0.00  0.00    -0.204 F 
ATOM      2  O   UNL     1      31.149 -23.771 -13.160  0.00  0.00    -0.270 OA
ATOM      3  N   UNL     1      33.475 -23.929 -12.792  0.00  0.00    -0.280 N 
ATOM      4  C   UNL     1      34.260 -23.345 -14.874  0.00  0.00    +0.028 C 
ATOM      5  C   UNL     1      32.802 -23.308 -14.890  0.00  0.00    +0.057 C 
ATOM      6  C   UNL     1      34.616 -23.728 -13.577  0.00  0.00    +0.051 C 
ATOM      7  C   UNL     1      35.230 -23.092 -15.822  0.00  0.00    +0.070 C 
ATOM      8  C   UNL     1      32.308 -23.691 -13.525  0.00  0.00    +0.250 C 
ATOM      9  C   UNL     1      31.944 -23.005 -15.868  0.00  0.00    +0.022 C 
ATOM     10  C   UNL     1      35.931 -23.871 -13.182  0.00  0.00    +0.017 C 
ATOM     11  C   UNL     1      36.570 -23.230 -15.447  0.00  0.00    +0.148 C 
ATOM     12  C   UNL     1      36.918 -23.616 -14.138  0.00  0.00    +0.032 C 
ATOM     13  H   UNL     1      33.492 -24.204 -11.847  0.00  0.00    +0.155 HD
ENDROOT
BRANCH   9  15
ATOM     14  N   UNL     1      29.929 -21.847 -15.363  0.00  0.00    -0.309 N 
ATOM     15  C   UNL     1      30.517 -23.013 -15.730  0.00  0.00    +0.083 C 
ATOM     16  C   UNL     1      29.571 -23.973 -15.893  0.00  0.00    +0.153 C 
ATOM     17  C   UNL     1      28.325 -23.362 -15.609  0.00  0.00    +0.054 C 
ATOM     18  C   UNL     1      28.576 -22.047 -15.285  0.00  0.00    +0.065 C 
ATOM     19  H   UNL     1      30.397 -20.999 -15.185  0.00  0.00    +0.152 HD
BRANCH  16  20
ATOM     20  O   UNL     1      29.794 -25.246 -16.252  0.00  0.00    -0.470 OA
ATOM     21  C   UNL     1      29.779 -26.245 -15.220  0.00  0.00    +0.253 C 
ENDBRANCH  16  20
ENDBRANCH   9  15
BRANCH   7  23
ATOM     22  C   UNL     1      34.670 -22.369 -18.290  0.00  0.00    -0.060 C 
ATOM     23  C   UNL     1      34.922 -22.697 -17.162  0.00  0.00    -0.060 C 
BRANCH  22  24
ATOM     24  C   UNL     1      34.358 -21.964 -19.670  0.00  0.00    +0.157 C 
BRANCH  24  25
ATOM     25  O   UNL     1      32.956 -22.091 -19.886  0.00  0.00    -0.374 OA
ATOM     26  H   UNL     1      32.658 -21.396 -20.494  0.00  0.00    +0.211 HD
ENDBRANCH  24  25
BRANCH  24  27
ATOM     27  C   UNL     1      34.837 -20.524 -19.985  0.00  0.00    +0.002 C 
BRANCH  27  28
ATOM     28  N   UNL     1      36.306 -20.542 -20.045  0.00  0.00    +0.386 N 
ATOM     29  H   UNL     1      36.670 -21.102 -19.273  0.00  0.00    -0.089 HD
ATOM     30  H   UNL     1      36.661 -19.588 -19.968  0.00  0.00    -0.089 HD
ATOM     31  H   UNL     1      36.606 -20.947 -20.931  0.00  0.00    -0.089 HD
ENDBRANCH  27  28
BRANCH  27  32
ATOM     32  C   UNL     1      34.272 -19.935 -21.302  0.00  0.00    +0.094 C 
ATOM     33  C   UNL     1      33.202 -18.867 -21.077  0.00  0.00    +0.030 C 
BRANCH  32  34
ATOM     34  O   UNL     1      35.331 -19.328 -22.042  0.00  0.00    -0.386 OA
ATOM     35  H   UNL     1      35.146 -18.383 -22.158  0.00  0.00    +0.210 HD
ENDBRANCH  32  34
ENDBRANCH  27  32
ENDBRANCH  24  27
ENDBRANCH  22  24
ENDBRANCH   7  23
TORSDOF 9
ENDMDL
MODEL 8
REMARK VINA RESULT:      -7.8     11.154     15.874
REMARK  Name = 5288222
REMARK  9 active torsions:
REMARK  status: ('A' for Active; 'I' for Inactive)
REMARK    1  A    between atoms: C_7  and  C_23
REMARK    2  A    between atoms: C_9  and  C_15
REMARK    3  A    between atoms: C_16  and  O_20
REMARK    4  A    between atoms: C_22  and  C_24
REMARK    5  A    between atoms: C_24  and  O_25
REMARK    6  A    between atoms: C_24  and  C_27
REMARK    7  A    between atoms: C_27  and  N_28
REMARK    8  A    between atoms: C_27  and  C_32
REMARK    9  A    between atoms: C_32  and  O_34
REMARK                            x       y       z     vdW  Elec       q    Type
REMARK                         _______ _______ _______ _____ _____    ______ ____
ROOT
ATOM      1  F   UNL     1      31.589 -13.183 -19.983  0.00  0.00    -0.204 F 
ATOM      2  O   UNL     1      32.710  -6.307 -21.744  0.00  0.00    -0.270 OA
ATOM      3  N   UNL     1      32.046  -7.724 -19.978  0.00  0.00    -0.280 N 
ATOM      4  C   UNL     1      32.193  -9.771 -21.017  0.00  0.00    +0.028 C 
ATOM      5  C   UNL     1      32.574  -8.729 -21.965  0.00  0.00    +0.057 C 
ATOM      6  C   UNL     1      31.883  -9.106 -19.826  0.00  0.00    +0.051 C 
ATOM      7  C   UNL     1      32.103 -11.146 -21.097  0.00  0.00    +0.070 C 
ATOM      8  C   UNL     1      32.472  -7.403 -21.271  0.00  0.00    +0.250 C 
ATOM      9  C   UNL     1      32.961  -8.806 -23.241  0.00  0.00    +0.022 C 
ATOM     10  C   UNL     1      31.476  -9.775 -18.689  0.00  0.00    +0.017 C 
ATOM     11  C   UNL     1      31.693 -11.846 -19.958  0.00  0.00    +0.148 C 
ATOM     12  C   UNL     1      31.382 -11.167 -18.765  0.00  0.00    +0.032 C 
ATOM     13  H   UNL     1      31.882  -7.064 -19.266  0.00  0.00    +0.155 HD
ENDROOT
BRANCH   9  15
ATOM     14  N   UNL     1      34.627  -7.482 -24.303  0.00  0.00    -0.309 N 
ATOM     15  C   UNL     1      33.308  -7.678 -24.055  0.00  0.00    +0.083 C 
ATOM     16  C   UNL     1      32.576  -6.711 -24.667  0.00  0.00    +0.153 C 
ATOM     17  C   UNL     1      33.500  -5.868 -25.332  0.00  0.00    +0.054 C 
ATOM     18  C   UNL     1      34.761  -6.368 -25.090  0.00  0.00    +0.065 C 
ATOM     19  H   UNL     1      35.364  -8.045 -23.972  0.00  0.00    +0.152 HD
BRANCH  16  20
ATOM     20  O   UNL     1      31.240  -6.595 -24.635  0.00  0.00    -0.470 OA
ATOM     21  C   UNL     1      30.686  -5.279 -24.485  0.00  0.00    +0.253 C 
ENDBRANCH  16  20
ENDBRANCH   9  15
BRANCH   7  23
ATOM     22  C   UNL     1      32.668 -12.495 -23.284  0.00  0.00    -0.060 C 
ATOM     23  C   UNL     1      32.409 -11.876 -22.288  0.00  0.00    -0.060 C 
BRANCH  22  24
ATOM     24  C   UNL     1      32.986 -13.250 -24.507  0.00  0.00    +0.157 C 
BRANCH  24  25
ATOM     25  O   UNL     1      34.044 -12.592 -25.198  0.00  0.00    -0.374 OA
ATOM     26  H   UNL     1      33.950 -11.632 -25.095  0.00  0.00    +0.211 HD
ENDBRANCH  24  25
BRANCH  24  27
ATOM     27  C   UNL     1      33.354 -14.726 -24.211  0.00  0.00    +0.002 C 
BRANCH  27  28
ATOM     28  N   UNL     1      33.653 -15.381 -25.493  0.00  0.00    +0.386 N 
ATOM     29  H   UNL     1      32.781 -15.638 -25.954  0.00  0.00    -0.089 HD
ATOM     30  H   UNL     1      34.207 -16.221 -25.324  0.00  0.00    -0.089 HD
ATOM     31  H   UNL     1      34.178 -14.740 -26.087  0.00  0.00    -0.089 HD
ENDBRANCH  27  28
BRANCH  27  32
ATOM     32  C   UNL     1      34.551 -14.906 -23.244  0.00  0.00    +0.094 C 
ATOM     33  C   UNL     1      34.138 -15.383 -21.852  0.00  0.00    +0.030 C 
BRANCH  32  34
ATOM     34  O   UNL     1      35.450 -15.878 -23.779  0.00  0.00    -0.386 OA
ATOM     35  H   UNL     1      35.782 -15.573 -24.638  0.00  0.00    +0.210 HD
ENDBRANCH  32  34
ENDBRANCH  27  32
ENDBRANCH  24  27
ENDBRANCH  22  24
ENDBRANCH   7  23
TORSDOF 9
ENDMDL
MODEL 9
REMARK VINA RESULT:      -7.5      2.653      6.848
REMARK  Name = 5288222
REMARK  9 active torsions:
REMARK  status: ('A' for Active; 'I' for Inactive)
REMARK    1  A    between atoms: C_7  and  C_23
REMARK    2  A    between atoms: C_9  and  C_15
REMARK    3  A    between atoms: C_16  and  O_20
REMARK    4  A    between atoms: C_22  and  C_24
REMARK    5  A    between atoms: C_24  and  O_25
REMARK    6  A    between atoms: C_24  and  C_27
REMARK    7  A    between atoms: C_27  and  N_28
REMARK    8  A    between atoms: C_27  and  C_32
REMARK    9  A    between atoms: C_32  and  O_34
REMARK                            x       y       z     vdW  Elec       q    Type
REMARK                         _______ _______ _______ _____ _____    ______ ____
ROOT
ATOM      1  F   UNL     1      37.124 -21.964 -18.909  0.00  0.00    -0.204 F 
ATOM      2  O   UNL     1      30.471 -22.812 -16.328  0.00  0.00    -0.270 OA
ATOM      3  N   UNL     1      31.692 -22.065 -18.205  0.00  0.00    -0.280 N 
ATOM      4  C   UNL     1      33.840 -22.448 -17.475  0.00  0.00    +0.028 C 
ATOM      5  C   UNL     1      32.905 -22.855 -16.432  0.00  0.00    +0.057 C 
ATOM      6  C   UNL     1      33.050 -21.977 -18.529  0.00  0.00    +0.051 C 
ATOM      7  C   UNL     1      35.216 -22.455 -17.577  0.00  0.00    +0.070 C 
ATOM      8  C   UNL     1      31.511 -22.598 -16.925  0.00  0.00    +0.250 C 
ATOM      9  C   UNL     1      33.117 -23.374 -15.219  0.00  0.00    +0.022 C 
ATOM     10  C   UNL     1      33.595 -21.501 -19.706  0.00  0.00    +0.017 C 
ATOM     11  C   UNL     1      35.791 -21.978 -18.759  0.00  0.00    +0.148 C 
ATOM     12  C   UNL     1      34.988 -21.505 -19.814  0.00  0.00    +0.032 C 
ATOM     13  H   UNL     1      30.959 -21.788 -18.801  0.00  0.00    +0.155 HD
ENDROOT
BRANCH   9  15
ATOM     14  N   UNL     1      31.881 -22.887 -13.247  0.00  0.00    -0.309 N 
ATOM     15  C   UNL     1      32.082 -23.727 -14.292  0.00  0.00    +0.083 C 
ATOM     16  C   UNL     1      31.212 -24.767 -14.220  0.00  0.00    +0.153 C 
ATOM     17  C   UNL     1      30.427 -24.555 -13.060  0.00  0.00    +0.054 C 
ATOM     18  C   UNL     1      30.862 -23.384 -12.478  0.00  0.00    +0.065 C 
ATOM     19  H   UNL     1      32.383 -22.058 -13.071  0.00  0.00    +0.152 HD
BRANCH  16  20
ATOM     20  O   UNL     1      31.128 -25.786 -15.088  0.00  0.00    -0.470 OA
ATOM     21  C   UNL     1      29.903 -25.943 -15.820  0.00  0.00    +0.253 C 
ENDBRANCH  16  20
ENDBRANCH   9  15
BRANCH   7  23
ATOM     22  C   UNL     1      36.793 -23.317 -15.655  0.00  0.00    -0.060 C 
ATOM     23  C   UNL     1      36.070 -22.926 -16.531  0.00  0.00    -0.060 C 
BRANCH  22  24
ATOM     24  C   UNL     1      37.675 -23.799 -14.580  0.00  0.00    +0.157 C 
BRANCH  24  25
ATOM     25  O   UNL     1      37.592 -22.905 -13.474  0.00  0.00    -0.374 OA
ATOM     26  H   UNL     1      37.713 -21.994 -13.785  0.00  0.00    +0.211 HD
ENDBRANCH  24  25
BRANCH  24  27
ATOM     27  C   UNL     1      37.339 -25.248 -14.145  0.00  0.00    +0.002 C 
BRANCH  27  28
ATOM     28  N   UNL     1      37.228 -26.068 -15.360  0.00  0.00    +0.386 N 
ATOM     29  H   UNL     1      36.726 -25.545 -16.078  0.00  0.00    -0.089 HD
ATOM     30  H   UNL     1      36.719 -26.926 -15.147  0.00  0.00    -0.089 HD
ATOM     31  H   UNL     1      38.161 -26.301 -15.698  0.00  0.00    -0.089 HD
ENDBRANCH  27  28
BRANCH  27  32
ATOM     32  C   UNL     1      38.372 -25.885 -13.181  0.00  0.00    +0.094 C 
ATOM     33  C   UNL     1      39.821 -25.612 -13.582  0.00  0.00    +0.030 C 
BRANCH  32  34
ATOM     34  O   UNL     1      38.184 -25.355 -11.869  0.00  0.00    -0.386 OA
ATOM     35  H   UNL     1      38.413 -26.030 -11.211  0.00  0.00    +0.210 HD
ENDBRANCH  32  34
ENDBRANCH  27  32
ENDBRANCH  24  27
ENDBRANCH  22  24
ENDBRANCH   7  23
TORSDOF 9
ENDMDL
