MODEL 1
REMARK VINA RESULT:      -7.2      0.000      0.000
REMARK  Name = 6919011
REMARK  4 active torsions:
REMARK  status: ('A' for Active; 'I' for Inactive)
REMARK    1  A    between atoms: CA_1  and  N_2
REMARK    2  A    between atoms: CA_1  and  C_8
REMARK    3  A    between atoms: CA_1  and  CB_9
REMARK    4  A    between atoms: CB_9  and  CG_10
REMARK                            x       y       z     vdW  Elec       q    Type
REMARK                         _______ _______ _______ _____ _____    ______ ____
ROOT
ATOM      1  CA  PHE A   1      35.390 -17.849 -21.703  0.00  0.00    +0.045 C 
ENDROOT
BRANCH   1   2
ATOM      2  N   PHE A   1      36.021 -17.906 -23.060  0.00  0.00    +0.389 N 
ATOM      3  H1  PHE A   1      36.667 -18.695 -23.102  0.00  0.00    -0.088 HD
ATOM      4  H2  PHE A   1      36.531 -17.040 -23.234  0.00  0.00    -0.088 HD
ATOM      5  H3  PHE A   1      35.296 -18.022 -23.768  0.00  0.00    -0.088 HD
ENDBRANCH   1   2
BRANCH   1   8
ATOM      6  O   PHE A   1      34.990 -16.163 -20.098  0.00  0.00    -0.248 OA
ATOM      7  OXT PHE A   1      34.631 -15.682 -22.304  0.00  0.00    -0.248 OA
ATOM      8  C   PHE A   1      34.957 -16.423 -21.334  0.00  0.00    +0.345 C 
ENDBRANCH   1   8
BRANCH   1   9
ATOM      9  CB  PHE A   1      34.208 -18.825 -21.705  0.00  0.00    +0.016 C 
BRANCH   9  10
ATOM     10  CG  PHE A   1      34.403 -19.975 -20.744  0.00  0.00    -0.024 C 
ATOM     11  CD1 PHE A   1      35.689 -20.387 -20.431  0.00  0.00    -0.004 C 
ATOM     12  CD2 PHE A   1      33.293 -20.596 -20.196  0.00  0.00    -0.004 C 
ATOM     13  CE1 PHE A   1      35.869 -21.449 -19.545  0.00  0.00    -0.000 C 
ATOM     14  CE2 PHE A   1      33.473 -21.658 -19.310  0.00  0.00    -0.000 C 
ATOM     15  CZ  PHE A   1      34.761 -22.085 -18.985  0.00  0.00    -0.000 C 
ENDBRANCH   9  10
ENDBRANCH   1   9
TORSDOF 4
ENDMDL
MODEL 2
REMARK VINA RESULT:      -6.9      1.504      1.825
REMARK  Name = 6919011
REMARK  4 active torsions:
REMARK  status: ('A' for Active; 'I' for Inactive)
REMARK    1  A    between atoms: CA_1  and  N_2
REMARK    2  A    between atoms: CA_1  and  C_8
REMARK    3  A    between atoms: CA_1  and  CB_9
REMARK    4  A    between atoms: CB_9  and  CG_10
REMARK                            x       y       z     vdW  Elec       q    Type
REMARK                         _______ _______ _______ _____ _____    ______ ____
ROOT
ATOM      1  CA  PHE A   1      34.731 -17.437 -22.026  0.00  0.00    +0.045 C 
ENDROOT
BRANCH   1   2
ATOM      2  N   PHE A   1      34.919 -16.421 -20.943  0.00  0.00    +0.389 N 
ATOM      3  H1  PHE A   1      35.432 -15.621 -21.313  0.00  0.00    -0.088 HD
ATOM      4  H2  PHE A   1      35.446 -16.836 -20.174  0.00  0.00    -0.088 HD
ATOM      5  H3  PHE A   1      34.008 -16.114 -20.603  0.00  0.00    -0.088 HD
ENDBRANCH   1   2
BRANCH   1   8
ATOM      6  O   PHE A   1      35.278 -15.611 -23.422  0.00  0.00    -0.248 OA
ATOM      7  OXT PHE A   1      34.831 -17.633 -24.390  0.00  0.00    -0.248 OA
ATOM      8  C   PHE A   1      34.967 -16.836 -23.420  0.00  0.00    +0.345 C 
ENDBRANCH   1   8
BRANCH   1   9
ATOM      9  CB  PHE A   1      35.684 -18.602 -21.735  0.00  0.00    +0.016 C 
BRANCH   9  10
ATOM     10  CG  PHE A   1      35.039 -19.688 -20.905  0.00  0.00    -0.024 C 
ATOM     11  CD1 PHE A   1      35.841 -20.608 -20.250  0.00  0.00    -0.004 C 
ATOM     12  CD2 PHE A   1      33.657 -19.742 -20.816  0.00  0.00    -0.004 C 
ATOM     13  CE1 PHE A   1      35.246 -21.611 -19.485  0.00  0.00    -0.000 C 
ATOM     14  CE2 PHE A   1      33.062 -20.745 -20.051  0.00  0.00    -0.000 C 
ATOM     15  CZ  PHE A   1      33.856 -21.679 -19.386  0.00  0.00    -0.000 C 
ENDBRANCH   9  10
ENDBRANCH   1   9
TORSDOF 4
ENDMDL
MODEL 3
REMARK VINA RESULT:      -6.9      1.510      2.237
REMARK  Name = 6919011
REMARK  4 active torsions:
REMARK  status: ('A' for Active; 'I' for Inactive)
REMARK    1  A    between atoms: CA_1  and  N_2
REMARK    2  A    between atoms: CA_1  and  C_8
REMARK    3  A    between atoms: CA_1  and  CB_9
REMARK    4  A    between atoms: CB_9  and  CG_10
REMARK                            x       y       z     vdW  Elec       q    Type
REMARK                         _______ _______ _______ _____ _____    ______ ____
ROOT
ATOM      1  CA  PHE A   1      34.728 -17.417 -22.026  0.00  0.00    +0.045 C 
ENDROOT
BRANCH   1   2
ATOM      2  N   PHE A   1      34.911 -16.385 -20.957  0.00  0.00    +0.389 N 
ATOM      3  H1  PHE A   1      35.157 -16.844 -20.080  0.00  0.00    -0.088 HD
ATOM      4  H2  PHE A   1      34.042 -15.864 -20.835  0.00  0.00    -0.088 HD
ATOM      5  H3  PHE A   1      35.656 -15.744 -21.227  0.00  0.00    -0.088 HD
ENDBRANCH   1   2
BRANCH   1   8
ATOM      6  O   PHE A   1      35.278 -15.611 -23.446  0.00  0.00    -0.248 OA
ATOM      7  OXT PHE A   1      34.800 -17.638 -24.389  0.00  0.00    -0.248 OA
ATOM      8  C   PHE A   1      34.955 -16.832 -23.428  0.00  0.00    +0.345 C 
ENDBRANCH   1   8
BRANCH   1   9
ATOM      9  CB  PHE A   1      35.690 -18.570 -21.722  0.00  0.00    +0.016 C 
BRANCH   9  10
ATOM     10  CG  PHE A   1      35.046 -19.665 -20.904  0.00  0.00    -0.024 C 
ATOM     11  CD1 PHE A   1      33.665 -19.712 -20.801  0.00  0.00    -0.004 C 
ATOM     12  CD2 PHE A   1      35.849 -20.600 -20.271  0.00  0.00    -0.004 C 
ATOM     13  CE1 PHE A   1      33.070 -20.722 -20.046  0.00  0.00    -0.000 C 
ATOM     14  CE2 PHE A   1      35.253 -21.610 -19.515  0.00  0.00    -0.000 C 
ATOM     15  CZ  PHE A   1      33.864 -21.671 -19.402  0.00  0.00    -0.000 C 
ENDBRANCH   9  10
ENDBRANCH   1   9
TORSDOF 4
ENDMDL
MODEL 4
REMARK VINA RESULT:      -6.8      1.792      2.661
REMARK  Name = 6919011
REMARK  4 active torsions:
REMARK  status: ('A' for Active; 'I' for Inactive)
REMARK    1  A    between atoms: CA_1  and  N_2
REMARK    2  A    between atoms: CA_1  and  C_8
REMARK    3  A    between atoms: CA_1  and  CB_9
REMARK    4  A    between atoms: CB_9  and  CG_10
REMARK                            x       y       z     vdW  Elec       q    Type
REMARK                         _______ _______ _______ _____ _____    ______ ____
ROOT
ATOM      1  CA  PHE A   1      35.056 -17.918 -23.565  0.00  0.00    +0.045 C 
ENDROOT
BRANCH   1   2
ATOM      2  N   PHE A   1      34.472 -19.123 -24.235  0.00  0.00    +0.389 N 
ATOM      3  H1  PHE A   1      33.960 -19.678 -23.549  0.00  0.00    -0.088 HD
ATOM      4  H2  PHE A   1      35.222 -19.686 -24.635  0.00  0.00    -0.088 HD
ATOM      5  H3  PHE A   1      33.837 -18.827 -24.976  0.00  0.00    -0.088 HD
ENDBRANCH   1   2
BRANCH   1   8
ATOM      6  O   PHE A   1      34.925 -16.866 -25.677  0.00  0.00    -0.248 OA
ATOM      7  OXT PHE A   1      34.781 -15.571 -23.799  0.00  0.00    -0.248 OA
ATOM      8  C   PHE A   1      34.908 -16.657 -24.431  0.00  0.00    +0.345 C 
ENDBRANCH   1   8
BRANCH   1   9
ATOM      9  CB  PHE A   1      34.363 -17.765 -22.207  0.00  0.00    +0.016 C 
BRANCH   9  10
ATOM     10  CG  PHE A   1      34.516 -18.990 -21.335  0.00  0.00    -0.024 C 
ATOM     11  CD1 PHE A   1      33.383 -19.647 -20.883  0.00  0.00    -0.004 C 
ATOM     12  CD2 PHE A   1      35.787 -19.432 -21.004  0.00  0.00    -0.004 C 
ATOM     13  CE1 PHE A   1      33.524 -20.778 -20.078  0.00  0.00    -0.000 C 
ATOM     14  CE2 PHE A   1      35.928 -20.562 -20.199  0.00  0.00    -0.000 C 
ATOM     15  CZ  PHE A   1      34.797 -21.235 -19.736  0.00  0.00    -0.000 C 
ENDBRANCH   9  10
ENDBRANCH   1   9
TORSDOF 4
ENDMDL
MODEL 5
REMARK VINA RESULT:      -6.6      7.037      8.354
REMARK  Name = 6919011
REMARK  4 active torsions:
REMARK  status: ('A' for Active; 'I' for Inactive)
REMARK    1  A    between atoms: CA_1  and  N_2
REMARK    2  A    between atoms: CA_1  and  C_8
REMARK    3  A    between atoms: CA_1  and  CB_9
REMARK    4  A    between atoms: CB_9  and  CG_10
REMARK                            x       y       z     vdW  Elec       q    Type
REMARK                         _______ _______ _______ _____ _____    ______ ____
ROOT
ATOM      1  CA  PHE A   1      29.416 -23.982 -16.052  0.00  0.00    +0.045 C 
ENDROOT
BRANCH   1   2
ATOM      2  N   PHE A   1      28.743 -24.843 -15.029  0.00  0.00    +0.389 N 
ATOM      3  H1  PHE A   1      27.841 -25.157 -15.389  0.00  0.00    -0.088 HD
ATOM      4  H2  PHE A   1      28.599 -24.306 -14.174  0.00  0.00    -0.088 HD
ATOM      5  H3  PHE A   1      29.329 -25.653 -14.827  0.00  0.00    -0.088 HD
ENDBRANCH   1   2
BRANCH   1   8
ATOM      6  O   PHE A   1      28.503 -22.024 -17.009  0.00  0.00    -0.248 OA
ATOM      7  OXT PHE A   1      27.592 -24.044 -17.571  0.00  0.00    -0.248 OA
ATOM      8  C   PHE A   1      28.399 -23.283 -16.967  0.00  0.00    +0.345 C 
ENDBRANCH   1   8
BRANCH   1   9
ATOM      9  CB  PHE A   1      30.297 -22.978 -15.300  0.00  0.00    +0.016 C 
BRANCH   9  10
ATOM     10  CG  PHE A   1      31.758 -23.097 -15.667  0.00  0.00    -0.024 C 
ATOM     11  CD1 PHE A   1      32.129 -23.041 -17.001  0.00  0.00    -0.004 C 
ATOM     12  CD2 PHE A   1      32.698 -23.261 -14.663  0.00  0.00    -0.004 C 
ATOM     13  CE1 PHE A   1      33.477 -23.151 -17.340  0.00  0.00    -0.000 C 
ATOM     14  CE2 PHE A   1      34.046 -23.372 -15.002  0.00  0.00    -0.000 C 
ATOM     15  CZ  PHE A   1      34.436 -23.317 -16.341  0.00  0.00    -0.000 C 
ENDBRANCH   9  10
ENDBRANCH   1   9
TORSDOF 4
ENDMDL
MODEL 6
REMARK VINA RESULT:      -6.6      3.166      5.034
REMARK  Name = 6919011
REMARK  4 active torsions:
REMARK  status: ('A' for Active; 'I' for Inactive)
REMARK    1  A    between atoms: CA_1  and  N_2
REMARK    2  A    between atoms: CA_1  and  C_8
REMARK    3  A    between atoms: CA_1  and  CB_9
REMARK    4  A    between atoms: CB_9  and  CG_10
REMARK                            x       y       z     vdW  Elec       q    Type
REMARK                         _______ _______ _______ _____ _____    ______ ____
ROOT
ATOM      1  CA  PHE A   1      34.870 -21.001 -20.257  0.00  0.00    +0.045 C 
ENDROOT
BRANCH   1   2
ATOM      2  N   PHE A   1      36.096 -20.339 -19.707  0.00  0.00    +0.389 N 
ATOM      3  H1  PHE A   1      36.921 -20.876 -19.974  0.00  0.00    -0.088 HD
ATOM      4  H2  PHE A   1      36.032 -20.297 -18.690  0.00  0.00    -0.088 HD
ATOM      5  H3  PHE A   1      36.169 -19.393 -20.082  0.00  0.00    -0.088 HD
ENDBRANCH   1   2
BRANCH   1   8
ATOM      6  O   PHE A   1      33.070 -22.283 -19.421  0.00  0.00    -0.248 OA
ATOM      7  OXT PHE A   1      35.138 -22.558 -18.485  0.00  0.00    -0.248 OA
ATOM      8  C   PHE A   1      34.305 -22.050 -19.288  0.00  0.00    +0.345 C 
ENDBRANCH   1   8
BRANCH   1   9
ATOM      9  CB  PHE A   1      33.851 -19.899 -20.566  0.00  0.00    +0.016 C 
BRANCH   9  10
ATOM     10  CG  PHE A   1      34.358 -18.910 -21.591  0.00  0.00    -0.024 C 
ATOM     11  CD1 PHE A   1      34.457 -17.571 -21.250  0.00  0.00    -0.004 C 
ATOM     12  CD2 PHE A   1      34.712 -19.362 -22.852  0.00  0.00    -0.004 C 
ATOM     13  CE1 PHE A   1      34.924 -16.658 -22.196  0.00  0.00    -0.000 C 
ATOM     14  CE2 PHE A   1      35.179 -18.449 -23.797  0.00  0.00    -0.000 C 
ATOM     15  CZ  PHE A   1      35.284 -17.097 -23.469  0.00  0.00    -0.000 C 
ENDBRANCH   9  10
ENDBRANCH   1   9
TORSDOF 4
ENDMDL
MODEL 7
REMARK VINA RESULT:      -6.4      7.351      8.575
REMARK  Name = 6919011
REMARK  4 active torsions:
REMARK  status: ('A' for Active; 'I' for Inactive)
REMARK    1  A    between atoms: CA_1  and  N_2
REMARK    2  A    between atoms: CA_1  and  C_8
REMARK    3  A    between atoms: CA_1  and  CB_9
REMARK    4  A    between atoms: CB_9  and  CG_10
REMARK                            x       y       z     vdW  Elec       q    Type
REMARK                         _______ _______ _______ _____ _____    ______ ____
ROOT
ATOM      1  CA  PHE A   1      28.387 -22.754 -16.640  0.00  0.00    +0.045 C 
ENDROOT
BRANCH   1   2
ATOM      2  N   PHE A   1      28.219 -24.228 -16.836  0.00  0.00    +0.389 N 
ATOM      3  H1  PHE A   1      27.278 -24.420 -17.180  0.00  0.00    -0.088 HD
ATOM      4  H2  PHE A   1      28.361 -24.708 -15.947  0.00  0.00    -0.088 HD
ATOM      5  H3  PHE A   1      28.904 -24.561 -17.514  0.00  0.00    -0.088 HD
ENDBRANCH   1   2
BRANCH   1   8
ATOM      6  O   PHE A   1      26.284 -22.289 -15.669  0.00  0.00    -0.248 OA
ATOM      7  OXT PHE A   1      26.847 -21.234 -17.617  0.00  0.00    -0.248 OA
ATOM      8  C   PHE A   1      27.038 -22.020 -16.647  0.00  0.00    +0.345 C 
ENDBRANCH   1   8
BRANCH   1   9
ATOM      9  CB  PHE A   1      29.146 -22.547 -15.324  0.00  0.00    +0.016 C 
BRANCH   9  10
ATOM     10  CG  PHE A   1      30.617 -22.870 -15.445  0.00  0.00    -0.024 C 
ATOM     11  CD1 PHE A   1      31.344 -23.159 -14.301  0.00  0.00    -0.004 C 
ATOM     12  CD2 PHE A   1      31.211 -22.872 -16.696  0.00  0.00    -0.004 C 
ATOM     13  CE1 PHE A   1      32.702 -23.457 -14.411  0.00  0.00    -0.000 C 
ATOM     14  CE2 PHE A   1      32.569 -23.170 -16.806  0.00  0.00    -0.000 C 
ATOM     15  CZ  PHE A   1      33.314 -23.462 -15.664  0.00  0.00    -0.000 C 
ENDBRANCH   9  10
ENDBRANCH   1   9
TORSDOF 4
ENDMDL
MODEL 8
REMARK VINA RESULT:      -6.3      4.755      6.362
REMARK  Name = 6919011
REMARK  4 active torsions:
REMARK  status: ('A' for Active; 'I' for Inactive)
REMARK    1  A    between atoms: CA_1  and  N_2
REMARK    2  A    between atoms: CA_1  and  C_8
REMARK    3  A    between atoms: CA_1  and  CB_9
REMARK    4  A    between atoms: CB_9  and  CG_10
REMARK                            x       y       z     vdW  Elec       q    Type
REMARK                         _______ _______ _______ _____ _____    ______ ____
ROOT
ATOM      1  CA  PHE A   1      33.468 -22.894 -16.965  0.00  0.00    +0.045 C 
ENDROOT
BRANCH   1   2
ATOM      2  N   PHE A   1      32.055 -23.280 -16.652  0.00  0.00    +0.389 N 
ATOM      3  H1  PHE A   1      31.722 -22.734 -15.857  0.00  0.00    -0.088 HD
ATOM      4  H2  PHE A   1      32.017 -24.273 -16.424  0.00  0.00    -0.088 HD
ATOM      5  H3  PHE A   1      31.465 -23.094 -17.463  0.00  0.00    -0.088 HD
ENDBRANCH   1   2
BRANCH   1   8
ATOM      6  O   PHE A   1      35.682 -23.459 -16.363  0.00  0.00    -0.248 OA
ATOM      7  OXT PHE A   1      33.966 -24.198 -15.044  0.00  0.00    -0.248 OA
ATOM      8  C   PHE A   1      34.469 -23.589 -16.031  0.00  0.00    +0.345 C 
ENDBRANCH   1   8
BRANCH   1   9
ATOM      9  CB  PHE A   1      33.724 -23.235 -18.437  0.00  0.00    +0.016 C 
BRANCH   9  10
ATOM     10  CG  PHE A   1      34.111 -22.025 -19.255  0.00  0.00    -0.024 C 
ATOM     11  CD1 PHE A   1      33.119 -21.196 -19.753  0.00  0.00    -0.004 C 
ATOM     12  CD2 PHE A   1      35.452 -21.768 -19.493  0.00  0.00    -0.004 C 
ATOM     13  CE1 PHE A   1      33.476 -20.080 -20.508  0.00  0.00    -0.000 C 
ATOM     14  CE2 PHE A   1      35.809 -20.652 -20.248  0.00  0.00    -0.000 C 
ATOM     15  CZ  PHE A   1      34.821 -19.808 -20.757  0.00  0.00    -0.000 C 
ENDBRANCH   9  10
ENDBRANCH   1   9
TORSDOF 4
ENDMDL
MODEL 9
REMARK VINA RESULT:      -6.3      3.332      4.444
REMARK  Name = 6919011
REMARK  4 active torsions:
REMARK  status: ('A' for Active; 'I' for Inactive)
REMARK    1  A    between atoms: CA_1  and  N_2
REMARK    2  A    between atoms: CA_1  and  C_8
REMARK    3  A    between atoms: CA_1  and  CB_9
REMARK    4  A    between atoms: CB_9  and  CG_10
REMARK                            x       y       z     vdW  Elec       q    Type
REMARK                         _______ _______ _______ _____ _____    ______ ____
ROOT
ATOM      1  CA  PHE A   1      33.516 -15.081 -24.093  0.00  0.00    +0.045 C 
ENDROOT
BRANCH   1   2
ATOM      2  N   PHE A   1      33.415 -13.726 -23.463  0.00  0.00    +0.389 N 
ATOM      3  H1  PHE A   1      33.053 -13.819 -22.514  0.00  0.00    -0.088 HD
ATOM      4  H2  PHE A   1      32.784 -13.142 -24.012  0.00  0.00    -0.088 HD
ATOM      5  H3  PHE A   1      34.339 -13.295 -23.434  0.00  0.00    -0.088 HD
ENDBRANCH   1   2
BRANCH   1   8
ATOM      6  O   PHE A   1      33.820 -15.957 -26.266  0.00  0.00    -0.248 OA
ATOM      7  OXT PHE A   1      32.559 -14.066 -26.014  0.00  0.00    -0.248 OA
ATOM      8  C   PHE A   1      33.275 -15.025 -25.609  0.00  0.00    +0.345 C 
ENDBRANCH   1   8
BRANCH   1   9
ATOM      9  CB  PHE A   1      34.899 -15.645 -23.752  0.00  0.00    +0.016 C 
BRANCH   9  10
ATOM     10  CG  PHE A   1      34.828 -17.004 -23.095  0.00  0.00    -0.024 C 
ATOM     11  CD1 PHE A   1      34.996 -18.141 -23.869  0.00  0.00    -0.004 C 
ATOM     12  CD2 PHE A   1      34.596 -17.086 -21.732  0.00  0.00    -0.004 C 
ATOM     13  CE1 PHE A   1      34.929 -19.396 -23.263  0.00  0.00    -0.000 C 
ATOM     14  CE2 PHE A   1      34.530 -18.341 -21.126  0.00  0.00    -0.000 C 
ATOM     15  CZ  PHE A   1      34.696 -19.495 -21.891  0.00  0.00    -0.000 C 
ENDBRANCH   9  10
ENDBRANCH   1   9
TORSDOF 4
ENDMDL
