MODEL 1
REMARK VINA RESULT:     -11.9      0.000      0.000
REMARK  Name = 445841
REMARK  2 active torsions:
REMARK  status: ('A' for Active; 'I' for Inactive)
REMARK    1  A    between atoms: N_2  and  C_22
REMARK    2  A    between atoms: C_6  and  C_27
REMARK                            x       y       z     vdW  Elec       q    Type
REMARK                         _______ _______ _______ _____ _____    ______ ____
ROOT
ATOM      1  O   UNL     1      32.817 -19.786 -21.584  0.00  0.00    -0.252 OA
ATOM      2  N   UNL     1      34.958 -18.955 -22.041  0.00  0.00    -0.268 N 
ATOM      3  N   UNL     1      32.676 -22.496 -18.382  0.00  0.00    -0.241 N 
ATOM      4  N   UNL     1      34.661 -20.459 -20.313  0.00  0.00    -0.252 N 
ATOM      5  N   UNL     1      32.787 -21.622 -19.398  0.00  0.00    -0.166 NA
ATOM      6  C   UNL     1      33.857 -22.767 -17.757  0.00  0.00    +0.026 C 
ATOM      7  C   UNL     1      34.807 -22.020 -18.409  0.00  0.00    +0.046 C 
ATOM      8  C   UNL     1      34.084 -21.346 -19.397  0.00  0.00    +0.154 C 
ATOM      9  C   UNL     1      34.016 -19.743 -21.333  0.00  0.00    +0.309 C 
ATOM     10  H   UNL     1      35.890 -19.021 -21.728  0.00  0.00    +0.156 HD
ATOM     11  H   UNL     1      31.820 -22.902 -18.114  0.00  0.00    +0.174 HD
ATOM     12  H   UNL     1      35.633 -20.322 -20.232  0.00  0.00    +0.158 HD
ENDROOT
BRANCH   2  22
ATOM     13  O   UNL     1      33.435 -13.687 -24.255  0.00  0.00    -0.270 OA
ATOM     14  N   UNL     1      33.815 -14.705 -22.164  0.00  0.00    -0.274 N 
ATOM     15  C   UNL     1      34.235 -16.006 -21.672  0.00  0.00    +0.100 C 
ATOM     16  C   UNL     1      33.113 -16.356 -20.705  0.00  0.00    +0.026 C 
ATOM     17  C   UNL     1      32.800 -14.989 -20.075  0.00  0.00    +0.024 C 
ATOM     18  C   UNL     1      32.964 -13.994 -21.229  0.00  0.00    +0.094 C 
ATOM     19  C   UNL     1      34.402 -16.773 -22.933  0.00  0.00    +0.014 C 
ATOM     20  C   UNL     1      34.211 -15.930 -24.036  0.00  0.00    +0.052 C 
ATOM     21  C   UNL     1      33.797 -14.606 -23.544  0.00  0.00    +0.249 C 
ATOM     22  C   UNL     1      34.743 -18.099 -23.120  0.00  0.00    +0.049 C 
ATOM     23  C   UNL     1      34.335 -16.369 -25.339  0.00  0.00    +0.004 C 
ATOM     24  C   UNL     1      34.880 -18.566 -24.431  0.00  0.00    +0.014 C 
ATOM     25  C   UNL     1      34.679 -17.708 -25.531  0.00  0.00    +0.001 C 
ENDBRANCH   2  22
BRANCH   6  27
ATOM     26  N   UNL     1      35.100 -23.419 -15.724  0.00  0.00    +0.388 N 
ATOM     27  C   UNL     1      33.950 -23.722 -16.589  0.00  0.00    -0.023 C 
ATOM     28  C   UNL     1      32.721 -23.678 -15.670  0.00  0.00    -0.018 C 
ATOM     29  C   UNL     1      33.279 -23.389 -14.285  0.00  0.00    -0.025 C 
ATOM     30  C   UNL     1      34.722 -23.839 -14.378  0.00  0.00    -0.081 C 
ATOM     31  H   UNL     1      35.299 -22.418 -15.738  0.00  0.00    -0.084 HD
ATOM     32  H   UNL     1      35.942 -23.900 -16.041  0.00  0.00    -0.084 HD
ENDBRANCH   6  27
TORSDOF 2
ENDMDL
MODEL 2
REMARK VINA RESULT:     -11.5      1.776      2.145
REMARK  Name = 445841
REMARK  2 active torsions:
REMARK  status: ('A' for Active; 'I' for Inactive)
REMARK    1  A    between atoms: N_2  and  C_22
REMARK    2  A    between atoms: C_6  and  C_27
REMARK                            x       y       z     vdW  Elec       q    Type
REMARK                         _______ _______ _______ _____ _____    ______ ____
ROOT
ATOM      1  O   UNL     1      34.057 -20.748 -20.865  0.00  0.00    -0.252 OA
ATOM      2  N   UNL     1      35.784 -19.376 -21.651  0.00  0.00    -0.268 N 
ATOM      3  N   UNL     1      34.935 -22.715 -17.262  0.00  0.00    -0.241 N 
ATOM      4  N   UNL     1      36.064 -20.547 -19.680  0.00  0.00    -0.252 N 
ATOM      5  N   UNL     1      34.714 -22.057 -18.413  0.00  0.00    -0.166 NA
ATOM      6  C   UNL     1      36.160 -22.473 -16.715  0.00  0.00    +0.026 C 
ATOM      7  C   UNL     1      36.785 -21.595 -17.567  0.00  0.00    +0.046 C 
ATOM      8  C   UNL     1      35.846 -21.385 -18.580  0.00  0.00    +0.154 C 
ATOM      9  C   UNL     1      35.183 -20.278 -20.738  0.00  0.00    +0.309 C 
ATOM     10  H   UNL     1      36.695 -19.081 -21.421  0.00  0.00    +0.156 HD
ATOM     11  H   UNL     1      34.273 -23.316 -16.851  0.00  0.00    +0.174 HD
ATOM     12  H   UNL     1      36.937 -20.093 -19.714  0.00  0.00    +0.158 HD
ENDROOT
BRANCH   2  22
ATOM     13  O   UNL     1      33.667 -14.855 -24.821  0.00  0.00    -0.270 OA
ATOM     14  N   UNL     1      34.646 -15.258 -22.715  0.00  0.00    -0.274 N 
ATOM     15  C   UNL     1      35.195 -16.394 -21.995  0.00  0.00    +0.100 C 
ATOM     16  C   UNL     1      34.407 -16.354 -20.694  0.00  0.00    +0.026 C 
ATOM     17  C   UNL     1      34.290 -14.843 -20.441  0.00  0.00    +0.024 C 
ATOM     18  C   UNL     1      34.106 -14.239 -21.838  0.00  0.00    +0.094 C 
ATOM     19  C   UNL     1      34.986 -17.503 -22.963  0.00  0.00    +0.014 C 
ATOM     20  C   UNL     1      34.478 -16.998 -24.167  0.00  0.00    +0.052 C 
ATOM     21  C   UNL     1      34.224 -15.559 -23.999  0.00  0.00    +0.249 C 
ATOM     22  C   UNL     1      35.260 -18.851 -22.831  0.00  0.00    +0.049 C 
ATOM     23  C   UNL     1      34.215 -17.802 -25.258  0.00  0.00    +0.004 C 
ATOM     24  C   UNL     1      35.007 -19.684 -23.926  0.00  0.00    +0.014 C 
ATOM     25  C   UNL     1      34.490 -19.164 -25.129  0.00  0.00    +0.001 C 
ENDBRANCH   2  22
BRANCH   6  27
ATOM     26  N   UNL     1      35.765 -24.266 -15.062  0.00  0.00    +0.388 N 
ATOM     27  C   UNL     1      36.605 -23.113 -15.420  0.00  0.00    -0.023 C 
ATOM     28  C   UNL     1      38.041 -23.652 -15.472  0.00  0.00    -0.018 C 
ATOM     29  C   UNL     1      37.923 -25.117 -15.080  0.00  0.00    -0.025 C 
ATOM     30  C   UNL     1      36.620 -25.179 -14.311  0.00  0.00    -0.081 C 
ATOM     31  H   UNL     1      35.414 -24.723 -15.904  0.00  0.00    -0.084 HD
ATOM     32  H   UNL     1      34.954 -23.979 -14.512  0.00  0.00    -0.084 HD
ENDBRANCH   6  27
TORSDOF 2
ENDMDL
MODEL 3
REMARK VINA RESULT:     -10.4      3.030      9.748
REMARK  Name = 445841
REMARK  2 active torsions:
REMARK  status: ('A' for Active; 'I' for Inactive)
REMARK    1  A    between atoms: N_2  and  C_22
REMARK    2  A    between atoms: C_6  and  C_27
REMARK                            x       y       z     vdW  Elec       q    Type
REMARK                         _______ _______ _______ _____ _____    ______ ____
ROOT
ATOM      1  O   UNL     1      36.291 -21.250 -17.780  0.00  0.00    -0.252 OA
ATOM      2  N   UNL     1      34.327 -22.521 -17.667  0.00  0.00    -0.268 N 
ATOM      3  N   UNL     1      36.663 -18.977 -21.289  0.00  0.00    -0.241 N 
ATOM      4  N   UNL     1      34.725 -21.195 -19.516  0.00  0.00    -0.252 N 
ATOM      5  N   UNL     1      36.485 -19.727 -20.188  0.00  0.00    -0.166 NA
ATOM      6  C   UNL     1      35.645 -19.071 -22.191  0.00  0.00    +0.026 C 
ATOM      7  C   UNL     1      34.738 -19.945 -21.642  0.00  0.00    +0.046 C 
ATOM      8  C   UNL     1      35.315 -20.305 -20.422  0.00  0.00    +0.154 C 
ATOM      9  C   UNL     1      35.229 -21.611 -18.275  0.00  0.00    +0.309 C 
ATOM     10  H   UNL     1      33.512 -22.720 -18.182  0.00  0.00    +0.156 HD
ATOM     11  H   UNL     1      37.455 -18.410 -21.431  0.00  0.00    +0.174 HD
ATOM     12  H   UNL     1      33.855 -21.572 -19.782  0.00  0.00    +0.158 HD
ENDROOT
BRANCH   2  22
ATOM     13  O   UNL     1      31.919 -25.270 -13.017  0.00  0.00    -0.270 OA
ATOM     14  N   UNL     1      31.272 -24.387 -15.105  0.00  0.00    -0.274 N 
ATOM     15  C   UNL     1      31.919 -23.755 -16.242  0.00  0.00    +0.100 C 
ATOM     16  C   UNL     1      31.118 -22.469 -16.385  0.00  0.00    +0.026 C 
ATOM     17  C   UNL     1      29.695 -22.943 -16.051  0.00  0.00    +0.024 C 
ATOM     18  C   UNL     1      29.892 -23.977 -14.938  0.00  0.00    +0.094 C 
ATOM     19  C   UNL     1      33.338 -23.708 -15.802  0.00  0.00    +0.014 C 
ATOM     20  C   UNL     1      33.482 -24.373 -14.578  0.00  0.00    +0.052 C 
ATOM     21  C   UNL     1      32.148 -24.780 -14.108  0.00  0.00    +0.249 C 
ATOM     22  C   UNL     1      34.440 -23.170 -16.439  0.00  0.00    +0.049 C 
ATOM     23  C   UNL     1      34.702 -24.512 -13.946  0.00  0.00    +0.004 C 
ATOM     24  C   UNL     1      35.687 -23.303 -15.820  0.00  0.00    +0.014 C 
ATOM     25  C   UNL     1      35.817 -23.969 -14.585  0.00  0.00    +0.001 C 
ENDBRANCH   2  22
BRANCH   6  27
ATOM     26  N   UNL     1      34.610 -18.791 -24.417  0.00  0.00    +0.388 N 
ATOM     27  C   UNL     1      35.649 -18.306 -23.494  0.00  0.00    -0.023 C 
ATOM     28  C   UNL     1      35.375 -16.807 -23.318  0.00  0.00    -0.018 C 
ATOM     29  C   UNL     1      34.185 -16.517 -24.221  0.00  0.00    -0.025 C 
ATOM     30  C   UNL     1      34.220 -17.645 -25.232  0.00  0.00    -0.081 C 
ATOM     31  H   UNL     1      33.807 -19.140 -23.893  0.00  0.00    -0.084 HD
ATOM     32  H   UNL     1      34.954 -19.558 -24.994  0.00  0.00    -0.084 HD
ENDBRANCH   6  27
TORSDOF 2
ENDMDL
MODEL 4
REMARK VINA RESULT:     -10.3      2.912     10.031
REMARK  Name = 445841
REMARK  2 active torsions:
REMARK  status: ('A' for Active; 'I' for Inactive)
REMARK    1  A    between atoms: N_2  and  C_22
REMARK    2  A    between atoms: C_6  and  C_27
REMARK                            x       y       z     vdW  Elec       q    Type
REMARK                         _______ _______ _______ _____ _____    ______ ____
ROOT
ATOM      1  O   UNL     1      32.407 -21.716 -18.368  0.00  0.00    -0.252 OA
ATOM      2  N   UNL     1      34.230 -22.699 -17.273  0.00  0.00    -0.268 N 
ATOM      3  N   UNL     1      33.440 -19.550 -21.812  0.00  0.00    -0.241 N 
ATOM      4  N   UNL     1      34.581 -21.464 -19.193  0.00  0.00    -0.252 N 
ATOM      5  N   UNL     1      33.174 -20.259 -20.701  0.00  0.00    -0.166 NA
ATOM      6  C   UNL     1      34.763 -19.516 -22.140  0.00  0.00    +0.026 C 
ATOM      7  C   UNL     1      35.408 -20.252 -21.176  0.00  0.00    +0.046 C 
ATOM      8  C   UNL     1      34.378 -20.674 -20.332  0.00  0.00    +0.154 C 
ATOM      9  C   UNL     1      33.612 -21.932 -18.294  0.00  0.00    +0.309 C 
ATOM     10  H   UNL     1      35.208 -22.788 -17.341  0.00  0.00    +0.156 HD
ATOM     11  H   UNL     1      32.744 -19.099 -22.341  0.00  0.00    +0.174 HD
ATOM     12  H   UNL     1      35.513 -21.720 -19.003  0.00  0.00    +0.158 HD
ENDROOT
BRANCH   2  22
ATOM     13  O   UNL     1      34.496 -24.969 -11.819  0.00  0.00    -0.270 OA
ATOM     14  N   UNL     1      35.848 -23.749 -13.315  0.00  0.00    -0.274 N 
ATOM     15  C   UNL     1      35.716 -23.171 -14.642  0.00  0.00    +0.100 C 
ATOM     16  C   UNL     1      36.904 -23.781 -15.371  0.00  0.00    +0.026 C 
ATOM     17  C   UNL     1      37.981 -23.786 -14.274  0.00  0.00    +0.024 C 
ATOM     18  C   UNL     1      37.211 -24.117 -12.991  0.00  0.00    +0.094 C 
ATOM     19  C   UNL     1      34.331 -23.560 -15.012  0.00  0.00    +0.014 C 
ATOM     20  C   UNL     1      33.705 -24.193 -13.929  0.00  0.00    +0.052 C 
ATOM     21  C   UNL     1      34.691 -24.348 -12.847  0.00  0.00    +0.249 C 
ATOM     22  C   UNL     1      33.638 -23.342 -16.188  0.00  0.00    +0.049 C 
ATOM     23  C   UNL     1      32.399 -24.636 -13.980  0.00  0.00    +0.004 C 
ATOM     24  C   UNL     1      32.311 -23.778 -16.261  0.00  0.00    +0.014 C 
ATOM     25  C   UNL     1      31.697 -24.418 -15.166  0.00  0.00    +0.001 C 
ENDBRANCH   2  22
BRANCH   6  27
ATOM     26  N   UNL     1      34.375 -18.932 -24.509  0.00  0.00    +0.388 N 
ATOM     27  C   UNL     1      35.273 -18.774 -23.354  0.00  0.00    -0.023 C 
ATOM     28  C   UNL     1      35.396 -17.261 -23.134  0.00  0.00    -0.018 C 
ATOM     29  C   UNL     1      34.569 -16.635 -24.246  0.00  0.00    -0.025 C 
ATOM     30  C   UNL     1      34.514 -17.717 -25.304  0.00  0.00    -0.081 C 
ATOM     31  H   UNL     1      33.411 -19.040 -24.195  0.00  0.00    -0.084 HD
ATOM     32  H   UNL     1      34.612 -19.762 -25.054  0.00  0.00    -0.084 HD
ENDBRANCH   6  27
TORSDOF 2
ENDMDL
MODEL 5
REMARK VINA RESULT:     -10.3      6.216     12.777
REMARK  Name = 445841
REMARK  2 active torsions:
REMARK  status: ('A' for Active; 'I' for Inactive)
REMARK    1  A    between atoms: N_2  and  C_22
REMARK    2  A    between atoms: C_6  and  C_27
REMARK                            x       y       z     vdW  Elec       q    Type
REMARK                         _______ _______ _______ _____ _____    ______ ____
ROOT
ATOM      1  O   UNL     1      32.291 -10.123 -21.114  0.00  0.00    -0.252 OA
ATOM      2  N   UNL     1      32.127 -11.769 -22.771  0.00  0.00    -0.268 N 
ATOM      3  N   UNL     1      31.417  -6.244 -22.459  0.00  0.00    -0.241 N 
ATOM      4  N   UNL     1      31.684  -9.566 -23.303  0.00  0.00    -0.252 N 
ATOM      5  N   UNL     1      31.685  -7.508 -22.090  0.00  0.00    -0.166 NA
ATOM      6  C   UNL     1      31.080  -6.113 -23.773  0.00  0.00    +0.026 C 
ATOM      7  C   UNL     1      31.131  -7.380 -24.302  0.00  0.00    +0.046 C 
ATOM      8  C   UNL     1      31.506  -8.180 -23.219  0.00  0.00    +0.154 C 
ATOM      9  C   UNL     1      32.057 -10.443 -22.274  0.00  0.00    +0.309 C 
ATOM     10  H   UNL     1      31.913 -11.878 -23.726  0.00  0.00    +0.156 HD
ATOM     11  H   UNL     1      31.460  -5.482 -21.837  0.00  0.00    +0.174 HD
ATOM     12  H   UNL     1      31.527  -9.971 -24.187  0.00  0.00    +0.158 HD
ENDROOT
BRANCH   2  22
ATOM     13  O   UNL     1      34.374 -17.239 -22.651  0.00  0.00    -0.270 OA
ATOM     14  N   UNL     1      34.135 -15.437 -24.151  0.00  0.00    -0.274 N 
ATOM     15  C   UNL     1      33.608 -14.083 -24.116  0.00  0.00    +0.100 C 
ATOM     16  C   UNL     1      32.625 -14.096 -25.277  0.00  0.00    +0.026 C 
ATOM     17  C   UNL     1      33.364 -14.964 -26.308  0.00  0.00    +0.024 C 
ATOM     18  C   UNL     1      34.062 -16.038 -25.467  0.00  0.00    +0.094 C 
ATOM     19  C   UNL     1      33.115 -13.980 -22.718  0.00  0.00    +0.014 C 
ATOM     20  C   UNL     1      33.454 -15.137 -22.004  0.00  0.00    +0.052 C 
ATOM     21  C   UNL     1      34.079 -16.092 -22.933  0.00  0.00    +0.249 C 
ATOM     22  C   UNL     1      32.459 -12.939 -22.089  0.00  0.00    +0.049 C 
ATOM     23  C   UNL     1      33.146 -15.304 -20.669  0.00  0.00    +0.004 C 
ATOM     24  C   UNL     1      32.141 -13.084 -20.735  0.00  0.00    +0.014 C 
ATOM     25  C   UNL     1      32.483 -14.255 -20.031  0.00  0.00    +0.001 C 
ENDBRANCH   2  22
BRANCH   6  27
ATOM     26  N   UNL     1      30.756  -3.693 -23.391  0.00  0.00    +0.388 N 
ATOM     27  C   UNL     1      30.740  -4.775 -24.389  0.00  0.00    -0.023 C 
ATOM     28  C   UNL     1      31.727  -4.341 -25.480  0.00  0.00    -0.018 C 
ATOM     29  C   UNL     1      32.221  -2.971 -25.040  0.00  0.00    -0.025 C 
ATOM     30  C   UNL     1      31.132  -2.480 -24.109  0.00  0.00    -0.081 C 
ATOM     31  H   UNL     1      31.438  -3.897 -22.660  0.00  0.00    -0.084 HD
ATOM     32  H   UNL     1      29.847  -3.591 -22.938  0.00  0.00    -0.084 HD
ENDBRANCH   6  27
TORSDOF 2
ENDMDL
MODEL 6
REMARK VINA RESULT:     -10.0      2.629      3.978
REMARK  Name = 445841
REMARK  2 active torsions:
REMARK  status: ('A' for Active; 'I' for Inactive)
REMARK    1  A    between atoms: N_2  and  C_22
REMARK    2  A    between atoms: C_6  and  C_27
REMARK                            x       y       z     vdW  Elec       q    Type
REMARK                         _______ _______ _______ _____ _____    ______ ____
ROOT
ATOM      1  O   UNL     1      35.880 -16.167 -23.426  0.00  0.00    -0.252 OA
ATOM      2  N   UNL     1      33.585 -15.971 -23.850  0.00  0.00    -0.268 N 
ATOM      3  N   UNL     1      36.902 -19.433 -20.995  0.00  0.00    -0.241 N 
ATOM      4  N   UNL     1      34.359 -17.704 -22.534  0.00  0.00    -0.252 N 
ATOM      5  N   UNL     1      36.511 -18.406 -21.769  0.00  0.00    -0.166 NA
ATOM      6  C   UNL     1      35.877 -20.223 -20.568  0.00  0.00    +0.026 C 
ATOM      7  C   UNL     1      34.734 -19.676 -21.099  0.00  0.00    +0.046 C 
ATOM      8  C   UNL     1      35.196 -18.571 -21.820  0.00  0.00    +0.154 C 
ATOM      9  C   UNL     1      34.734 -16.577 -23.281  0.00  0.00    +0.309 C 
ATOM     10  H   UNL     1      32.727 -16.410 -23.647  0.00  0.00    +0.156 HD
ATOM     11  H   UNL     1      37.843 -19.599 -20.758  0.00  0.00    +0.174 HD
ATOM     12  H   UNL     1      33.397 -17.911 -22.509  0.00  0.00    +0.158 HD
ENDROOT
BRANCH   2  22
ATOM     13  O   UNL     1      32.856 -10.144 -24.547  0.00  0.00    -0.270 OA
ATOM     14  N   UNL     1      33.062 -11.724 -22.810  0.00  0.00    -0.274 N 
ATOM     15  C   UNL     1      33.286 -13.155 -22.693  0.00  0.00    +0.100 C 
ATOM     16  C   UNL     1      32.115 -13.589 -21.824  0.00  0.00    +0.026 C 
ATOM     17  C   UNL     1      31.993 -12.408 -20.846  0.00  0.00    +0.024 C 
ATOM     18  C   UNL     1      32.311 -11.176 -21.699  0.00  0.00    +0.094 C 
ATOM     19  C   UNL     1      33.357 -13.575 -24.117  0.00  0.00    +0.014 C 
ATOM     20  C   UNL     1      33.302 -12.450 -24.950  0.00  0.00    +0.052 C 
ATOM     21  C   UNL     1      33.075 -11.260 -24.115  0.00  0.00    +0.249 C 
ATOM     22  C   UNL     1      33.507 -14.838 -24.657  0.00  0.00    +0.049 C 
ATOM     23  C   UNL     1      33.377 -12.540 -26.326  0.00  0.00    +0.004 C 
ATOM     24  C   UNL     1      33.592 -14.953 -26.048  0.00  0.00    +0.014 C 
ATOM     25  C   UNL     1      33.528 -13.814 -26.875  0.00  0.00    +0.001 C 
ENDBRANCH   2  22
BRANCH   6  27
ATOM     26  N   UNL     1      36.518 -21.052 -18.331  0.00  0.00    +0.388 N 
ATOM     27  C   UNL     1      36.102 -21.433 -19.690  0.00  0.00    -0.023 C 
ATOM     28  C   UNL     1      34.845 -22.294 -19.509  0.00  0.00    -0.018 C 
ATOM     29  C   UNL     1      34.650 -22.389 -18.003  0.00  0.00    -0.025 C 
ATOM     30  C   UNL     1      36.027 -22.101 -17.444  0.00  0.00    -0.081 C 
ATOM     31  H   UNL     1      36.108 -20.153 -18.074  0.00  0.00    -0.084 HD
ATOM     32  H   UNL     1      37.531 -20.953 -18.265  0.00  0.00    -0.084 HD
ENDBRANCH   6  27
TORSDOF 2
ENDMDL
MODEL 7
REMARK VINA RESULT:      -9.8      7.464     11.484
REMARK  Name = 445841
REMARK  2 active torsions:
REMARK  status: ('A' for Active; 'I' for Inactive)
REMARK    1  A    between atoms: N_2  and  C_22
REMARK    2  A    between atoms: C_6  and  C_27
REMARK                            x       y       z     vdW  Elec       q    Type
REMARK                         _______ _______ _______ _____ _____    ______ ____
ROOT
ATOM      1  O   UNL     1      31.179  -8.940 -22.236  0.00  0.00    -0.252 OA
ATOM      2  N   UNL     1      32.522  -7.742 -23.733  0.00  0.00    -0.268 N 
ATOM      3  N   UNL     1      31.975 -13.060 -22.139  0.00  0.00    -0.241 N 
ATOM      4  N   UNL     1      32.802 -10.025 -23.525  0.00  0.00    -0.252 N 
ATOM      5  N   UNL     1      31.768 -11.735 -22.215  0.00  0.00    -0.166 NA
ATOM      6  C   UNL     1      32.963 -13.513 -22.962  0.00  0.00    +0.026 C 
ATOM      7  C   UNL     1      33.435 -12.407 -23.625  0.00  0.00    +0.046 C 
ATOM      8  C   UNL     1      32.661 -11.358 -23.120  0.00  0.00    +0.154 C 
ATOM      9  C   UNL     1      32.073  -8.914 -23.074  0.00  0.00    +0.309 C 
ATOM     10  H   UNL     1      33.250  -7.871 -24.384  0.00  0.00    +0.156 HD
ATOM     11  H   UNL     1      31.461 -13.651 -21.542  0.00  0.00    +0.174 HD
ATOM     12  H   UNL     1      33.493  -9.847 -24.203  0.00  0.00    +0.158 HD
ENDROOT
BRANCH   2  22
ATOM     13  O   UNL     1      32.176  -2.136 -25.587  0.00  0.00    -0.270 OA
ATOM     14  N   UNL     1      33.017  -4.213 -26.320  0.00  0.00    -0.274 N 
ATOM     15  C   UNL     1      33.037  -5.584 -25.840  0.00  0.00    +0.100 C 
ATOM     16  C   UNL     1      34.522  -5.911 -25.875  0.00  0.00    +0.026 C 
ATOM     17  C   UNL     1      34.975  -5.184 -27.152  0.00  0.00    +0.024 C 
ATOM     18  C   UNL     1      34.149  -3.893 -27.166  0.00  0.00    +0.094 C 
ATOM     19  C   UNL     1      32.327  -5.466 -24.539  0.00  0.00    +0.014 C 
ATOM     20  C   UNL     1      31.846  -4.161 -24.373  0.00  0.00    +0.052 C 
ATOM     21  C   UNL     1      32.319  -3.342 -25.500  0.00  0.00    +0.249 C 
ATOM     22  C   UNL     1      32.072  -6.431 -23.584  0.00  0.00    +0.049 C 
ATOM     23  C   UNL     1      31.120  -3.771 -23.265  0.00  0.00    +0.004 C 
ATOM     24  C   UNL     1      31.334  -6.060 -22.455  0.00  0.00    +0.014 C 
ATOM     25  C   UNL     1      30.861  -4.743 -22.298  0.00  0.00    +0.001 C 
ENDBRANCH   2  22
BRANCH   6  27
ATOM     26  N   UNL     1      34.717 -15.151 -23.551  0.00  0.00    +0.388 N 
ATOM     27  C   UNL     1      33.354 -14.972 -23.026  0.00  0.00    -0.023 C 
ATOM     28  C   UNL     1      33.348 -15.662 -21.656  0.00  0.00    -0.018 C 
ATOM     29  C   UNL     1      34.743 -16.250 -21.508  0.00  0.00    -0.025 C 
ATOM     30  C   UNL     1      35.237 -16.366 -22.935  0.00  0.00    -0.081 C 
ATOM     31  H   UNL     1      35.300 -14.351 -23.301  0.00  0.00    -0.084 HD
ATOM     32  H   UNL     1      34.717 -15.220 -24.569  0.00  0.00    -0.084 HD
ENDBRANCH   6  27
TORSDOF 2
ENDMDL
MODEL 8
REMARK VINA RESULT:      -9.6      5.020     11.277
REMARK  Name = 445841
REMARK  2 active torsions:
REMARK  status: ('A' for Active; 'I' for Inactive)
REMARK    1  A    between atoms: N_2  and  C_22
REMARK    2  A    between atoms: C_6  and  C_27
REMARK                            x       y       z     vdW  Elec       q    Type
REMARK                         _______ _______ _______ _____ _____    ______ ____
ROOT
ATOM      1  O   UNL     1      34.435 -11.596 -24.673  0.00  0.00    -0.252 OA
ATOM      2  N   UNL     1      32.777 -13.082 -23.947  0.00  0.00    -0.268 N 
ATOM      3  N   UNL     1      33.824  -7.622 -23.469  0.00  0.00    -0.241 N 
ATOM      4  N   UNL     1      32.631 -10.845 -23.389  0.00  0.00    -0.252 N 
ATOM      5  N   UNL     1      33.963  -8.911 -23.823  0.00  0.00    -0.166 NA
ATOM      6  C   UNL     1      32.712  -7.373 -22.719  0.00  0.00    +0.026 C 
ATOM      7  C   UNL     1      32.079  -8.583 -22.573  0.00  0.00    +0.046 C 
ATOM      8  C   UNL     1      32.898  -9.476 -23.271  0.00  0.00    +0.154 C 
ATOM      9  C   UNL     1      33.392 -11.809 -24.065  0.00  0.00    +0.309 C 
ATOM     10  H   UNL     1      31.940 -13.103 -23.428  0.00  0.00    +0.156 HD
ATOM     11  H   UNL     1      34.465  -6.921 -23.726  0.00  0.00    +0.174 HD
ATOM     12  H   UNL     1      31.813 -11.168 -22.944  0.00  0.00    +0.158 HD
ENDROOT
BRANCH   2  22
ATOM     13  O   UNL     1      34.930 -18.545 -23.243  0.00  0.00    -0.270 OA
ATOM     14  N   UNL     1      34.191 -16.732 -21.930  0.00  0.00    -0.274 N 
ATOM     15  C   UNL     1      33.624 -15.413 -22.157  0.00  0.00    +0.100 C 
ATOM     16  C   UNL     1      34.570 -14.522 -21.367  0.00  0.00    +0.026 C 
ATOM     17  C   UNL     1      34.875 -15.393 -20.139  0.00  0.00    +0.024 C 
ATOM     18  C   UNL     1      34.941 -16.820 -20.694  0.00  0.00    +0.094 C 
ATOM     19  C   UNL     1      33.591 -15.342 -23.641  0.00  0.00    +0.014 C 
ATOM     20  C   UNL     1      33.991 -16.568 -24.188  0.00  0.00    +0.052 C 
ATOM     21  C   UNL     1      34.413 -17.454 -23.091  0.00  0.00    +0.249 C 
ATOM     22  C   UNL     1      33.198 -14.305 -24.465  0.00  0.00    +0.049 C 
ATOM     23  C   UNL     1      34.028 -16.799 -25.549  0.00  0.00    +0.004 C 
ATOM     24  C   UNL     1      33.223 -14.517 -25.848  0.00  0.00    +0.014 C 
ATOM     25  C   UNL     1      33.633 -15.754 -26.384  0.00  0.00    +0.001 C 
ENDBRANCH   2  22
BRANCH   6  27
ATOM     26  N   UNL     1      31.858  -5.127 -23.294  0.00  0.00    +0.388 N 
ATOM     27  C   UNL     1      32.371  -5.988 -22.217  0.00  0.00    -0.023 C 
ATOM     28  C   UNL     1      31.283  -5.987 -21.135  0.00  0.00    -0.018 C 
ATOM     29  C   UNL     1      30.206  -5.053 -21.666  0.00  0.00    -0.025 C 
ATOM     30  C   UNL     1      30.944  -4.182 -22.661  0.00  0.00    -0.081 C 
ATOM     31  H   UNL     1      31.362  -5.686 -23.988  0.00  0.00    -0.084 HD
ATOM     32  H   UNL     1      32.616  -4.644 -23.777  0.00  0.00    -0.084 HD
ENDBRANCH   6  27
TORSDOF 2
ENDMDL
MODEL 9
REMARK VINA RESULT:      -9.6      3.396     10.506
REMARK  Name = 445841
REMARK  2 active torsions:
REMARK  status: ('A' for Active; 'I' for Inactive)
REMARK    1  A    between atoms: N_2  and  C_22
REMARK    2  A    between atoms: C_6  and  C_27
REMARK                            x       y       z     vdW  Elec       q    Type
REMARK                         _______ _______ _______ _____ _____    ______ ____
ROOT
ATOM      1  O   UNL     1      33.711 -22.407 -17.753  0.00  0.00    -0.252 OA
ATOM      2  N   UNL     1      35.669 -22.616 -16.485  0.00  0.00    -0.268 N 
ATOM      3  N   UNL     1      34.192 -20.212 -21.299  0.00  0.00    -0.241 N 
ATOM      4  N   UNL     1      35.718 -21.447 -18.476  0.00  0.00    -0.252 N 
ATOM      5  N   UNL     1      34.103 -20.905 -20.151  0.00  0.00    -0.166 NA
ATOM      6  C   UNL     1      35.441 -19.729 -21.556  0.00  0.00    +0.026 C 
ATOM      7  C   UNL     1      36.224 -20.134 -20.502  0.00  0.00    +0.046 C 
ATOM      8  C   UNL     1      35.343 -20.846 -19.684  0.00  0.00    +0.154 C 
ATOM      9  C   UNL     1      34.905 -22.177 -17.596  0.00  0.00    +0.309 C 
ATOM     10  H   UNL     1      36.619 -22.357 -16.492  0.00  0.00    +0.156 HD
ATOM     11  H   UNL     1      33.426 -20.066 -21.900  0.00  0.00    +0.174 HD
ATOM     12  H   UNL     1      36.662 -21.345 -18.216  0.00  0.00    +0.158 HD
ENDROOT
BRANCH   2  22
ATOM     13  O   UNL     1      36.849 -25.966 -11.756  0.00  0.00    -0.270 OA
ATOM     14  N   UNL     1      37.994 -24.696 -13.378  0.00  0.00    -0.274 N 
ATOM     15  C   UNL     1      37.649 -23.846 -14.505  0.00  0.00    +0.100 C 
ATOM     16  C   UNL     1      38.455 -24.475 -15.633  0.00  0.00    +0.026 C 
ATOM     17  C   UNL     1      39.751 -24.875 -14.911  0.00  0.00    +0.024 C 
ATOM     18  C   UNL     1      39.287 -25.334 -13.525  0.00  0.00    +0.094 C 
ATOM     19  C   UNL     1      36.166 -23.927 -14.510  0.00  0.00    +0.014 C 
ATOM     20  C   UNL     1      35.722 -24.659 -13.401  0.00  0.00    +0.052 C 
ATOM     21  C   UNL     1      36.897 -25.187 -12.690  0.00  0.00    +0.249 C 
ATOM     22  C   UNL     1      35.255 -23.366 -15.386  0.00  0.00    +0.049 C 
ATOM     23  C   UNL     1      34.384 -24.870 -13.135  0.00  0.00    +0.004 C 
ATOM     24  C   UNL     1      33.893 -23.561 -15.133  0.00  0.00    +0.014 C 
ATOM     25  C   UNL     1      33.462 -24.305 -14.017  0.00  0.00    +0.001 C 
ENDBRANCH   2  22
BRANCH   6  27
ATOM     26  N   UNL     1      34.851 -19.257 -23.908  0.00  0.00    +0.388 N 
ATOM     27  C   UNL     1      35.755 -18.925 -22.796  0.00  0.00    -0.023 C 
ATOM     28  C   UNL     1      35.612 -17.411 -22.589  0.00  0.00    -0.018 C 
ATOM     29  C   UNL     1      34.638 -16.959 -23.667  0.00  0.00    -0.025 C 
ATOM     30  C   UNL     1      34.732 -18.048 -24.715  0.00  0.00    -0.081 C 
ATOM     31  H   UNL     1      33.936 -19.533 -23.549  0.00  0.00    -0.084 HD
ATOM     32  H   UNL     1      35.209 -20.038 -24.458  0.00  0.00    -0.084 HD
ENDBRANCH   6  27
TORSDOF 2
ENDMDL
