MODEL 1
REMARK VINA RESULT:     -11.1      0.000      0.000
REMARK  Name = 5326924
REMARK  6 active torsions:
REMARK  status: ('A' for Active; 'I' for Inactive)
REMARK    1  A    between atoms: C_5  and  O_9
REMARK    2  A    between atoms: C_6  and  O_22
REMARK    3  A    between atoms: O_9  and  C_10
REMARK    4  A    between atoms: C_13  and  C_18
REMARK    5  A    between atoms: O_22  and  C_23
REMARK    6  A    between atoms: C_26  and  C_31
REMARK                            x       y       z     vdW  Elec       q    Type
REMARK                         _______ _______ _______ _____ _____    ______ ____
ROOT
ATOM      1  O   UNL     1      32.950 -14.274 -21.585  0.00  0.00    -0.346 OA
ATOM      2  O   UNL     1      33.676 -15.288 -24.378  0.00  0.00    -0.346 OA
ATOM      3  C   UNL     1      33.878 -13.771 -22.564  0.00  0.00    +0.188 C 
ATOM      4  C   UNL     1      34.499 -14.978 -23.239  0.00  0.00    +0.188 C 
ATOM      5  C   UNL     1      33.139 -13.084 -23.686  0.00  0.00    +0.225 C 
ATOM      6  C   UNL     1      34.395 -16.038 -22.169  0.00  0.00    +0.225 C 
ATOM      7  C   UNL     1      33.071 -15.703 -21.518  0.00  0.00    +0.188 C 
ATOM      8  C   UNL     1      32.699 -14.248 -24.552  0.00  0.00    +0.188 C 
ENDROOT
BRANCH   5   9
ATOM      9  O   UNL     1      34.040 -12.276 -24.433  0.00  0.00    -0.474 OA
BRANCH   9  10
ATOM     10  C   UNL     1      34.032 -10.932 -24.163  0.00  0.00    +0.139 C 
ATOM     11  C   UNL     1      33.045 -10.401 -23.341  0.00  0.00    +0.040 C 
ATOM     12  C   UNL     1      35.011 -10.113 -24.715  0.00  0.00    +0.037 C 
ATOM     13  C   UNL     1      33.037  -9.033 -23.066  0.00  0.00    +0.034 C 
ATOM     14  C   UNL     1      35.003  -8.746 -24.441  0.00  0.00    +0.003 C 
ATOM     15  C   UNL     1      34.015  -8.206 -23.617  0.00  0.00    +0.003 C 
BRANCH  13  18
ATOM     16  N   UNL     1      31.849  -8.897 -20.890  0.00  0.00    -0.343 N 
ATOM     17  N   UNL     1      31.197  -7.538 -22.675  0.00  0.00    -0.285 NA
ATOM     18  C   UNL     1      32.007  -8.470 -22.208  0.00  0.00    +0.117 C 
ATOM     19  H   UNL     1      31.145  -8.503 -20.326  0.00  0.00    +0.144 HD
ATOM     20  H   UNL     1      32.441  -9.594 -20.524  0.00  0.00    +0.144 HD
ATOM     21  H   UNL     1      30.500  -7.155 -22.095  0.00  0.00    +0.188 HD
ENDBRANCH  13  18
ENDBRANCH   9  10
ENDBRANCH   5   9
BRANCH   6  22
ATOM     22  O   UNL     1      34.434 -17.347 -22.692  0.00  0.00    -0.474 OA
BRANCH  22  23
ATOM     23  C   UNL     1      34.974 -18.328 -21.892  0.00  0.00    +0.139 C 
ATOM     24  C   UNL     1      34.133 -19.227 -21.253  0.00  0.00    +0.040 C 
ATOM     25  C   UNL     1      36.351 -18.401 -21.739  0.00  0.00    +0.037 C 
ATOM     26  C   UNL     1      34.682 -20.221 -20.441  0.00  0.00    +0.034 C 
ATOM     27  C   UNL     1      36.899 -19.396 -20.928  0.00  0.00    +0.003 C 
ATOM     28  C   UNL     1      36.065 -20.305 -20.280  0.00  0.00    +0.003 C 
BRANCH  26  31
ATOM     29  N   UNL     1      34.272 -22.426 -19.375  0.00  0.00    -0.343 N 
ATOM     30  N   UNL     1      32.555 -20.846 -19.511  0.00  0.00    -0.285 NA
ATOM     31  C   UNL     1      33.811 -21.170 -19.765  0.00  0.00    +0.117 C 
ATOM     32  H   UNL     1      33.666 -23.053 -18.918  0.00  0.00    +0.144 HD
ATOM     33  H   UNL     1      35.203 -22.687 -19.558  0.00  0.00    +0.144 HD
ATOM     34  H   UNL     1      31.965 -21.487 -19.054  0.00  0.00    +0.188 HD
ENDBRANCH  26  31
ENDBRANCH  22  23
ENDBRANCH   6  22
TORSDOF 6
ENDMDL
MODEL 2
REMARK VINA RESULT:     -11.0      1.828      9.800
REMARK  Name = 5326924
REMARK  6 active torsions:
REMARK  status: ('A' for Active; 'I' for Inactive)
REMARK    1  A    between atoms: C_5  and  O_9
REMARK    2  A    between atoms: C_6  and  O_22
REMARK    3  A    between atoms: O_9  and  C_10
REMARK    4  A    between atoms: C_13  and  C_18
REMARK    5  A    between atoms: O_22  and  C_23
REMARK    6  A    between atoms: C_26  and  C_31
REMARK                            x       y       z     vdW  Elec       q    Type
REMARK                         _______ _______ _______ _____ _____    ______ ____
ROOT
ATOM      1  O   UNL     1      34.958 -15.113 -20.465  0.00  0.00    -0.346 OA
ATOM      2  O   UNL     1      33.407 -15.698 -23.035  0.00  0.00    -0.346 OA
ATOM      3  C   UNL     1      34.217 -16.276 -20.882  0.00  0.00    +0.188 C 
ATOM      4  C   UNL     1      33.013 -15.774 -21.654  0.00  0.00    +0.188 C 
ATOM      5  C   UNL     1      34.995 -17.055 -21.913  0.00  0.00    +0.225 C 
ATOM      6  C   UNL     1      32.794 -14.404 -21.059  0.00  0.00    +0.225 C 
ATOM      7  C   UNL     1      34.211 -13.937 -20.807  0.00  0.00    +0.188 C 
ATOM      8  C   UNL     1      34.708 -16.289 -23.190  0.00  0.00    +0.188 C 
ENDROOT
BRANCH   5   9
ATOM      9  O   UNL     1      34.455 -18.365 -22.037  0.00  0.00    -0.474 OA
BRANCH   9  10
ATOM     10  C   UNL     1      34.962 -19.322 -21.197  0.00  0.00    +0.139 C 
ATOM     11  C   UNL     1      34.118 -20.291 -20.668  0.00  0.00    +0.040 C 
ATOM     12  C   UNL     1      36.317 -19.313 -20.881  0.00  0.00    +0.037 C 
ATOM     13  C   UNL     1      34.635 -21.265 -19.813  0.00  0.00    +0.034 C 
ATOM     14  C   UNL     1      36.833 -20.286 -20.027  0.00  0.00    +0.003 C 
ATOM     15  C   UNL     1      35.992 -21.262 -19.492  0.00  0.00    +0.003 C 
BRANCH  13  18
ATOM     16  N   UNL     1      32.570 -21.940 -18.610  0.00  0.00    -0.343 N 
ATOM     17  N   UNL     1      34.083 -23.558 -19.354  0.00  0.00    -0.285 NA
ATOM     18  C   UNL     1      33.758 -22.282 -19.256  0.00  0.00    +0.117 C 
ATOM     19  H   UNL     1      31.991 -22.645 -18.239  0.00  0.00    +0.144 HD
ATOM     20  H   UNL     1      32.312 -20.994 -18.523  0.00  0.00    +0.144 HD
ATOM     21  H   UNL     1      33.490 -24.249 -18.978  0.00  0.00    +0.188 HD
ENDBRANCH  13  18
ENDBRANCH   9  10
ENDBRANCH   5   9
BRANCH   6  22
ATOM     22  O   UNL     1      32.077 -13.545 -21.917  0.00  0.00    -0.474 OA
BRANCH  22  23
ATOM     23  C   UNL     1      31.942 -12.233 -21.524  0.00  0.00    +0.139 C 
ATOM     24  C   UNL     1      32.150 -11.219 -22.448  0.00  0.00    +0.040 C 
ATOM     25  C   UNL     1      31.601 -11.945 -20.210  0.00  0.00    +0.037 C 
ATOM     26  C   UNL     1      32.015  -9.889 -22.049  0.00  0.00    +0.034 C 
ATOM     27  C   UNL     1      31.464 -10.615 -19.812  0.00  0.00    +0.003 C 
ATOM     28  C   UNL     1      31.671  -9.587 -20.731  0.00  0.00    +0.003 C 
BRANCH  26  31
ATOM     29  N   UNL     1      31.166  -8.082 -23.526  0.00  0.00    -0.343 N 
ATOM     30  N   UNL     1      33.457  -8.525 -23.405  0.00  0.00    -0.285 NA
ATOM     31  C   UNL     1      32.231  -8.816 -23.008  0.00  0.00    +0.117 C 
ATOM     32  H   UNL     1      31.335  -7.360 -24.174  0.00  0.00    +0.144 HD
ATOM     33  H   UNL     1      30.245  -8.286 -23.245  0.00  0.00    +0.144 HD
ATOM     34  H   UNL     1      33.606  -7.800 -24.054  0.00  0.00    +0.188 HD
ENDBRANCH  26  31
ENDBRANCH  22  23
ENDBRANCH   6  22
TORSDOF 6
ENDMDL
MODEL 3
REMARK VINA RESULT:     -10.9      1.846      9.858
REMARK  Name = 5326924
REMARK  6 active torsions:
REMARK  status: ('A' for Active; 'I' for Inactive)
REMARK    1  A    between atoms: C_5  and  O_9
REMARK    2  A    between atoms: C_6  and  O_22
REMARK    3  A    between atoms: O_9  and  C_10
REMARK    4  A    between atoms: C_13  and  C_18
REMARK    5  A    between atoms: O_22  and  C_23
REMARK    6  A    between atoms: C_26  and  C_31
REMARK                            x       y       z     vdW  Elec       q    Type
REMARK                         _______ _______ _______ _____ _____    ______ ____
ROOT
ATOM      1  O   UNL     1      34.571 -15.241 -20.450  0.00  0.00    -0.346 OA
ATOM      2  O   UNL     1      34.050 -16.166 -23.319  0.00  0.00    -0.346 OA
ATOM      3  C   UNL     1      33.926 -16.422 -20.963  0.00  0.00    +0.188 C 
ATOM      4  C   UNL     1      33.159 -15.999 -22.201  0.00  0.00    +0.188 C 
ATOM      5  C   UNL     1      34.950 -17.391 -21.499  0.00  0.00    +0.225 C 
ATOM      6  C   UNL     1      32.874 -14.543 -21.926  0.00  0.00    +0.225 C 
ATOM      7  C   UNL     1      34.132 -14.104 -21.208  0.00  0.00    +0.188 C 
ATOM      8  C   UNL     1      35.246 -16.830 -22.876  0.00  0.00    +0.188 C 
ENDROOT
BRANCH   5   9
ATOM      9  O   UNL     1      34.365 -18.678 -21.647  0.00  0.00    -0.474 OA
BRANCH   9  10
ATOM     10  C   UNL     1      34.847 -19.672 -20.835  0.00  0.00    +0.139 C 
ATOM     11  C   UNL     1      33.966 -20.578 -20.258  0.00  0.00    +0.040 C 
ATOM     12  C   UNL     1      36.214 -19.762 -20.596  0.00  0.00    +0.037 C 
ATOM     13  C   UNL     1      34.457 -21.589 -19.431  0.00  0.00    +0.034 C 
ATOM     14  C   UNL     1      36.705 -20.772 -19.769  0.00  0.00    +0.003 C 
ATOM     15  C   UNL     1      35.827 -21.685 -19.186  0.00  0.00    +0.003 C 
BRANCH  13  18
ATOM     16  N   UNL     1      32.350 -22.122 -18.230  0.00  0.00    -0.343 N 
ATOM     17  N   UNL     1      33.833 -23.828 -18.824  0.00  0.00    -0.285 NA
ATOM     18  C   UNL     1      33.541 -22.540 -18.823  0.00  0.00    +0.117 C 
ATOM     19  H   UNL     1      31.745 -22.784 -17.824  0.00  0.00    +0.144 HD
ATOM     20  H   UNL     1      32.116 -21.166 -18.216  0.00  0.00    +0.144 HD
ATOM     21  H   UNL     1      33.214 -24.474 -18.414  0.00  0.00    +0.188 HD
ENDBRANCH  13  18
ENDBRANCH   9  10
ENDBRANCH   5   9
BRANCH   6  22
ATOM     22  O   UNL     1      32.627 -13.803 -23.100  0.00  0.00    -0.474 OA
BRANCH  22  23
ATOM     23  C   UNL     1      32.663 -12.432 -22.999  0.00  0.00    +0.139 C 
ATOM     24  C   UNL     1      33.627 -11.721 -23.701  0.00  0.00    +0.040 C 
ATOM     25  C   UNL     1      31.736 -11.781 -22.197  0.00  0.00    +0.037 C 
ATOM     26  C   UNL     1      33.664 -10.330 -23.597  0.00  0.00    +0.034 C 
ATOM     27  C   UNL     1      31.773 -10.390 -22.095  0.00  0.00    +0.003 C 
ATOM     28  C   UNL     1      32.737  -9.665 -22.794  0.00  0.00    +0.003 C 
BRANCH  26  31
ATOM     29  N   UNL     1      35.514 -10.190 -25.247  0.00  0.00    -0.343 N 
ATOM     30  N   UNL     1      34.795  -8.274 -24.118  0.00  0.00    -0.285 NA
ATOM     31  C   UNL     1      34.670  -9.573 -24.327  0.00  0.00    +0.117 C 
ATOM     32  H   UNL     1      36.187  -9.659 -25.731  0.00  0.00    +0.144 HD
ATOM     33  H   UNL     1      35.438 -11.157 -25.414  0.00  0.00    +0.144 HD
ATOM     34  H   UNL     1      35.475  -7.760 -24.611  0.00  0.00    +0.188 HD
ENDBRANCH  26  31
ENDBRANCH  22  23
ENDBRANCH   6  22
TORSDOF 6
ENDMDL
MODEL 4
REMARK VINA RESULT:     -10.6      1.283      9.744
REMARK  Name = 5326924
REMARK  6 active torsions:
REMARK  status: ('A' for Active; 'I' for Inactive)
REMARK    1  A    between atoms: C_5  and  O_9
REMARK    2  A    between atoms: C_6  and  O_22
REMARK    3  A    between atoms: O_9  and  C_10
REMARK    4  A    between atoms: C_13  and  C_18
REMARK    5  A    between atoms: O_22  and  C_23
REMARK    6  A    between atoms: C_26  and  C_31
REMARK                            x       y       z     vdW  Elec       q    Type
REMARK                         _______ _______ _______ _____ _____    ______ ____
ROOT
ATOM      1  O   UNL     1      34.692 -15.099 -20.808  0.00  0.00    -0.346 OA
ATOM      2  O   UNL     1      34.030 -16.241 -23.566  0.00  0.00    -0.346 OA
ATOM      3  C   UNL     1      33.950 -16.270 -21.195  0.00  0.00    +0.188 C 
ATOM      4  C   UNL     1      33.183 -15.907 -22.452  0.00  0.00    +0.188 C 
ATOM      5  C   UNL     1      34.886 -17.358 -21.658  0.00  0.00    +0.225 C 
ATOM      6  C   UNL     1      33.012 -14.414 -22.308  0.00  0.00    +0.225 C 
ATOM      7  C   UNL     1      34.317 -14.006 -21.660  0.00  0.00    +0.188 C 
ATOM      8  C   UNL     1      35.185 -16.950 -23.087  0.00  0.00    +0.188 C 
ENDROOT
BRANCH   5   9
ATOM      9  O   UNL     1      34.205 -18.607 -21.674  0.00  0.00    -0.474 OA
BRANCH   9  10
ATOM     10  C   UNL     1      34.729 -19.605 -20.895  0.00  0.00    +0.139 C 
ATOM     11  C   UNL     1      33.882 -20.530 -20.297  0.00  0.00    +0.040 C 
ATOM     12  C   UNL     1      36.106 -19.681 -20.710  0.00  0.00    +0.037 C 
ATOM     13  C   UNL     1      34.417 -21.546 -19.505  0.00  0.00    +0.034 C 
ATOM     14  C   UNL     1      36.640 -20.697 -19.918  0.00  0.00    +0.003 C 
ATOM     15  C   UNL     1      35.796 -21.628 -19.315  0.00  0.00    +0.003 C 
BRANCH  13  18
ATOM     16  N   UNL     1      32.350 -22.125 -18.256  0.00  0.00    -0.343 N 
ATOM     17  N   UNL     1      33.856 -23.798 -18.882  0.00  0.00    -0.285 NA
ATOM     18  C   UNL     1      33.536 -22.517 -18.876  0.00  0.00    +0.117 C 
ATOM     19  H   UNL     1      31.769 -22.799 -17.836  0.00  0.00    +0.144 HD
ATOM     20  H   UNL     1      32.095 -21.174 -18.238  0.00  0.00    +0.144 HD
ATOM     21  H   UNL     1      33.261 -24.457 -18.457  0.00  0.00    +0.188 HD
ENDBRANCH  13  18
ENDBRANCH   9  10
ENDBRANCH   5   9
BRANCH   6  22
ATOM     22  O   UNL     1      32.788 -13.769 -23.541  0.00  0.00    -0.474 OA
BRANCH  22  23
ATOM     23  C   UNL     1      33.086 -12.427 -23.613  0.00  0.00    +0.139 C 
ATOM     24  C   UNL     1      32.441 -11.539 -22.764  0.00  0.00    +0.040 C 
ATOM     25  C   UNL     1      34.026 -11.985 -24.533  0.00  0.00    +0.037 C 
ATOM     26  C   UNL     1      32.743 -10.178 -22.838  0.00  0.00    +0.034 C 
ATOM     27  C   UNL     1      34.328 -10.625 -24.606  0.00  0.00    +0.003 C 
ATOM     28  C   UNL     1      33.687  -9.722 -23.759  0.00  0.00    +0.003 C 
BRANCH  26  31
ATOM     29  N   UNL     1      31.454  -8.092 -22.452  0.00  0.00    -0.343 N 
ATOM     30  N   UNL     1      32.050  -9.458 -20.652  0.00  0.00    -0.285 NA
ATOM     31  C   UNL     1      32.074  -9.236 -21.955  0.00  0.00    +0.117 C 
ATOM     32  H   UNL     1      31.006  -7.468 -21.836  0.00  0.00    +0.144 HD
ATOM     33  H   UNL     1      31.463  -7.907 -23.419  0.00  0.00    +0.144 HD
ATOM     34  H   UNL     1      31.598  -8.822 -20.053  0.00  0.00    +0.188 HD
ENDBRANCH  26  31
ENDBRANCH  22  23
ENDBRANCH   6  22
TORSDOF 6
ENDMDL
MODEL 5
REMARK VINA RESULT:     -10.3      1.729      2.689
REMARK  Name = 5326924
REMARK  6 active torsions:
REMARK  status: ('A' for Active; 'I' for Inactive)
REMARK    1  A    between atoms: C_5  and  O_9
REMARK    2  A    between atoms: C_6  and  O_22
REMARK    3  A    between atoms: O_9  and  C_10
REMARK    4  A    between atoms: C_13  and  C_18
REMARK    5  A    between atoms: O_22  and  C_23
REMARK    6  A    between atoms: C_26  and  C_31
REMARK                            x       y       z     vdW  Elec       q    Type
REMARK                         _______ _______ _______ _____ _____    ______ ____
ROOT
ATOM      1  O   UNL     1      33.810 -15.458 -24.295  0.00  0.00    -0.346 OA
ATOM      2  O   UNL     1      34.741 -14.894 -21.437  0.00  0.00    -0.346 OA
ATOM      3  C   UNL     1      33.067 -15.273 -23.075  0.00  0.00    +0.188 C 
ATOM      4  C   UNL     1      33.879 -15.916 -21.967  0.00  0.00    +0.188 C 
ATOM      5  C   UNL     1      33.042 -13.816 -22.689  0.00  0.00    +0.225 C 
ATOM      6  C   UNL     1      34.657 -16.976 -22.708  0.00  0.00    +0.225 C 
ATOM      7  C   UNL     1      34.945 -16.294 -24.028  0.00  0.00    +0.188 C 
ATOM      8  C   UNL     1      34.388 -13.628 -22.018  0.00  0.00    +0.188 C 
ENDROOT
BRANCH   5   9
ATOM      9  O   UNL     1      32.018 -13.588 -21.728  0.00  0.00    -0.474 OA
BRANCH   9  10
ATOM     10  C   UNL     1      31.906 -12.314 -21.236  0.00  0.00    +0.139 C 
ATOM     11  C   UNL     1      31.910 -11.235 -22.111  0.00  0.00    +0.040 C 
ATOM     12  C   UNL     1      31.791 -12.114 -19.864  0.00  0.00    +0.037 C 
ATOM     13  C   UNL     1      31.797  -9.938 -21.610  0.00  0.00    +0.034 C 
ATOM     14  C   UNL     1      31.678 -10.818 -19.363  0.00  0.00    +0.003 C 
ATOM     15  C   UNL     1      31.681  -9.730 -20.235  0.00  0.00    +0.003 C 
BRANCH  13  18
ATOM     16  N   UNL     1      32.079  -8.964 -23.876  0.00  0.00    -0.343 N 
ATOM     17  N   UNL     1      31.541  -7.592 -22.063  0.00  0.00    -0.285 NA
ATOM     18  C   UNL     1      31.801  -8.804 -22.519  0.00  0.00    +0.117 C 
ATOM     19  H   UNL     1      32.077  -8.182 -24.475  0.00  0.00    +0.144 HD
ATOM     20  H   UNL     1      32.279  -9.859 -24.235  0.00  0.00    +0.144 HD
ATOM     21  H   UNL     1      31.542  -6.823 -22.677  0.00  0.00    +0.188 HD
ENDBRANCH  13  18
ENDBRANCH   9  10
ENDBRANCH   5   9
BRANCH   6  22
ATOM     22  O   UNL     1      35.828 -17.369 -22.027  0.00  0.00    -0.474 OA
BRANCH  22  23
ATOM     23  C   UNL     1      35.778 -18.547 -21.318  0.00  0.00    +0.139 C 
ATOM     24  C   UNL     1      34.545 -19.100 -21.000  0.00  0.00    +0.040 C 
ATOM     25  C   UNL     1      36.960 -19.163 -20.932  0.00  0.00    +0.037 C 
ATOM     26  C   UNL     1      34.495 -20.295 -20.279  0.00  0.00    +0.034 C 
ATOM     27  C   UNL     1      36.909 -20.357 -20.213  0.00  0.00    +0.003 C 
ATOM     28  C   UNL     1      35.677 -20.923 -19.887  0.00  0.00    +0.003 C 
BRANCH  26  31
ATOM     29  N   UNL     1      33.116 -22.189 -19.460  0.00  0.00    -0.343 N 
ATOM     30  N   UNL     1      32.102 -20.179 -20.085  0.00  0.00    -0.285 NA
ATOM     31  C   UNL     1      33.210 -20.885 -19.939  0.00  0.00    +0.117 C 
ATOM     32  H   UNL     1      32.236 -22.569 -19.235  0.00  0.00    +0.144 HD
ATOM     33  H   UNL     1      33.929 -22.733 -19.347  0.00  0.00    +0.144 HD
ATOM     34  H   UNL     1      31.232 -20.576 -19.856  0.00  0.00    +0.188 HD
ENDBRANCH  26  31
ENDBRANCH  22  23
ENDBRANCH   6  22
TORSDOF 6
ENDMDL
MODEL 6
REMARK VINA RESULT:     -10.3      0.960      9.545
REMARK  Name = 5326924
REMARK  6 active torsions:
REMARK  status: ('A' for Active; 'I' for Inactive)
REMARK    1  A    between atoms: C_5  and  O_9
REMARK    2  A    between atoms: C_6  and  O_22
REMARK    3  A    between atoms: O_9  and  C_10
REMARK    4  A    between atoms: C_13  and  C_18
REMARK    5  A    between atoms: O_22  and  C_23
REMARK    6  A    between atoms: C_26  and  C_31
REMARK                            x       y       z     vdW  Elec       q    Type
REMARK                         _______ _______ _______ _____ _____    ______ ____
ROOT
ATOM      1  O   UNL     1      33.493 -14.974 -24.786  0.00  0.00    -0.346 OA
ATOM      2  O   UNL     1      33.050 -14.150 -21.874  0.00  0.00    -0.346 OA
ATOM      3  C   UNL     1      34.375 -15.003 -23.648  0.00  0.00    +0.188 C 
ATOM      4  C   UNL     1      34.064 -13.770 -22.822  0.00  0.00    +0.188 C 
ATOM      5  C   UNL     1      34.012 -16.142 -22.728  0.00  0.00    +0.225 C 
ATOM      6  C   UNL     1      33.529 -12.811 -23.858  0.00  0.00    +0.225 C 
ATOM      7  C   UNL     1      32.768 -13.735 -24.783  0.00  0.00    +0.188 C 
ATOM      8  C   UNL     1      32.849 -15.572 -21.941  0.00  0.00    +0.188 C 
ENDROOT
BRANCH   5   9
ATOM      9  O   UNL     1      35.086 -16.400 -21.833  0.00  0.00    -0.474 OA
BRANCH   9  10
ATOM     10  C   UNL     1      35.255 -17.699 -21.431  0.00  0.00    +0.139 C 
ATOM     11  C   UNL     1      34.155 -18.443 -21.023  0.00  0.00    +0.040 C 
ATOM     12  C   UNL     1      36.528 -18.260 -21.436  0.00  0.00    +0.037 C 
ATOM     13  C   UNL     1      34.328 -19.765 -20.614  0.00  0.00    +0.034 C 
ATOM     14  C   UNL     1      36.701 -19.582 -21.027  0.00  0.00    +0.003 C 
ATOM     15  C   UNL     1      35.601 -20.334 -20.615  0.00  0.00    +0.003 C 
BRANCH  13  18
ATOM     16  N   UNL     1      33.317 -21.883 -19.801  0.00  0.00    -0.343 N 
ATOM     17  N   UNL     1      31.981 -19.999 -20.155  0.00  0.00    -0.285 NA
ATOM     18  C   UNL     1      33.181 -20.549 -20.184  0.00  0.00    +0.117 C 
ATOM     19  H   UNL     1      32.527 -22.395 -19.514  0.00  0.00    +0.144 HD
ATOM     20  H   UNL     1      34.203 -22.312 -19.819  0.00  0.00    +0.144 HD
ATOM     21  H   UNL     1      31.203 -20.528 -19.864  0.00  0.00    +0.188 HD
ENDBRANCH  13  18
ENDBRANCH   9  10
ENDBRANCH   5   9
BRANCH   6  22
ATOM     22  O   UNL     1      32.717 -11.803 -23.300  0.00  0.00    -0.474 OA
BRANCH  22  23
ATOM     23  C   UNL     1      33.230 -10.526 -23.270  0.00  0.00    +0.139 C 
ATOM     24  C   UNL     1      32.711  -9.603 -22.373  0.00  0.00    +0.040 C 
ATOM     25  C   UNL     1      34.258 -10.183 -24.136  0.00  0.00    +0.037 C 
ATOM     26  C   UNL     1      33.230  -8.308 -22.343  0.00  0.00    +0.034 C 
ATOM     27  C   UNL     1      34.778  -8.888 -24.105  0.00  0.00    +0.003 C 
ATOM     28  C   UNL     1      34.264  -7.952 -23.209  0.00  0.00    +0.003 C 
BRANCH  26  31
ATOM     29  N   UNL     1      32.995  -7.388 -20.050  0.00  0.00    -0.343 N 
ATOM     30  N   UNL     1      31.904  -6.367 -21.846  0.00  0.00    -0.285 NA
ATOM     31  C   UNL     1      32.695  -7.331 -21.408  0.00  0.00    +0.117 C 
ATOM     32  H   UNL     1      32.623  -6.716 -19.434  0.00  0.00    +0.144 HD
ATOM     33  H   UNL     1      33.580  -8.100 -19.704  0.00  0.00    +0.144 HD
ATOM     34  H   UNL     1      31.540  -5.705 -21.215  0.00  0.00    +0.188 HD
ENDBRANCH  26  31
ENDBRANCH  22  23
ENDBRANCH   6  22
TORSDOF 6
ENDMDL
MODEL 7
REMARK VINA RESULT:     -10.1      2.714     10.173
REMARK  Name = 5326924
REMARK  6 active torsions:
REMARK  status: ('A' for Active; 'I' for Inactive)
REMARK    1  A    between atoms: C_5  and  O_9
REMARK    2  A    between atoms: C_6  and  O_22
REMARK    3  A    between atoms: O_9  and  C_10
REMARK    4  A    between atoms: C_13  and  C_18
REMARK    5  A    between atoms: O_22  and  C_23
REMARK    6  A    between atoms: C_26  and  C_31
REMARK                            x       y       z     vdW  Elec       q    Type
REMARK                         _______ _______ _______ _____ _____    ______ ____
ROOT
ATOM      1  O   UNL     1      34.867 -17.165 -20.530  0.00  0.00    -0.346 OA
ATOM      2  O   UNL     1      36.278 -18.584 -22.843  0.00  0.00    -0.346 OA
ATOM      3  C   UNL     1      34.748 -18.510 -21.031  0.00  0.00    +0.188 C 
ATOM      4  C   UNL     1      34.881 -18.428 -22.539  0.00  0.00    +0.188 C 
ATOM      5  C   UNL     1      35.943 -19.333 -20.618  0.00  0.00    +0.225 C 
ATOM      6  C   UNL     1      34.397 -17.029 -22.832  0.00  0.00    +0.225 C 
ATOM      7  C   UNL     1      34.918 -16.256 -21.640  0.00  0.00    +0.188 C 
ATOM      8  C   UNL     1      36.987 -18.935 -21.642  0.00  0.00    +0.188 C 
ENDROOT
BRANCH   5   9
ATOM      9  O   UNL     1      35.653 -20.716 -20.777  0.00  0.00    -0.474 OA
BRANCH   9  10
ATOM     10  C   UNL     1      35.260 -21.396 -19.654  0.00  0.00    +0.139 C 
ATOM     11  C   UNL     1      36.174 -21.625 -18.632  0.00  0.00    +0.040 C 
ATOM     12  C   UNL     1      33.950 -21.852 -19.549  0.00  0.00    +0.037 C 
ATOM     13  C   UNL     1      35.773 -22.318 -17.489  0.00  0.00    +0.034 C 
ATOM     14  C   UNL     1      33.550 -22.544 -18.407  0.00  0.00    +0.003 C 
ATOM     15  C   UNL     1      34.461 -22.778 -17.377  0.00  0.00    +0.003 C 
BRANCH  13  18
ATOM     16  N   UNL     1      37.608 -21.570 -15.992  0.00  0.00    -0.343 N 
ATOM     17  N   UNL     1      36.762 -23.742 -15.825  0.00  0.00    -0.285 NA
ATOM     18  C   UNL     1      36.723 -22.561 -16.416  0.00  0.00    +0.117 C 
ATOM     19  H   UNL     1      38.243 -21.757 -15.264  0.00  0.00    +0.144 HD
ATOM     20  H   UNL     1      37.597 -20.685 -16.423  0.00  0.00    +0.144 HD
ATOM     21  H   UNL     1      37.404 -23.909 -15.098  0.00  0.00    +0.188 HD
ENDBRANCH  13  18
ENDBRANCH   9  10
ENDBRANCH   5   9
BRANCH   6  22
ATOM     22  O   UNL     1      34.878 -16.531 -24.061  0.00  0.00    -0.474 OA
BRANCH  22  23
ATOM     23  C   UNL     1      34.206 -15.466 -24.615  0.00  0.00    +0.139 C 
ATOM     24  C   UNL     1      34.218 -14.239 -23.967  0.00  0.00    +0.040 C 
ATOM     25  C   UNL     1      33.527 -15.637 -25.813  0.00  0.00    +0.037 C 
ATOM     26  C   UNL     1      33.535 -13.160 -24.528  0.00  0.00    +0.034 C 
ATOM     27  C   UNL     1      32.845 -14.557 -26.375  0.00  0.00    +0.003 C 
ATOM     28  C   UNL     1      32.849 -13.319 -25.733  0.00  0.00    +0.003 C 
BRANCH  26  31
ATOM     29  N   UNL     1      34.497 -10.903 -24.154  0.00  0.00    -0.343 N 
ATOM     30  N   UNL     1      32.620 -11.597 -22.948  0.00  0.00    -0.285 NA
ATOM     31  C   UNL     1      33.538 -11.869 -23.859  0.00  0.00    +0.117 C 
ATOM     32  H   UNL     1      34.481 -10.035 -23.689  0.00  0.00    +0.144 HD
ATOM     33  H   UNL     1      35.191 -11.087 -24.827  0.00  0.00    +0.144 HD
ATOM     34  H   UNL     1      32.621 -10.724 -22.494  0.00  0.00    +0.188 HD
ENDBRANCH  26  31
ENDBRANCH  22  23
ENDBRANCH   6  22
TORSDOF 6
ENDMDL
MODEL 8
REMARK VINA RESULT:     -10.1      2.063     10.086
REMARK  Name = 5326924
REMARK  6 active torsions:
REMARK  status: ('A' for Active; 'I' for Inactive)
REMARK    1  A    between atoms: C_5  and  O_9
REMARK    2  A    between atoms: C_6  and  O_22
REMARK    3  A    between atoms: O_9  and  C_10
REMARK    4  A    between atoms: C_13  and  C_18
REMARK    5  A    between atoms: O_22  and  C_23
REMARK    6  A    between atoms: C_26  and  C_31
REMARK                            x       y       z     vdW  Elec       q    Type
REMARK                         _______ _______ _______ _____ _____    ______ ____
ROOT
ATOM      1  O   UNL     1      34.022 -11.771 -25.017  0.00  0.00    -0.346 OA
ATOM      2  O   UNL     1      32.052 -12.723 -22.879  0.00  0.00    -0.346 OA
ATOM      3  C   UNL     1      34.234 -12.472 -23.777  0.00  0.00    +0.188 C 
ATOM      4  C   UNL     1      33.237 -11.912 -22.781  0.00  0.00    +0.188 C 
ATOM      5  C   UNL     1      33.822 -13.917 -23.911  0.00  0.00    +0.225 C 
ATOM      6  C   UNL     1      33.005 -10.516 -23.305  0.00  0.00    +0.225 C 
ATOM      7  C   UNL     1      33.064 -10.724 -24.802  0.00  0.00    +0.188 C 
ATOM      8  C   UNL     1      32.318 -13.848 -23.733  0.00  0.00    +0.188 C 
ENDROOT
BRANCH   5   9
ATOM      9  O   UNL     1      34.373 -14.677 -22.844  0.00  0.00    -0.474 OA
BRANCH   9  10
ATOM     10  C   UNL     1      34.589 -16.009 -23.083  0.00  0.00    +0.139 C 
ATOM     11  C   UNL     1      34.752 -16.883 -22.015  0.00  0.00    +0.040 C 
ATOM     12  C   UNL     1      34.643 -16.473 -24.393  0.00  0.00    +0.037 C 
ATOM     13  C   UNL     1      34.972 -18.239 -22.259  0.00  0.00    +0.034 C 
ATOM     14  C   UNL     1      34.863 -17.828 -24.637  0.00  0.00    +0.003 C 
ATOM     15  C   UNL     1      35.028 -18.711 -23.571  0.00  0.00    +0.003 C 
BRANCH  13  18
ATOM     16  N   UNL     1      34.108 -19.993 -20.729  0.00  0.00    -0.343 N 
ATOM     17  N   UNL     1      36.300 -19.214 -20.509  0.00  0.00    -0.285 NA
ATOM     18  C   UNL     1      35.145 -19.159 -21.147  0.00  0.00    +0.117 C 
ATOM     19  H   UNL     1      34.247 -20.609 -19.972  0.00  0.00    +0.144 HD
ATOM     20  H   UNL     1      33.238 -19.965 -21.188  0.00  0.00    +0.144 HD
ATOM     21  H   UNL     1      36.419 -19.836 -19.757  0.00  0.00    +0.188 HD
ENDBRANCH  13  18
ENDBRANCH   9  10
ENDBRANCH   5   9
BRANCH   6  22
ATOM     22  O   UNL     1      31.778  -9.969 -22.875  0.00  0.00    -0.474 OA
BRANCH  22  23
ATOM     23  C   UNL     1      31.822  -8.757 -22.226  0.00  0.00    +0.139 C 
ATOM     24  C   UNL     1      31.366  -7.618 -22.876  0.00  0.00    +0.040 C 
ATOM     25  C   UNL     1      32.322  -8.692 -20.934  0.00  0.00    +0.037 C 
ATOM     26  C   UNL     1      31.412  -6.388 -22.218  0.00  0.00    +0.034 C 
ATOM     27  C   UNL     1      32.366  -7.462 -20.276  0.00  0.00    +0.003 C 
ATOM     28  C   UNL     1      31.912  -6.312 -20.918  0.00  0.00    +0.003 C 
BRANCH  26  31
ATOM     29  N   UNL     1      30.433  -4.108 -22.167  0.00  0.00    -0.343 N 
ATOM     30  N   UNL     1      30.981  -5.109 -24.206  0.00  0.00    -0.285 NA
ATOM     31  C   UNL     1      30.938  -5.187 -22.887  0.00  0.00    +0.117 C 
ATOM     32  H   UNL     1      30.118  -3.304 -22.640  0.00  0.00    +0.144 HD
ATOM     33  H   UNL     1      30.390  -4.148 -21.184  0.00  0.00    +0.144 HD
ATOM     34  H   UNL     1      30.661  -4.297 -24.661  0.00  0.00    +0.188 HD
ENDBRANCH  26  31
ENDBRANCH  22  23
ENDBRANCH   6  22
TORSDOF 6
ENDMDL
MODEL 9
REMARK VINA RESULT:     -10.0      3.670      5.688
REMARK  Name = 5326924
REMARK  6 active torsions:
REMARK  status: ('A' for Active; 'I' for Inactive)
REMARK    1  A    between atoms: C_5  and  O_9
REMARK    2  A    between atoms: C_6  and  O_22
REMARK    3  A    between atoms: O_9  and  C_10
REMARK    4  A    between atoms: C_13  and  C_18
REMARK    5  A    between atoms: O_22  and  C_23
REMARK    6  A    between atoms: C_26  and  C_31
REMARK                            x       y       z     vdW  Elec       q    Type
REMARK                         _______ _______ _______ _____ _____    ______ ____
ROOT
ATOM      1  O   UNL     1      32.688 -19.498 -21.092  0.00  0.00    -0.346 OA
ATOM      2  O   UNL     1      35.591 -20.074 -21.864  0.00  0.00    -0.346 OA
ATOM      3  C   UNL     1      33.844 -18.642 -21.137  0.00  0.00    +0.188 C 
ATOM      4  C   UNL     1      35.026 -19.477 -20.683  0.00  0.00    +0.188 C 
ATOM      5  C   UNL     1      34.188 -18.296 -22.564  0.00  0.00    +0.225 C 
ATOM      6  C   UNL     1      34.373 -20.506 -19.793  0.00  0.00    +0.225 C 
ATOM      7  C   UNL     1      33.060 -20.754 -20.504  0.00  0.00    +0.188 C 
ATOM      8  C   UNL     1      34.951 -19.521 -23.026  0.00  0.00    +0.188 C 
ENDROOT
BRANCH   5   9
ATOM      9  O   UNL     1      35.064 -17.176 -22.592  0.00  0.00    -0.474 OA
BRANCH   9  10
ATOM     10  C   UNL     1      34.550 -16.002 -23.076  0.00  0.00    +0.139 C 
ATOM     11  C   UNL     1      34.080 -15.943 -24.383  0.00  0.00    +0.040 C 
ATOM     12  C   UNL     1      34.504 -14.880 -22.256  0.00  0.00    +0.037 C 
ATOM     13  C   UNL     1      33.556 -14.748 -24.876  0.00  0.00    +0.034 C 
ATOM     14  C   UNL     1      33.981 -13.685 -22.748  0.00  0.00    +0.003 C 
ATOM     15  C   UNL     1      33.508 -13.619 -24.058  0.00  0.00    +0.003 C 
BRANCH  13  18
ATOM     16  N   UNL     1      33.233 -13.533 -27.017  0.00  0.00    -0.343 N 
ATOM     17  N   UNL     1      32.436 -15.715 -26.769  0.00  0.00    -0.285 NA
ATOM     18  C   UNL     1      33.063 -14.679 -26.242  0.00  0.00    +0.117 C 
ATOM     19  H   UNL     1      32.890 -13.507 -27.940  0.00  0.00    +0.144 HD
ATOM     20  H   UNL     1      33.694 -12.748 -26.641  0.00  0.00    +0.144 HD
ATOM     21  H   UNL     1      32.102 -15.671 -27.694  0.00  0.00    +0.188 HD
ENDBRANCH  13  18
ENDBRANCH   9  10
ENDBRANCH   5   9
BRANCH   6  22
ATOM     22  O   UNL     1      35.148 -21.675 -19.651  0.00  0.00    -0.474 OA
BRANCH  22  23
ATOM     23  C   UNL     1      35.534 -22.023 -18.377  0.00  0.00    +0.139 C 
ATOM     24  C   UNL     1      34.647 -22.705 -17.557  0.00  0.00    +0.040 C 
ATOM     25  C   UNL     1      36.805 -21.685 -17.933  0.00  0.00    +0.037 C 
ATOM     26  C   UNL     1      35.038 -23.056 -16.264  0.00  0.00    +0.034 C 
ATOM     27  C   UNL     1      37.197 -22.038 -16.641  0.00  0.00    +0.003 C 
ATOM     28  C   UNL     1      36.314 -22.723 -15.807  0.00  0.00    +0.003 C 
BRANCH  26  31
ATOM     29  N   UNL     1      34.540 -24.850 -14.623  0.00  0.00    -0.343 N 
ATOM     30  N   UNL     1      32.851 -23.398 -15.328  0.00  0.00    -0.285 NA
ATOM     31  C   UNL     1      34.117 -23.770 -15.394  0.00  0.00    +0.117 C 
ATOM     32  H   UNL     1      33.900 -25.320 -14.040  0.00  0.00    +0.144 HD
ATOM     33  H   UNL     1      35.478 -25.146 -14.660  0.00  0.00    +0.144 HD
ATOM     34  H   UNL     1      32.226 -23.880 -14.740  0.00  0.00    +0.188 HD
ENDBRANCH  26  31
ENDBRANCH  22  23
ENDBRANCH   6  22
TORSDOF 6
ENDMDL
