MODEL 1
REMARK VINA RESULT:      -6.0      0.000      0.000
REMARK  Name = 39186
REMARK  7 active torsions:
REMARK  status: ('A' for Active; 'I' for Inactive)
REMARK    1  A    between atoms: N_3  and  C_25
REMARK    2  A    between atoms: C_4  and  C_13
REMARK    3  A    between atoms: C_5  and  O_21
REMARK    4  A    between atoms: C_18  and  O_19
REMARK    5  A    between atoms: O_21  and  C_23
REMARK    6  A    between atoms: C_25  and  C_26
REMARK    7  A    between atoms: C_26  and  N_27
REMARK                            x       y       z     vdW  Elec       q    Type
REMARK                         _______ _______ _______ _____ _____    ______ ____
ROOT
ATOM      1  S   UNL     1      36.989 -22.459 -14.530  0.00  0.00    -0.105 S 
ATOM      2  O   UNL     1      35.477 -25.926 -16.205  0.00  0.00    -0.271 OA
ATOM      3  N   UNL     1      36.425 -25.572 -14.113  0.00  0.00    -0.257 N 
ATOM      4  C   UNL     1      35.338 -22.675 -15.300  0.00  0.00    +0.123 C 
ATOM      5  C   UNL     1      34.673 -24.026 -14.988  0.00  0.00    +0.259 C 
ATOM      6  C   UNL     1      35.577 -25.241 -15.183  0.00  0.00    +0.271 C 
ATOM      7  C   UNL     1      36.608 -24.761 -12.942  0.00  0.00    +0.059 C 
ATOM      8  C   UNL     1      36.771 -23.361 -13.001  0.00  0.00    +0.039 C 
ATOM      9  C   UNL     1      36.655 -25.386 -11.681  0.00  0.00    +0.015 C 
ATOM     10  C   UNL     1      36.936 -22.626 -11.814  0.00  0.00    +0.007 C 
ATOM     11  C   UNL     1      36.810 -24.644 -10.509  0.00  0.00    +0.001 C 
ATOM     12  C   UNL     1      36.943 -23.263 -10.576  0.00  0.00    +0.001 C 
ENDROOT
BRANCH   4  13
ATOM     13  C   UNL     1      35.406 -22.343 -16.785  0.00  0.00    -0.008 C 
ATOM     14  C   UNL     1      34.306 -22.592 -17.602  0.00  0.00    -0.000 C 
ATOM     15  C   UNL     1      36.567 -21.789 -17.319  0.00  0.00    -0.000 C 
ATOM     16  C   UNL     1      34.368 -22.287 -18.962  0.00  0.00    +0.037 C 
ATOM     17  C   UNL     1      36.629 -21.484 -18.678  0.00  0.00    +0.037 C 
ATOM     18  C   UNL     1      35.530 -21.733 -19.500  0.00  0.00    +0.139 C 
BRANCH  18  19
ATOM     19  O   UNL     1      35.592 -21.436 -20.827  0.00  0.00    -0.471 OA
ATOM     20  C   UNL     1      35.376 -20.075 -21.198  0.00  0.00    +0.252 C 
ENDBRANCH  18  19
ENDBRANCH   4  13
BRANCH   5  21
ATOM     21  O   UNL     1      33.517 -24.208 -15.800  0.00  0.00    -0.441 OA
BRANCH  21  23
ATOM     22  O   UNL     1      32.007 -24.935 -14.210  0.00  0.00    -0.250 OA
ATOM     23  C   UNL     1      32.314 -24.205 -15.143  0.00  0.00    +0.318 C 
ATOM     24  C   UNL     1      31.406 -23.169 -15.733  0.00  0.00    +0.121 C 
ENDBRANCH  21  23
ENDBRANCH   5  21
BRANCH   3  25
ATOM     25  C   UNL     1      37.085 -26.877 -14.137  0.00  0.00    +0.076 C 
BRANCH  25  26
ATOM     26  C   UNL     1      38.353 -26.838 -14.978  0.00  0.00    -0.055 C 
BRANCH  26  27
ATOM     27  N   UNL     1      39.344 -25.967 -14.359  0.00  0.00    +0.385 N 
ATOM     28  C   UNL     1      40.585 -26.700 -14.098  0.00  0.00    -0.101 C 
ATOM     29  C   UNL     1      39.611 -24.805 -15.209  0.00  0.00    -0.101 C 
ATOM     30  H   UNL     1      38.968 -25.639 -13.470  0.00  0.00    -0.080 HD
ENDBRANCH  26  27
ENDBRANCH  25  26
ENDBRANCH   3  25
TORSDOF 7
ENDMDL
MODEL 2
REMARK VINA RESULT:      -5.4     14.577     19.498
REMARK  Name = 39186
REMARK  7 active torsions:
REMARK  status: ('A' for Active; 'I' for Inactive)
REMARK    1  A    between atoms: N_3  and  C_25
REMARK    2  A    between atoms: C_4  and  C_13
REMARK    3  A    between atoms: C_5  and  O_21
REMARK    4  A    between atoms: C_18  and  O_19
REMARK    5  A    between atoms: O_21  and  C_23
REMARK    6  A    between atoms: C_25  and  C_26
REMARK    7  A    between atoms: C_26  and  N_27
REMARK                            x       y       z     vdW  Elec       q    Type
REMARK                         _______ _______ _______ _____ _____    ______ ____
ROOT
ATOM      1  S   UNL     1      31.022  -7.836 -24.506  0.00  0.00    -0.105 S 
ATOM      2  O   UNL     1      35.033  -8.131 -23.541  0.00  0.00    -0.271 OA
ATOM      3  N   UNL     1      33.878  -6.417 -24.603  0.00  0.00    -0.257 N 
ATOM      4  C   UNL     1      31.726  -8.239 -22.861  0.00  0.00    +0.123 C 
ATOM      5  C   UNL     1      32.988  -7.435 -22.506  0.00  0.00    +0.259 C 
ATOM      6  C   UNL     1      34.047  -7.392 -23.605  0.00  0.00    +0.271 C 
ATOM      7  C   UNL     1      32.713  -5.588 -24.738  0.00  0.00    +0.059 C 
ATOM      8  C   UNL     1      31.401  -6.092 -24.619  0.00  0.00    +0.039 C 
ATOM      9  C   UNL     1      32.881  -4.221 -25.029  0.00  0.00    +0.015 C 
ATOM     10  C   UNL     1      30.305  -5.222 -24.754  0.00  0.00    +0.007 C 
ATOM     11  C   UNL     1      31.783  -3.366 -25.152  0.00  0.00    +0.001 C 
ATOM     12  C   UNL     1      30.495  -3.866 -25.006  0.00  0.00    +0.001 C 
ENDROOT
BRANCH   4  13
ATOM     13  C   UNL     1      31.888  -9.747 -22.717  0.00  0.00    -0.008 C 
ATOM     14  C   UNL     1      32.801 -10.426 -23.521  0.00  0.00    -0.000 C 
ATOM     15  C   UNL     1      31.124 -10.440 -21.782  0.00  0.00    -0.000 C 
ATOM     16  C   UNL     1      32.950 -11.807 -23.389  0.00  0.00    +0.037 C 
ATOM     17  C   UNL     1      31.272 -11.820 -21.650  0.00  0.00    +0.037 C 
ATOM     18  C   UNL     1      32.186 -12.504 -22.453  0.00  0.00    +0.139 C 
BRANCH  18  19
ATOM     19  O   UNL     1      32.329 -13.851 -22.324  0.00  0.00    -0.471 OA
ATOM     20  C   UNL     1      33.275 -14.488 -23.181  0.00  0.00    +0.252 C 
ENDBRANCH  18  19
ENDBRANCH   4  13
BRANCH   5  21
ATOM     21  O   UNL     1      33.599  -7.965 -21.333  0.00  0.00    -0.441 OA
BRANCH  21  23
ATOM     22  O   UNL     1      32.607  -8.699 -19.380  0.00  0.00    -0.250 OA
ATOM     23  C   UNL     1      32.898  -7.808 -20.166  0.00  0.00    +0.318 C 
ATOM     24  C   UNL     1      32.526  -6.368 -19.979  0.00  0.00    +0.121 C 
ENDBRANCH  21  23
ENDBRANCH   5  21
BRANCH   3  25
ATOM     25  C   UNL     1      35.003  -6.148 -25.498  0.00  0.00    +0.076 C 
BRANCH  25  26
ATOM     26  C   UNL     1      34.523  -5.615 -26.840  0.00  0.00    -0.055 C 
BRANCH  26  27
ATOM     27  N   UNL     1      35.388  -4.533 -27.294  0.00  0.00    +0.385 N 
ATOM     28  C   UNL     1      36.532  -5.063 -28.038  0.00  0.00    -0.101 C 
ATOM     29  C   UNL     1      34.638  -3.588 -28.124  0.00  0.00    -0.101 C 
ATOM     30  H   UNL     1      35.735  -4.039 -26.472  0.00  0.00    -0.080 HD
ENDBRANCH  26  27
ENDBRANCH  25  26
ENDBRANCH   3  25
TORSDOF 7
ENDMDL
MODEL 3
REMARK VINA RESULT:      -4.6     13.134     16.751
REMARK  Name = 39186
REMARK  7 active torsions:
REMARK  status: ('A' for Active; 'I' for Inactive)
REMARK    1  A    between atoms: N_3  and  C_25
REMARK    2  A    between atoms: C_4  and  C_13
REMARK    3  A    between atoms: C_5  and  O_21
REMARK    4  A    between atoms: C_18  and  O_19
REMARK    5  A    between atoms: O_21  and  C_23
REMARK    6  A    between atoms: C_25  and  C_26
REMARK    7  A    between atoms: C_26  and  N_27
REMARK                            x       y       z     vdW  Elec       q    Type
REMARK                         _______ _______ _______ _____ _____    ______ ____
ROOT
ATOM      1  S   UNL     1      31.936 -12.131 -21.538  0.00  0.00    -0.105 S 
ATOM      2  O   UNL     1      32.595 -10.307 -25.192  0.00  0.00    -0.271 OA
ATOM      3  N   UNL     1      31.776  -9.417 -23.208  0.00  0.00    -0.257 N 
ATOM      4  C   UNL     1      33.486 -12.171 -22.519  0.00  0.00    +0.123 C 
ATOM      5  C   UNL     1      33.826 -10.839 -23.207  0.00  0.00    +0.259 C 
ATOM      6  C   UNL     1      32.666 -10.197 -23.965  0.00  0.00    +0.271 C 
ATOM      7  C   UNL     1      31.796  -9.323 -21.775  0.00  0.00    +0.059 C 
ATOM      8  C   UNL     1      31.958 -10.446 -20.939  0.00  0.00    +0.039 C 
ATOM      9  C   UNL     1      31.621  -8.061 -21.173  0.00  0.00    +0.015 C 
ATOM     10  C   UNL     1      31.978 -10.281 -19.542  0.00  0.00    +0.007 C 
ATOM     11  C   UNL     1      31.652  -7.909 -19.786  0.00  0.00    +0.001 C 
ATOM     12  C   UNL     1      31.839  -9.019 -18.971  0.00  0.00    +0.001 C 
ENDROOT
BRANCH   4  13
ATOM     13  C   UNL     1      33.480 -13.372 -23.457  0.00  0.00    -0.008 C 
ATOM     14  C   UNL     1      32.767 -13.314 -24.653  0.00  0.00    -0.000 C 
ATOM     15  C   UNL     1      34.188 -14.522 -23.116  0.00  0.00    -0.000 C 
ATOM     16  C   UNL     1      32.763 -14.413 -25.512  0.00  0.00    +0.037 C 
ATOM     17  C   UNL     1      34.183 -15.620 -23.975  0.00  0.00    +0.037 C 
ATOM     18  C   UNL     1      33.471 -15.565 -25.173  0.00  0.00    +0.139 C 
BRANCH  18  19
ATOM     19  O   UNL     1      33.466 -16.639 -26.010  0.00  0.00    -0.471 OA
ATOM     20  C   UNL     1      34.072 -17.838 -25.530  0.00  0.00    +0.252 C 
ENDBRANCH  18  19
ENDBRANCH   4  13
BRANCH   5  21
ATOM     21  O   UNL     1      34.901 -11.016 -24.125  0.00  0.00    -0.441 OA
BRANCH  21  23
ATOM     22  O   UNL     1      35.403  -8.764 -24.241  0.00  0.00    -0.250 OA
ATOM     23  C   UNL     1      35.360  -9.880 -24.740  0.00  0.00    +0.318 C 
ATOM     24  C   UNL     1      35.811 -10.195 -26.134  0.00  0.00    +0.121 C 
ENDBRANCH  21  23
ENDBRANCH   5  21
BRANCH   3  25
ATOM     25  C   UNL     1      30.834  -8.558 -23.925  0.00  0.00    +0.076 C 
BRANCH  25  26
ATOM     26  C   UNL     1      31.002  -7.100 -23.524  0.00  0.00    -0.055 C 
BRANCH  26  27
ATOM     27  N   UNL     1      31.552  -6.330 -24.633  0.00  0.00    +0.385 N 
ATOM     28  C   UNL     1      30.962  -4.991 -24.675  0.00  0.00    -0.101 C 
ATOM     29  C   UNL     1      33.009  -6.239 -24.525  0.00  0.00    -0.101 C 
ATOM     30  H   UNL     1      31.321  -6.814 -25.501  0.00  0.00    -0.080 HD
ENDBRANCH  26  27
ENDBRANCH  25  26
ENDBRANCH   3  25
TORSDOF 7
ENDMDL
MODEL 4
REMARK VINA RESULT:      -4.1      6.255      9.604
REMARK  Name = 39186
REMARK  7 active torsions:
REMARK  status: ('A' for Active; 'I' for Inactive)
REMARK    1  A    between atoms: N_3  and  C_25
REMARK    2  A    between atoms: C_4  and  C_13
REMARK    3  A    between atoms: C_5  and  O_21
REMARK    4  A    between atoms: C_18  and  O_19
REMARK    5  A    between atoms: O_21  and  C_23
REMARK    6  A    between atoms: C_25  and  C_26
REMARK    7  A    between atoms: C_26  and  N_27
REMARK                            x       y       z     vdW  Elec       q    Type
REMARK                         _______ _______ _______ _____ _____    ______ ____
ROOT
ATOM      1  S   UNL     1      35.949 -18.414 -22.968  0.00  0.00    -0.105 S 
ATOM      2  O   UNL     1      32.039 -18.236 -21.629  0.00  0.00    -0.271 OA
ATOM      3  N   UNL     1      33.788 -19.605 -20.944  0.00  0.00    -0.257 N 
ATOM      4  C   UNL     1      35.046 -16.915 -22.416  0.00  0.00    +0.123 C 
ATOM      5  C   UNL     1      34.130 -17.147 -21.204  0.00  0.00    +0.259 C 
ATOM      6  C   UNL     1      33.225 -18.372 -21.313  0.00  0.00    +0.271 C 
ATOM      7  C   UNL     1      35.177 -19.802 -20.635  0.00  0.00    +0.059 C 
ATOM      8  C   UNL     1      36.217 -19.242 -21.405  0.00  0.00    +0.039 C 
ATOM      9  C   UNL     1      35.521 -20.609 -19.533  0.00  0.00    +0.015 C 
ATOM     10  C   UNL     1      37.556 -19.468 -21.040  0.00  0.00    +0.007 C 
ATOM     11  C   UNL     1      36.855 -20.818 -19.176  0.00  0.00    +0.001 C 
ATOM     12  C   UNL     1      37.872 -20.240 -19.925  0.00  0.00    +0.001 C 
ENDROOT
BRANCH   4  13
ATOM     13  C   UNL     1      34.355 -16.255 -23.603  0.00  0.00    -0.008 C 
ATOM     14  C   UNL     1      33.967 -14.920 -23.524  0.00  0.00    -0.000 C 
ATOM     15  C   UNL     1      34.115 -16.990 -24.762  0.00  0.00    -0.000 C 
ATOM     16  C   UNL     1      33.335 -14.316 -24.611  0.00  0.00    +0.037 C 
ATOM     17  C   UNL     1      33.483 -16.386 -25.848  0.00  0.00    +0.037 C 
ATOM     18  C   UNL     1      33.093 -15.048 -25.772  0.00  0.00    +0.139 C 
BRANCH  18  19
ATOM     19  O   UNL     1      32.475 -14.460 -26.833  0.00  0.00    -0.471 OA
ATOM     20  C   UNL     1      33.031 -13.237 -27.312  0.00  0.00    +0.252 C 
ENDBRANCH  18  19
ENDBRANCH   4  13
BRANCH   5  21
ATOM     21  O   UNL     1      33.299 -16.009 -20.987  0.00  0.00    -0.441 OA
BRANCH  21  23
ATOM     22  O   UNL     1      35.062 -14.879 -20.011  0.00  0.00    -0.250 OA
ATOM     23  C   UNL     1      33.899 -14.933 -20.386  0.00  0.00    +0.318 C 
ATOM     24  C   UNL     1      32.919 -13.808 -20.248  0.00  0.00    +0.121 C 
ENDBRANCH  21  23
ENDBRANCH   5  21
BRANCH   3  25
ATOM     25  C   UNL     1      32.889 -20.742 -20.755  0.00  0.00    +0.076 C 
BRANCH  25  26
ATOM     26  C   UNL     1      32.651 -21.018 -19.278  0.00  0.00    -0.055 C 
BRANCH  26  27
ATOM     27  N   UNL     1      32.703 -22.450 -19.015  0.00  0.00    +0.385 N 
ATOM     28  C   UNL     1      33.919 -23.036 -19.583  0.00  0.00    -0.101 C 
ATOM     29  C   UNL     1      32.639 -22.713 -17.576  0.00  0.00    -0.101 C 
ATOM     30  H   UNL     1      31.895 -22.884 -19.460  0.00  0.00    -0.080 HD
ENDBRANCH  26  27
ENDBRANCH  25  26
ENDBRANCH   3  25
TORSDOF 7
ENDMDL
MODEL 5
REMARK VINA RESULT:      -3.9      9.624     14.927
REMARK  Name = 39186
REMARK  7 active torsions:
REMARK  status: ('A' for Active; 'I' for Inactive)
REMARK    1  A    between atoms: N_3  and  C_25
REMARK    2  A    between atoms: C_4  and  C_13
REMARK    3  A    between atoms: C_5  and  O_21
REMARK    4  A    between atoms: C_18  and  O_19
REMARK    5  A    between atoms: O_21  and  C_23
REMARK    6  A    between atoms: C_25  and  C_26
REMARK    7  A    between atoms: C_26  and  N_27
REMARK                            x       y       z     vdW  Elec       q    Type
REMARK                         _______ _______ _______ _____ _____    ______ ____
ROOT
ATOM      1  S   UNL     1      35.052 -12.138 -22.925  0.00  0.00    -0.105 S 
ATOM      2  O   UNL     1      31.221 -13.659 -22.584  0.00  0.00    -0.271 OA
ATOM      3  N   UNL     1      31.937 -11.458 -22.798  0.00  0.00    -0.257 N 
ATOM      4  C   UNL     1      34.309 -13.473 -23.941  0.00  0.00    +0.123 C 
ATOM      5  C   UNL     1      32.833 -13.235 -24.304  0.00  0.00    +0.259 C 
ATOM      6  C   UNL     1      31.946 -12.823 -23.131  0.00  0.00    +0.271 C 
ATOM      7  C   UNL     1      32.815 -10.477 -23.373  0.00  0.00    +0.059 C 
ATOM      8  C   UNL     1      34.193 -10.706 -23.565  0.00  0.00    +0.039 C 
ATOM      9  C   UNL     1      32.289  -9.223 -23.737  0.00  0.00    +0.015 C 
ATOM     10  C   UNL     1      34.994  -9.705 -24.143  0.00  0.00    +0.007 C 
ATOM     11  C   UNL     1      33.093  -8.240 -24.318  0.00  0.00    +0.001 C 
ATOM     12  C   UNL     1      34.444  -8.485 -24.528  0.00  0.00    +0.001 C 
ENDROOT
BRANCH   4  13
ATOM     13  C   UNL     1      34.582 -14.829 -23.303  0.00  0.00    -0.008 C 
ATOM     14  C   UNL     1      34.974 -15.902 -24.098  0.00  0.00    -0.000 C 
ATOM     15  C   UNL     1      34.439 -14.989 -21.926  0.00  0.00    -0.000 C 
ATOM     16  C   UNL     1      35.225 -17.144 -23.514  0.00  0.00    +0.037 C 
ATOM     17  C   UNL     1      34.690 -16.230 -21.342  0.00  0.00    +0.037 C 
ATOM     18  C   UNL     1      35.084 -17.308 -22.136  0.00  0.00    +0.139 C 
BRANCH  18  19
ATOM     19  O   UNL     1      35.327 -18.519 -21.565  0.00  0.00    -0.471 OA
ATOM     20  C   UNL     1      34.193 -19.291 -21.174  0.00  0.00    +0.252 C 
ENDBRANCH  18  19
ENDBRANCH   4  13
BRANCH   5  21
ATOM     21  O   UNL     1      32.271 -14.408 -24.885  0.00  0.00    -0.441 OA
BRANCH  21  23
ATOM     22  O   UNL     1      32.717 -15.760 -26.705  0.00  0.00    -0.250 OA
ATOM     23  C   UNL     1      32.611 -14.655 -26.190  0.00  0.00    +0.318 C 
ATOM     24  C   UNL     1      32.840 -13.364 -26.916  0.00  0.00    +0.121 C 
ENDBRANCH  21  23
ENDBRANCH   5  21
BRANCH   3  25
ATOM     25  C   UNL     1      30.898 -10.979 -21.888  0.00  0.00    +0.076 C 
BRANCH  25  26
ATOM     26  C   UNL     1      31.171 -11.421 -20.458  0.00  0.00    -0.055 C 
BRANCH  26  27
ATOM     27  N   UNL     1      31.111 -10.279 -19.555  0.00  0.00    +0.385 N 
ATOM     28  C   UNL     1      31.422 -10.687 -18.184  0.00  0.00    -0.101 C 
ATOM     29  C   UNL     1      32.031  -9.227 -19.992  0.00  0.00    -0.101 C 
ATOM     30  H   UNL     1      30.161  -9.908 -19.575  0.00  0.00    -0.080 HD
ENDBRANCH  26  27
ENDBRANCH  25  26
ENDBRANCH   3  25
TORSDOF 7
ENDMDL
MODEL 6
REMARK VINA RESULT:      -3.7      5.846     11.252
REMARK  Name = 39186
REMARK  7 active torsions:
REMARK  status: ('A' for Active; 'I' for Inactive)
REMARK    1  A    between atoms: N_3  and  C_25
REMARK    2  A    between atoms: C_4  and  C_13
REMARK    3  A    between atoms: C_5  and  O_21
REMARK    4  A    between atoms: C_18  and  O_19
REMARK    5  A    between atoms: O_21  and  C_23
REMARK    6  A    between atoms: C_25  and  C_26
REMARK    7  A    between atoms: C_26  and  N_27
REMARK                            x       y       z     vdW  Elec       q    Type
REMARK                         _______ _______ _______ _____ _____    ______ ____
ROOT
ATOM      1  S   UNL     1      35.828 -18.497 -23.278  0.00  0.00    -0.105 S 
ATOM      2  O   UNL     1      34.359 -16.641 -19.885  0.00  0.00    -0.271 OA
ATOM      3  N   UNL     1      34.371 -15.917 -22.094  0.00  0.00    -0.257 N 
ATOM      4  C   UNL     1      34.673 -19.217 -22.048  0.00  0.00    +0.123 C 
ATOM      5  C   UNL     1      33.621 -18.227 -21.522  0.00  0.00    +0.259 C 
ATOM      6  C   UNL     1      34.179 -16.875 -21.084  0.00  0.00    +0.271 C 
ATOM      7  C   UNL     1      34.232 -16.180 -23.499  0.00  0.00    +0.059 C 
ATOM      8  C   UNL     1      34.753 -17.337 -24.114  0.00  0.00    +0.039 C 
ATOM      9  C   UNL     1      33.572 -15.234 -24.306  0.00  0.00    +0.015 C 
ATOM     10  C   UNL     1      34.572 -17.537 -25.494  0.00  0.00    +0.007 C 
ATOM     11  C   UNL     1      33.391 -15.448 -25.674  0.00  0.00    +0.001 C 
ATOM     12  C   UNL     1      33.885 -16.604 -26.266  0.00  0.00    +0.001 C 
ENDROOT
BRANCH   4  13
ATOM     13  C   UNL     1      35.455 -19.934 -20.954  0.00  0.00    -0.008 C 
ATOM     14  C   UNL     1      36.527 -19.294 -20.336  0.00  0.00    -0.000 C 
ATOM     15  C   UNL     1      35.094 -21.225 -20.576  0.00  0.00    -0.000 C 
ATOM     16  C   UNL     1      37.242 -19.950 -19.333  0.00  0.00    +0.037 C 
ATOM     17  C   UNL     1      35.809 -21.880 -19.574  0.00  0.00    +0.037 C 
ATOM     18  C   UNL     1      36.883 -21.242 -18.952  0.00  0.00    +0.139 C 
BRANCH  18  19
ATOM     19  O   UNL     1      37.581 -21.884 -17.975  0.00  0.00    -0.471 OA
ATOM     20  C   UNL     1      37.176 -21.647 -16.628  0.00  0.00    +0.252 C 
ENDBRANCH  18  19
ENDBRANCH   4  13
BRANCH   5  21
ATOM     21  O   UNL     1      32.922 -18.789 -20.415  0.00  0.00    -0.441 OA
BRANCH  21  23
ATOM     22  O   UNL     1      31.821 -20.388 -21.669  0.00  0.00    -0.250 OA
ATOM     23  C   UNL     1      32.344 -20.014 -20.628  0.00  0.00    +0.318 C 
ATOM     24  C   UNL     1      32.440 -20.851 -19.389  0.00  0.00    +0.121 C 
ENDBRANCH  21  23
ENDBRANCH   5  21
BRANCH   3  25
ATOM     25  C   UNL     1      34.622 -14.534 -21.690  0.00  0.00    +0.076 C 
BRANCH  25  26
ATOM     26  C   UNL     1      33.428 -13.950 -20.950  0.00  0.00    -0.055 C 
BRANCH  26  27
ATOM     27  N   UNL     1      32.561 -13.232 -21.876  0.00  0.00    +0.385 N 
ATOM     28  C   UNL     1      31.666 -12.329 -21.150  0.00  0.00    -0.101 C 
ATOM     29  C   UNL     1      33.356 -12.483 -22.851  0.00  0.00    -0.101 C 
ATOM     30  H   UNL     1      31.995 -13.917 -22.376  0.00  0.00    -0.080 HD
ENDBRANCH  26  27
ENDBRANCH  25  26
ENDBRANCH   3  25
TORSDOF 7
ENDMDL
MODEL 7
REMARK VINA RESULT:      -3.2      7.356     12.868
REMARK  Name = 39186
REMARK  7 active torsions:
REMARK  status: ('A' for Active; 'I' for Inactive)
REMARK    1  A    between atoms: N_3  and  C_25
REMARK    2  A    between atoms: C_4  and  C_13
REMARK    3  A    between atoms: C_5  and  O_21
REMARK    4  A    between atoms: C_18  and  O_19
REMARK    5  A    between atoms: O_21  and  C_23
REMARK    6  A    between atoms: C_25  and  C_26
REMARK    7  A    between atoms: C_26  and  N_27
REMARK                            x       y       z     vdW  Elec       q    Type
REMARK                         _______ _______ _______ _____ _____    ______ ____
ROOT
ATOM      1  S   UNL     1      34.798 -17.445 -24.506  0.00  0.00    -0.105 S 
ATOM      2  O   UNL     1      34.837 -15.061 -21.126  0.00  0.00    -0.271 OA
ATOM      3  N   UNL     1      34.293 -14.526 -23.321  0.00  0.00    -0.257 N 
ATOM      4  C   UNL     1      33.972 -17.799 -22.906  0.00  0.00    +0.123 C 
ATOM      5  C   UNL     1      33.341 -16.564 -22.241  0.00  0.00    +0.259 C 
ATOM      6  C   UNL     1      34.251 -15.340 -22.176  0.00  0.00    +0.271 C 
ATOM      7  C   UNL     1      33.675 -14.857 -24.574  0.00  0.00    +0.059 C 
ATOM      8  C   UNL     1      33.752 -16.144 -25.147  0.00  0.00    +0.039 C 
ATOM      9  C   UNL     1      32.985 -13.852 -25.279  0.00  0.00    +0.015 C 
ATOM     10  C   UNL     1      33.115 -16.401 -26.373  0.00  0.00    +0.007 C 
ATOM     11  C   UNL     1      32.349 -14.124 -26.492  0.00  0.00    +0.001 C 
ATOM     12  C   UNL     1      32.408 -15.401 -27.035  0.00  0.00    +0.001 C 
ENDROOT
BRANCH   4  13
ATOM     13  C   UNL     1      34.908 -18.585 -21.998  0.00  0.00    -0.008 C 
ATOM     14  C   UNL     1      36.270 -18.291 -21.983  0.00  0.00    -0.000 C 
ATOM     15  C   UNL     1      34.399 -19.594 -21.184  0.00  0.00    -0.000 C 
ATOM     16  C   UNL     1      37.127 -19.011 -21.150  0.00  0.00    +0.037 C 
ATOM     17  C   UNL     1      35.256 -20.314 -20.352  0.00  0.00    +0.037 C 
ATOM     18  C   UNL     1      36.620 -20.021 -20.335  0.00  0.00    +0.139 C 
BRANCH  18  19
ATOM     19  O   UNL     1      37.455 -20.726 -19.522  0.00  0.00    -0.471 OA
ATOM     20  C   UNL     1      36.851 -21.524 -18.506  0.00  0.00    +0.252 C 
ENDBRANCH  18  19
ENDBRANCH   4  13
BRANCH   5  21
ATOM     21  O   UNL     1      32.931 -16.873 -20.912  0.00  0.00    -0.441 OA
BRANCH  21  23
ATOM     22  O   UNL     1      30.668 -16.682 -20.487  0.00  0.00    -0.250 OA
ATOM     23  C   UNL     1      31.806 -16.231 -20.465  0.00  0.00    +0.318 C 
ATOM     24  C   UNL     1      32.162 -14.875 -19.936  0.00  0.00    +0.121 C 
ENDBRANCH  21  23
ENDBRANCH   5  21
BRANCH   3  25
ATOM     25  C   UNL     1      34.912 -13.206 -23.204  0.00  0.00    +0.076 C 
BRANCH  25  26
ATOM     26  C   UNL     1      33.881 -12.098 -23.363  0.00  0.00    -0.055 C 
BRANCH  26  27
ATOM     27  N   UNL     1      34.510 -10.894 -23.890  0.00  0.00    +0.385 N 
ATOM     28  C   UNL     1      34.739 -11.019 -25.331  0.00  0.00    -0.101 C 
ATOM     29  C   UNL     1      33.686  -9.717 -23.609  0.00  0.00    -0.101 C 
ATOM     30  H   UNL     1      35.411 -10.777 -23.427  0.00  0.00    -0.080 HD
ENDBRANCH  26  27
ENDBRANCH  25  26
ENDBRANCH   3  25
TORSDOF 7
ENDMDL
MODEL 8
REMARK VINA RESULT:      -3.1     10.279     13.420
REMARK  Name = 39186
REMARK  7 active torsions:
REMARK  status: ('A' for Active; 'I' for Inactive)
REMARK    1  A    between atoms: N_3  and  C_25
REMARK    2  A    between atoms: C_4  and  C_13
REMARK    3  A    between atoms: C_5  and  O_21
REMARK    4  A    between atoms: C_18  and  O_19
REMARK    5  A    between atoms: O_21  and  C_23
REMARK    6  A    between atoms: C_25  and  C_26
REMARK    7  A    between atoms: C_26  and  N_27
REMARK                            x       y       z     vdW  Elec       q    Type
REMARK                         _______ _______ _______ _____ _____    ______ ____
ROOT
ATOM      1  S   UNL     1      32.803 -13.291 -21.091  0.00  0.00    -0.105 S 
ATOM      2  O   UNL     1      34.914 -14.005 -24.575  0.00  0.00    -0.271 OA
ATOM      3  N   UNL     1      34.293 -15.471 -22.882  0.00  0.00    -0.257 N 
ATOM      4  C   UNL     1      32.300 -12.824 -22.792  0.00  0.00    +0.123 C 
ATOM      5  C   UNL     1      32.633 -13.883 -23.856  0.00  0.00    +0.259 C 
ATOM      6  C   UNL     1      34.058 -14.426 -23.792  0.00  0.00    +0.271 C 
ATOM      7  C   UNL     1      33.336 -15.936 -21.916  0.00  0.00    +0.059 C 
ATOM      8  C   UNL     1      32.552 -15.061 -21.136  0.00  0.00    +0.039 C 
ATOM      9  C   UNL     1      33.190 -17.322 -21.717  0.00  0.00    +0.015 C 
ATOM     10  C   UNL     1      31.627 -15.584 -20.216  0.00  0.00    +0.007 C 
ATOM     11  C   UNL     1      32.262 -17.829 -20.806  0.00  0.00    +0.001 C 
ATOM     12  C   UNL     1      31.475 -16.960 -20.061  0.00  0.00    +0.001 C 
ENDROOT
BRANCH   4  13
ATOM     13  C   UNL     1      32.809 -11.427 -23.124  0.00  0.00    -0.008 C 
ATOM     14  C   UNL     1      32.157 -10.311 -22.606  0.00  0.00    -0.000 C 
ATOM     15  C   UNL     1      33.926 -11.273 -23.942  0.00  0.00    -0.000 C 
ATOM     16  C   UNL     1      32.625  -9.032 -22.908  0.00  0.00    +0.037 C 
ATOM     17  C   UNL     1      34.393  -9.994 -24.244  0.00  0.00    +0.037 C 
ATOM     18  C   UNL     1      33.743  -8.874 -23.727  0.00  0.00    +0.139 C 
BRANCH  18  19
ATOM     19  O   UNL     1      34.199  -7.626 -24.024  0.00  0.00    -0.471 OA
ATOM     20  C   UNL     1      33.221  -6.602 -24.196  0.00  0.00    +0.252 C 
ENDBRANCH  18  19
ENDBRANCH   4  13
BRANCH   5  21
ATOM     21  O   UNL     1      32.426 -13.354 -25.163  0.00  0.00    -0.441 OA
BRANCH  21  23
ATOM     22  O   UNL     1      32.554 -15.400 -26.228  0.00  0.00    -0.250 OA
ATOM     23  C   UNL     1      32.732 -14.190 -26.205  0.00  0.00    +0.318 C 
ATOM     24  C   UNL     1      33.329 -13.407 -27.335  0.00  0.00    +0.121 C 
ENDBRANCH  21  23
ENDBRANCH   5  21
BRANCH   3  25
ATOM     25  C   UNL     1      35.551 -16.208 -22.992  0.00  0.00    +0.076 C 
BRANCH  25  26
ATOM     26  C   UNL     1      35.492 -17.235 -24.113  0.00  0.00    -0.055 C 
BRANCH  26  27
ATOM     27  N   UNL     1      35.955 -18.532 -23.637  0.00  0.00    +0.385 N 
ATOM     28  C   UNL     1      36.392 -18.445 -22.243  0.00  0.00    -0.101 C 
ATOM     29  C   UNL     1      34.900 -19.538 -23.776  0.00  0.00    -0.101 C 
ATOM     30  H   UNL     1      36.750 -18.815 -24.210  0.00  0.00    -0.080 HD
ENDBRANCH  26  27
ENDBRANCH  25  26
ENDBRANCH   3  25
TORSDOF 7
ENDMDL
