MODEL 1
REMARK VINA RESULT:     -10.8      0.000      0.000
REMARK  Name = 446241
REMARK  5 active torsions:
REMARK  status: ('A' for Active; 'I' for Inactive)
REMARK    1  A    between atoms: N_2  and  C_17
REMARK    2  A    between atoms: C_3  and  C_5
REMARK    3  A    between atoms: C_6  and  S_11
REMARK    4  A    between atoms: S_11  and  N_14
REMARK    5  A    between atoms: C_17  and  C_21
REMARK                            x       y       z     vdW  Elec       q    Type
REMARK                         _______ _______ _______ _____ _____    ______ ____
ROOT
ATOM      1  O   UNL     1      36.819 -18.293 -22.113  0.00  0.00    -0.270 OA
ATOM      2  N   UNL     1      34.665 -17.439 -22.041  0.00  0.00    -0.297 N 
ATOM      3  C   UNL     1      35.642 -18.387 -21.722  0.00  0.00    +0.246 C 
ATOM      4  H   UNL     1      33.753 -17.576 -21.697  0.00  0.00    +0.150 HD
ENDROOT
BRANCH   3   5
ATOM      5  C   UNL     1      35.221 -19.525 -20.920  0.00  0.00    +0.053 C 
ATOM      6  C   UNL     1      34.414 -21.708 -19.383  0.00  0.00    +0.122 C 
ATOM      7  C   UNL     1      36.175 -20.343 -20.314  0.00  0.00    +0.006 C 
ATOM      8  C   UNL     1      33.864 -19.800 -20.756  0.00  0.00    +0.006 C 
ATOM      9  C   UNL     1      35.772 -21.434 -19.545  0.00  0.00    +0.020 C 
ATOM     10  C   UNL     1      33.459 -20.891 -19.988  0.00  0.00    +0.020 C 
BRANCH   6  11
ATOM     11  S   UNL     1      33.908 -23.074 -18.419  0.00  0.00    +0.057 S 
ATOM     12  O   UNL     1      33.800 -24.236 -19.290  0.00  0.00    -0.153 OA
ATOM     13  O   UNL     1      34.745 -23.137 -17.230  0.00  0.00    -0.153 OA
BRANCH  11  14
ATOM     14  N   UNL     1      32.337 -22.584 -17.959  0.00  0.00    -0.203 NA
ATOM     15  H   UNL     1      31.663 -23.295 -18.240  0.00  0.00    +0.144 HD
ATOM     16  H   UNL     1      32.109 -21.700 -18.415  0.00  0.00    +0.144 HD
ENDBRANCH  11  14
ENDBRANCH   6  11
ENDBRANCH   3   5
BRANCH   2  17
ATOM     17  C   UNL     1      34.921 -16.268 -22.848  0.00  0.00    +0.121 C 
BRANCH  17  21
ATOM     18  F   UNL     1      34.389 -15.395 -20.216  0.00  0.00    -0.204 F 
ATOM     19  F   UNL     1      33.510 -14.868 -24.852  0.00  0.00    -0.204 F 
ATOM     20  F   UNL     1      31.342 -12.090 -21.694  0.00  0.00    -0.204 F 
ATOM     21  C   UNL     1      33.966 -15.151 -22.540  0.00  0.00    +0.053 C 
ATOM     22  C   UNL     1      33.752 -14.775 -21.219  0.00  0.00    +0.142 C 
ATOM     23  C   UNL     1      33.305 -14.506 -23.578  0.00  0.00    +0.142 C 
ATOM     24  C   UNL     1      32.863 -13.738 -20.933  0.00  0.00    +0.059 C 
ATOM     25  C   UNL     1      32.416 -13.469 -23.291  0.00  0.00    +0.059 C 
ATOM     26  C   UNL     1      32.196 -13.085 -21.969  0.00  0.00    +0.145 C 
ENDBRANCH  17  21
ENDBRANCH   2  17
TORSDOF 5
ENDMDL
MODEL 2
REMARK VINA RESULT:     -10.8      0.022      1.997
REMARK  Name = 446241
REMARK  5 active torsions:
REMARK  status: ('A' for Active; 'I' for Inactive)
REMARK    1  A    between atoms: N_2  and  C_17
REMARK    2  A    between atoms: C_3  and  C_5
REMARK    3  A    between atoms: C_6  and  S_11
REMARK    4  A    between atoms: S_11  and  N_14
REMARK    5  A    between atoms: C_17  and  C_21
REMARK                            x       y       z     vdW  Elec       q    Type
REMARK                         _______ _______ _______ _____ _____    ______ ____
ROOT
ATOM      1  O   UNL     1      36.820 -18.293 -22.116  0.00  0.00    -0.270 OA
ATOM      2  N   UNL     1      34.670 -17.430 -22.028  0.00  0.00    -0.297 N 
ATOM      3  C   UNL     1      35.645 -18.383 -21.716  0.00  0.00    +0.246 C 
ATOM      4  H   UNL     1      33.759 -17.564 -21.678  0.00  0.00    +0.150 HD
ENDROOT
BRANCH   3   5
ATOM      5  C   UNL     1      35.225 -19.520 -20.912  0.00  0.00    +0.053 C 
ATOM      6  C   UNL     1      34.421 -21.699 -19.368  0.00  0.00    +0.122 C 
ATOM      7  C   UNL     1      33.868 -19.795 -20.747  0.00  0.00    +0.006 C 
ATOM      8  C   UNL     1      36.180 -20.335 -20.305  0.00  0.00    +0.006 C 
ATOM      9  C   UNL     1      33.465 -20.884 -19.975  0.00  0.00    +0.020 C 
ATOM     10  C   UNL     1      35.778 -21.425 -19.532  0.00  0.00    +0.020 C 
BRANCH   6  11
ATOM     11  S   UNL     1      33.917 -23.064 -18.403  0.00  0.00    +0.057 S 
ATOM     12  O   UNL     1      33.803 -24.226 -19.274  0.00  0.00    -0.153 OA
ATOM     13  O   UNL     1      34.760 -23.130 -17.217  0.00  0.00    -0.153 OA
BRANCH  11  14
ATOM     14  N   UNL     1      32.350 -22.572 -17.935  0.00  0.00    -0.203 NA
ATOM     15  H   UNL     1      31.688 -22.789 -18.680  0.00  0.00    +0.144 HD
ATOM     16  H   UNL     1      32.347 -21.566 -17.761  0.00  0.00    +0.144 HD
ENDBRANCH  11  14
ENDBRANCH   6  11
ENDBRANCH   3   5
BRANCH   2  17
ATOM     17  C   UNL     1      34.925 -16.260 -22.836  0.00  0.00    +0.121 C 
BRANCH  17  21
ATOM     18  F   UNL     1      33.490 -14.900 -24.852  0.00  0.00    -0.204 F 
ATOM     19  F   UNL     1      34.398 -15.357 -20.214  0.00  0.00    -0.204 F 
ATOM     20  F   UNL     1      31.318 -12.096 -21.720  0.00  0.00    -0.204 F 
ATOM     21  C   UNL     1      33.961 -15.148 -22.538  0.00  0.00    +0.053 C 
ATOM     22  C   UNL     1      33.289 -14.523 -23.581  0.00  0.00    +0.142 C 
ATOM     23  C   UNL     1      33.751 -14.755 -21.221  0.00  0.00    +0.142 C 
ATOM     24  C   UNL     1      32.394 -13.489 -23.304  0.00  0.00    +0.059 C 
ATOM     25  C   UNL     1      32.856 -13.721 -20.944  0.00  0.00    +0.059 C 
ATOM     26  C   UNL     1      32.177 -13.088 -21.986  0.00  0.00    +0.145 C 
ENDBRANCH  17  21
ENDBRANCH   2  17
TORSDOF 5
ENDMDL
MODEL 3
REMARK VINA RESULT:     -10.7      4.809      7.372
REMARK  Name = 446241
REMARK  5 active torsions:
REMARK  status: ('A' for Active; 'I' for Inactive)
REMARK    1  A    between atoms: N_2  and  C_17
REMARK    2  A    between atoms: C_3  and  C_5
REMARK    3  A    between atoms: C_6  and  S_11
REMARK    4  A    between atoms: S_11  and  N_14
REMARK    5  A    between atoms: C_17  and  C_21
REMARK                            x       y       z     vdW  Elec       q    Type
REMARK                         _______ _______ _______ _____ _____    ______ ____
ROOT
ATOM      1  O   UNL     1      32.439 -23.458 -16.653  0.00  0.00    -0.270 OA
ATOM      2  N   UNL     1      34.369 -22.685 -17.676  0.00  0.00    -0.297 N 
ATOM      3  C   UNL     1      33.656 -23.211 -16.595  0.00  0.00    +0.246 C 
ATOM      4  H   UNL     1      35.332 -22.513 -17.561  0.00  0.00    +0.150 HD
ENDROOT
BRANCH   3   5
ATOM      5  C   UNL     1      34.397 -23.441 -15.364  0.00  0.00    +0.053 C 
ATOM      6  C   UNL     1      35.817 -23.884 -13.004  0.00  0.00    +0.122 C 
ATOM      7  C   UNL     1      35.719 -23.012 -15.255  0.00  0.00    +0.006 C 
ATOM      8  C   UNL     1      33.785 -24.092 -14.293  0.00  0.00    +0.006 C 
ATOM      9  C   UNL     1      36.430 -23.233 -14.075  0.00  0.00    +0.020 C 
ATOM     10  C   UNL     1      34.495 -24.313 -13.113  0.00  0.00    +0.020 C 
BRANCH   6  11
ATOM     11  S   UNL     1      36.705 -24.159 -11.527  0.00  0.00    +0.057 S 
ATOM     12  O   UNL     1      37.662 -25.232 -11.759  0.00  0.00    -0.153 OA
ATOM     13  O   UNL     1      37.167 -22.876 -11.017  0.00  0.00    -0.153 OA
BRANCH  11  14
ATOM     14  N   UNL     1      35.465 -24.740 -10.505  0.00  0.00    -0.203 NA
ATOM     15  H   UNL     1      35.244 -25.705 -10.752  0.00  0.00    +0.144 HD
ATOM     16  H   UNL     1      34.633 -24.161 -10.616  0.00  0.00    +0.144 HD
ENDBRANCH  11  14
ENDBRANCH   6  11
ENDBRANCH   3   5
BRANCH   2  17
ATOM     17  C   UNL     1      33.771 -22.380 -18.956  0.00  0.00    +0.121 C 
BRANCH  17  21
ATOM     18  F   UNL     1      32.458 -20.444 -20.538  0.00  0.00    -0.204 F 
ATOM     19  F   UNL     1      36.575 -22.084 -18.834  0.00  0.00    -0.204 F 
ATOM     20  F   UNL     1      36.517 -18.277 -21.645  0.00  0.00    -0.204 F 
ATOM     21  C   UNL     1      34.504 -21.284 -19.673  0.00  0.00    +0.053 C 
ATOM     22  C   UNL     1      33.793 -20.365 -20.436  0.00  0.00    +0.142 C 
ATOM     23  C   UNL     1      35.888 -21.199 -19.569  0.00  0.00    +0.142 C 
ATOM     24  C   UNL     1      34.474 -19.347 -21.103  0.00  0.00    +0.059 C 
ATOM     25  C   UNL     1      36.569 -20.181 -20.237  0.00  0.00    +0.059 C 
ATOM     26  C   UNL     1      35.862 -19.255 -21.004  0.00  0.00    +0.145 C 
ENDBRANCH  17  21
ENDBRANCH   2  17
TORSDOF 5
ENDMDL
MODEL 4
REMARK VINA RESULT:     -10.7      4.805      7.294
REMARK  Name = 446241
REMARK  5 active torsions:
REMARK  status: ('A' for Active; 'I' for Inactive)
REMARK    1  A    between atoms: N_2  and  C_17
REMARK    2  A    between atoms: C_3  and  C_5
REMARK    3  A    between atoms: C_6  and  S_11
REMARK    4  A    between atoms: S_11  and  N_14
REMARK    5  A    between atoms: C_17  and  C_21
REMARK                            x       y       z     vdW  Elec       q    Type
REMARK                         _______ _______ _______ _____ _____    ______ ____
ROOT
ATOM      1  O   UNL     1      32.422 -23.350 -16.621  0.00  0.00    -0.270 OA
ATOM      2  N   UNL     1      34.374 -22.683 -17.679  0.00  0.00    -0.297 N 
ATOM      3  C   UNL     1      33.650 -23.155 -16.580  0.00  0.00    +0.246 C 
ATOM      4  H   UNL     1      35.344 -22.552 -17.577  0.00  0.00    +0.150 HD
ENDROOT
BRANCH   3   5
ATOM      5  C   UNL     1      34.393 -23.393 -15.352  0.00  0.00    +0.053 C 
ATOM      6  C   UNL     1      35.818 -23.847 -12.998  0.00  0.00    +0.122 C 
ATOM      7  C   UNL     1      33.763 -23.986 -14.259  0.00  0.00    +0.006 C 
ATOM      8  C   UNL     1      35.736 -23.027 -15.268  0.00  0.00    +0.006 C 
ATOM      9  C   UNL     1      34.475 -24.213 -13.081  0.00  0.00    +0.020 C 
ATOM     10  C   UNL     1      36.449 -23.254 -14.091  0.00  0.00    +0.020 C 
BRANCH   6  11
ATOM     11  S   UNL     1      36.711 -24.133 -11.525  0.00  0.00    +0.057 S 
ATOM     12  O   UNL     1      37.663 -25.207 -11.765  0.00  0.00    -0.153 OA
ATOM     13  O   UNL     1      37.179 -22.853 -11.011  0.00  0.00    -0.153 OA
BRANCH  11  14
ATOM     14  N   UNL     1      35.472 -24.714 -10.501  0.00  0.00    -0.203 NA
ATOM     15  H   UNL     1      35.810 -24.742  -9.539  0.00  0.00    +0.144 HD
ATOM     16  H   UNL     1      35.202 -25.654 -10.794  0.00  0.00    +0.144 HD
ENDBRANCH  11  14
ENDBRANCH   6  11
ENDBRANCH   3   5
BRANCH   2  17
ATOM     17  C   UNL     1      33.775 -22.378 -18.959  0.00  0.00    +0.121 C 
BRANCH  17  21
ATOM     18  F   UNL     1      36.580 -22.081 -18.845  0.00  0.00    -0.204 F 
ATOM     19  F   UNL     1      32.456 -20.436 -20.527  0.00  0.00    -0.204 F 
ATOM     20  F   UNL     1      36.509 -18.258 -21.632  0.00  0.00    -0.204 F 
ATOM     21  C   UNL     1      34.505 -21.278 -19.673  0.00  0.00    +0.053 C 
ATOM     22  C   UNL     1      35.889 -21.192 -19.573  0.00  0.00    +0.142 C 
ATOM     23  C   UNL     1      33.790 -20.355 -20.429  0.00  0.00    +0.142 C 
ATOM     24  C   UNL     1      36.567 -20.169 -20.236  0.00  0.00    +0.059 C 
ATOM     25  C   UNL     1      34.469 -19.332 -21.092  0.00  0.00    +0.059 C 
ATOM     26  C   UNL     1      35.857 -19.240 -20.995  0.00  0.00    +0.145 C 
ENDBRANCH  17  21
ENDBRANCH   2  17
TORSDOF 5
ENDMDL
MODEL 5
REMARK VINA RESULT:     -10.3      1.751      2.886
REMARK  Name = 446241
REMARK  5 active torsions:
REMARK  status: ('A' for Active; 'I' for Inactive)
REMARK    1  A    between atoms: N_2  and  C_17
REMARK    2  A    between atoms: C_3  and  C_5
REMARK    3  A    between atoms: C_6  and  S_11
REMARK    4  A    between atoms: S_11  and  N_14
REMARK    5  A    between atoms: C_17  and  C_21
REMARK                            x       y       z     vdW  Elec       q    Type
REMARK                         _______ _______ _______ _____ _____    ______ ____
ROOT
ATOM      1  O   UNL     1      37.089 -18.630 -21.965  0.00  0.00    -0.270 OA
ATOM      2  N   UNL     1      35.159 -17.386 -21.647  0.00  0.00    -0.297 N 
ATOM      3  C   UNL     1      35.948 -18.529 -21.480  0.00  0.00    +0.246 C 
ATOM      4  H   UNL     1      34.264 -17.374 -21.236  0.00  0.00    +0.150 HD
ENDROOT
BRANCH   3   5
ATOM      5  C   UNL     1      35.367 -19.629 -20.727  0.00  0.00    +0.053 C 
ATOM      6  C   UNL     1      34.254 -21.738 -19.280  0.00  0.00    +0.122 C 
ATOM      7  C   UNL     1      33.983 -19.797 -20.691  0.00  0.00    +0.006 C 
ATOM      8  C   UNL     1      36.194 -20.516 -20.038  0.00  0.00    +0.006 C 
ATOM      9  C   UNL     1      33.425 -20.851 -19.968  0.00  0.00    +0.020 C 
ATOM     10  C   UNL     1      35.637 -21.571 -19.314  0.00  0.00    +0.020 C 
BRANCH   6  11
ATOM     11  S   UNL     1      33.557 -23.059 -18.375  0.00  0.00    +0.057 S 
ATOM     12  O   UNL     1      32.222 -22.667 -17.944  0.00  0.00    -0.153 OA
ATOM     13  O   UNL     1      33.739 -24.287 -19.134  0.00  0.00    -0.153 OA
BRANCH  11  14
ATOM     14  N   UNL     1      34.586 -23.098 -17.011  0.00  0.00    -0.203 NA
ATOM     15  H   UNL     1      35.310 -22.388 -17.111  0.00  0.00    +0.144 HD
ATOM     16  H   UNL     1      35.020 -24.019 -16.940  0.00  0.00    +0.144 HD
ENDBRANCH  11  14
ENDBRANCH   6  11
ENDBRANCH   3   5
BRANCH   2  17
ATOM     17  C   UNL     1      35.585 -16.222 -22.389  0.00  0.00    +0.121 C 
BRANCH  17  21
ATOM     18  F   UNL     1      35.345 -18.054 -24.524  0.00  0.00    -0.204 F 
ATOM     19  F   UNL     1      34.052 -13.871 -22.687  0.00  0.00    -0.204 F 
ATOM     20  F   UNL     1      32.324 -15.264 -26.867  0.00  0.00    -0.204 F 
ATOM     21  C   UNL     1      34.714 -15.967 -23.584  0.00  0.00    +0.053 C 
ATOM     22  C   UNL     1      34.644 -16.913 -24.599  0.00  0.00    +0.142 C 
ATOM     23  C   UNL     1      33.985 -14.785 -23.665  0.00  0.00    +0.142 C 
ATOM     24  C   UNL     1      33.835 -16.676 -25.711  0.00  0.00    +0.059 C 
ATOM     25  C   UNL     1      33.176 -14.547 -24.777  0.00  0.00    +0.059 C 
ATOM     26  C   UNL     1      33.101 -15.493 -25.799  0.00  0.00    +0.145 C 
ENDBRANCH  17  21
ENDBRANCH   2  17
TORSDOF 5
ENDMDL
MODEL 6
REMARK VINA RESULT:     -10.3      1.773      2.592
REMARK  Name = 446241
REMARK  5 active torsions:
REMARK  status: ('A' for Active; 'I' for Inactive)
REMARK    1  A    between atoms: N_2  and  C_17
REMARK    2  A    between atoms: C_3  and  C_5
REMARK    3  A    between atoms: C_6  and  S_11
REMARK    4  A    between atoms: S_11  and  N_14
REMARK    5  A    between atoms: C_17  and  C_21
REMARK                            x       y       z     vdW  Elec       q    Type
REMARK                         _______ _______ _______ _____ _____    ______ ____
ROOT
ATOM      1  O   UNL     1      37.138 -18.643 -21.858  0.00  0.00    -0.270 OA
ATOM      2  N   UNL     1      35.171 -17.438 -21.632  0.00  0.00    -0.297 N 
ATOM      3  C   UNL     1      35.975 -18.561 -21.422  0.00  0.00    +0.246 C 
ATOM      4  H   UNL     1      34.260 -17.440 -21.258  0.00  0.00    +0.150 HD
ENDROOT
BRANCH   3   5
ATOM      5  C   UNL     1      35.387 -19.666 -20.680  0.00  0.00    +0.053 C 
ATOM      6  C   UNL     1      34.259 -21.785 -19.260  0.00  0.00    +0.122 C 
ATOM      7  C   UNL     1      36.209 -20.587 -20.032  0.00  0.00    +0.006 C 
ATOM      8  C   UNL     1      34.001 -19.804 -20.618  0.00  0.00    +0.006 C 
ATOM      9  C   UNL     1      35.645 -21.647 -19.322  0.00  0.00    +0.020 C 
ATOM     10  C   UNL     1      33.436 -20.864 -19.908  0.00  0.00    +0.020 C 
BRANCH   6  11
ATOM     11  S   UNL     1      33.552 -23.110 -18.369  0.00  0.00    +0.057 S 
ATOM     12  O   UNL     1      32.221 -22.713 -17.933  0.00  0.00    -0.153 OA
ATOM     13  O   UNL     1      33.725 -24.332 -19.142  0.00  0.00    -0.153 OA
BRANCH  11  14
ATOM     14  N   UNL     1      34.582 -23.173 -17.007  0.00  0.00    -0.203 NA
ATOM     15  H   UNL     1      34.224 -23.858 -16.342  0.00  0.00    +0.144 HD
ATOM     16  H   UNL     1      34.616 -22.254 -16.564  0.00  0.00    +0.144 HD
ENDBRANCH  11  14
ENDBRANCH   6  11
ENDBRANCH   3   5
BRANCH   2  17
ATOM     17  C   UNL     1      35.602 -16.272 -22.369  0.00  0.00    +0.121 C 
BRANCH  17  21
ATOM     18  F   UNL     1      34.141 -13.880 -22.708  0.00  0.00    -0.204 F 
ATOM     19  F   UNL     1      35.302 -18.133 -24.470  0.00  0.00    -0.204 F 
ATOM     20  F   UNL     1      32.359 -15.297 -26.856  0.00  0.00    -0.204 F 
ATOM     21  C   UNL     1      34.737 -16.011 -23.568  0.00  0.00    +0.053 C 
ATOM     22  C   UNL     1      34.045 -14.810 -23.668  0.00  0.00    +0.142 C 
ATOM     23  C   UNL     1      34.635 -16.974 -24.566  0.00  0.00    +0.142 C 
ATOM     24  C   UNL     1      33.240 -14.568 -24.782  0.00  0.00    +0.059 C 
ATOM     25  C   UNL     1      33.830 -16.732 -25.679  0.00  0.00    +0.059 C 
ATOM     26  C   UNL     1      33.132 -15.529 -25.787  0.00  0.00    +0.145 C 
ENDBRANCH  17  21
ENDBRANCH   2  17
TORSDOF 5
ENDMDL
MODEL 7
REMARK VINA RESULT:      -9.9      4.091      5.992
REMARK  Name = 446241
REMARK  5 active torsions:
REMARK  status: ('A' for Active; 'I' for Inactive)
REMARK    1  A    between atoms: N_2  and  C_17
REMARK    2  A    between atoms: C_3  and  C_5
REMARK    3  A    between atoms: C_6  and  S_11
REMARK    4  A    between atoms: S_11  and  N_14
REMARK    5  A    between atoms: C_17  and  C_21
REMARK                            x       y       z     vdW  Elec       q    Type
REMARK                         _______ _______ _______ _____ _____    ______ ____
ROOT
ATOM      1  O   UNL     1      33.096 -12.214 -23.823  0.00  0.00    -0.270 OA
ATOM      2  N   UNL     1      31.558 -12.590 -22.130  0.00  0.00    -0.297 N 
ATOM      3  C   UNL     1      32.665 -12.940 -22.910  0.00  0.00    +0.246 C 
ATOM      4  H   UNL     1      31.271 -13.213 -21.423  0.00  0.00    +0.150 HD
ENDROOT
BRANCH   3   5
ATOM      5  C   UNL     1      33.293 -14.222 -22.628  0.00  0.00    +0.053 C 
ATOM      6  C   UNL     1      34.497 -16.679 -22.088  0.00  0.00    +0.122 C 
ATOM      7  C   UNL     1      34.215 -14.759 -23.526  0.00  0.00    +0.006 C 
ATOM      8  C   UNL     1      32.974 -14.914 -21.460  0.00  0.00    +0.006 C 
ATOM      9  C   UNL     1      34.817 -15.988 -23.256  0.00  0.00    +0.020 C 
ATOM     10  C   UNL     1      33.575 -16.143 -21.190  0.00  0.00    +0.020 C 
BRANCH   6  11
ATOM     11  S   UNL     1      35.252 -18.217 -21.749  0.00  0.00    +0.057 S 
ATOM     12  O   UNL     1      35.852 -18.152 -20.424  0.00  0.00    -0.153 OA
ATOM     13  O   UNL     1      34.305 -19.277 -22.062  0.00  0.00    -0.153 OA
BRANCH  11  14
ATOM     14  N   UNL     1      36.498 -18.232 -22.918  0.00  0.00    -0.203 NA
ATOM     15  H   UNL     1      36.121 -18.537 -23.814  0.00  0.00    +0.144 HD
ATOM     16  H   UNL     1      37.234 -18.876 -22.622  0.00  0.00    +0.144 HD
ENDBRANCH  11  14
ENDBRANCH   6  11
ENDBRANCH   3   5
BRANCH   2  17
ATOM     17  C   UNL     1      30.813 -11.364 -22.304  0.00  0.00    +0.121 C 
BRANCH  17  21
ATOM     18  F   UNL     1      30.950 -11.166 -19.491  0.00  0.00    -0.204 F 
ATOM     19  F   UNL     1      31.997  -9.208 -23.687  0.00  0.00    -0.204 F 
ATOM     20  F   UNL     1      33.240  -7.029 -19.674  0.00  0.00    -0.204 F 
ATOM     21  C   UNL     1      31.462 -10.207 -21.601  0.00  0.00    +0.053 C 
ATOM     22  C   UNL     1      31.492 -10.175 -20.212  0.00  0.00    +0.142 C 
ATOM     23  C   UNL     1      32.026  -9.178 -22.347  0.00  0.00    +0.142 C 
ATOM     24  C   UNL     1      32.094  -9.098 -19.560  0.00  0.00    +0.059 C 
ATOM     25  C   UNL     1      32.628  -8.102 -21.695  0.00  0.00    +0.059 C 
ATOM     26  C   UNL     1      32.662  -8.062 -20.301  0.00  0.00    +0.145 C 
ENDBRANCH  17  21
ENDBRANCH   2  17
TORSDOF 5
ENDMDL
MODEL 8
REMARK VINA RESULT:      -9.9      3.972      6.151
REMARK  Name = 446241
REMARK  5 active torsions:
REMARK  status: ('A' for Active; 'I' for Inactive)
REMARK    1  A    between atoms: N_2  and  C_17
REMARK    2  A    between atoms: C_3  and  C_5
REMARK    3  A    between atoms: C_6  and  S_11
REMARK    4  A    between atoms: S_11  and  N_14
REMARK    5  A    between atoms: C_17  and  C_21
REMARK                            x       y       z     vdW  Elec       q    Type
REMARK                         _______ _______ _______ _____ _____    ______ ____
ROOT
ATOM      1  O   UNL     1      31.971 -12.638 -20.252  0.00  0.00    -0.270 OA
ATOM      2  N   UNL     1      32.254 -12.291 -22.527  0.00  0.00    -0.297 N 
ATOM      3  C   UNL     1      32.384 -13.042 -21.354  0.00  0.00    +0.246 C 
ATOM      4  H   UNL     1      32.604 -12.672 -23.365  0.00  0.00    +0.150 HD
ENDROOT
BRANCH   3   5
ATOM      5  C   UNL     1      33.054 -14.328 -21.464  0.00  0.00    +0.053 C 
ATOM      6  C   UNL     1      34.338 -16.795 -21.675  0.00  0.00    +0.122 C 
ATOM      7  C   UNL     1      34.113 -14.489 -22.357  0.00  0.00    +0.006 C 
ATOM      8  C   UNL     1      32.638 -15.401 -20.677  0.00  0.00    +0.006 C 
ATOM      9  C   UNL     1      34.756 -15.722 -22.463  0.00  0.00    +0.020 C 
ATOM     10  C   UNL     1      33.280 -16.635 -20.782  0.00  0.00    +0.020 C 
BRANCH   6  11
ATOM     11  S   UNL     1      35.143 -18.339 -21.806  0.00  0.00    +0.057 S 
ATOM     12  O   UNL     1      35.974 -18.526 -20.625  0.00  0.00    -0.153 OA
ATOM     13  O   UNL     1      34.156 -19.348 -22.162  0.00  0.00    -0.153 OA
BRANCH  11  14
ATOM     14  N   UNL     1      36.157 -18.064 -23.154  0.00  0.00    -0.203 NA
ATOM     15  H   UNL     1      35.588 -17.824 -23.965  0.00  0.00    +0.144 HD
ATOM     16  H   UNL     1      36.694 -18.909 -23.354  0.00  0.00    +0.144 HD
ENDBRANCH  11  14
ENDBRANCH   6  11
ENDBRANCH   3   5
BRANCH   2  17
ATOM     17  C   UNL     1      31.635 -10.986 -22.576  0.00  0.00    +0.121 C 
BRANCH  17  21
ATOM     18  F   UNL     1      33.625 -11.239 -24.563  0.00  0.00    -0.204 F 
ATOM     19  F   UNL     1      31.670  -8.526 -21.192  0.00  0.00    -0.204 F 
ATOM     20  F   UNL     1      35.363  -6.927 -23.681  0.00  0.00    -0.204 F 
ATOM     21  C   UNL     1      32.630  -9.902 -22.872  0.00  0.00    +0.053 C 
ATOM     22  C   UNL     1      33.584 -10.095 -23.864  0.00  0.00    +0.142 C 
ATOM     23  C   UNL     1      32.589  -8.714 -22.150  0.00  0.00    +0.142 C 
ATOM     24  C   UNL     1      34.509  -9.088 -24.138  0.00  0.00    +0.059 C 
ATOM     25  C   UNL     1      33.515  -7.707 -22.424  0.00  0.00    +0.059 C 
ATOM     26  C   UNL     1      34.475  -7.894 -23.418  0.00  0.00    +0.145 C 
ENDBRANCH  17  21
ENDBRANCH   2  17
TORSDOF 5
ENDMDL
MODEL 9
REMARK VINA RESULT:      -9.8      3.977      6.026
REMARK  Name = 446241
REMARK  5 active torsions:
REMARK  status: ('A' for Active; 'I' for Inactive)
REMARK    1  A    between atoms: N_2  and  C_17
REMARK    2  A    between atoms: C_3  and  C_5
REMARK    3  A    between atoms: C_6  and  S_11
REMARK    4  A    between atoms: S_11  and  N_14
REMARK    5  A    between atoms: C_17  and  C_21
REMARK                            x       y       z     vdW  Elec       q    Type
REMARK                         _______ _______ _______ _____ _____    ______ ____
ROOT
ATOM      1  O   UNL     1      31.973 -12.627 -20.259  0.00  0.00    -0.270 OA
ATOM      2  N   UNL     1      32.257 -12.282 -22.534  0.00  0.00    -0.297 N 
ATOM      3  C   UNL     1      32.386 -13.032 -21.361  0.00  0.00    +0.246 C 
ATOM      4  H   UNL     1      32.607 -12.663 -23.372  0.00  0.00    +0.150 HD
ENDROOT
BRANCH   3   5
ATOM      5  C   UNL     1      33.058 -14.317 -21.469  0.00  0.00    +0.053 C 
ATOM      6  C   UNL     1      34.344 -16.784 -21.677  0.00  0.00    +0.122 C 
ATOM      7  C   UNL     1      34.089 -14.491 -22.391  0.00  0.00    +0.006 C 
ATOM      8  C   UNL     1      32.670 -15.378 -20.651  0.00  0.00    +0.006 C 
ATOM      9  C   UNL     1      34.733 -15.724 -22.496  0.00  0.00    +0.020 C 
ATOM     10  C   UNL     1      33.313 -16.612 -20.755  0.00  0.00    +0.020 C 
BRANCH   6  11
ATOM     11  S   UNL     1      35.150 -18.327 -21.806  0.00  0.00    +0.057 S 
ATOM     12  O   UNL     1      35.964 -18.522 -20.615  0.00  0.00    -0.153 OA
ATOM     13  O   UNL     1      34.168 -19.333 -22.182  0.00  0.00    -0.153 OA
BRANCH  11  14
ATOM     14  N   UNL     1      36.183 -18.045 -23.138  0.00  0.00    -0.203 NA
ATOM     15  H   UNL     1      37.072 -17.673 -22.806  0.00  0.00    +0.144 HD
ATOM     16  H   UNL     1      35.747 -17.371 -23.770  0.00  0.00    +0.144 HD
ENDBRANCH  11  14
ENDBRANCH   6  11
ENDBRANCH   3   5
BRANCH   2  17
ATOM     17  C   UNL     1      31.637 -10.977 -22.585  0.00  0.00    +0.121 C 
BRANCH  17  21
ATOM     18  F   UNL     1      31.662  -8.516 -21.201  0.00  0.00    -0.204 F 
ATOM     19  F   UNL     1      33.638 -11.229 -24.559  0.00  0.00    -0.204 F 
ATOM     20  F   UNL     1      35.362  -6.911 -23.675  0.00  0.00    -0.204 F 
ATOM     21  C   UNL     1      32.632  -9.892 -22.875  0.00  0.00    +0.053 C 
ATOM     22  C   UNL     1      32.585  -8.705 -22.155  0.00  0.00    +0.142 C 
ATOM     23  C   UNL     1      33.591 -10.084 -23.863  0.00  0.00    +0.142 C 
ATOM     24  C   UNL     1      33.509  -7.695 -22.425  0.00  0.00    +0.059 C 
ATOM     25  C   UNL     1      34.516  -9.075 -24.134  0.00  0.00    +0.059 C 
ATOM     26  C   UNL     1      34.474  -7.880 -23.415  0.00  0.00    +0.145 C 
ENDBRANCH  17  21
ENDBRANCH   2  17
TORSDOF 5
ENDMDL
