MODEL 1
REMARK VINA RESULT:      -8.5      0.000      0.000
REMARK  Name = 19003
REMARK  5 active torsions:
REMARK  status: ('A' for Active; 'I' for Inactive)
REMARK    1  A    between atoms: N_2  and  CA_9
REMARK    2  A    between atoms: C_3  and  C_19
REMARK    3  A    between atoms: CA_10  and  C_16
REMARK    4  A    between atoms: C_16  and  O_17
REMARK    5  A    between atoms: C_19  and  N_25
REMARK                            x       y       z     vdW  Elec       q    Type
REMARK                         _______ _______ _______ _____ _____    ______ ____
ROOT
ATOM      1  O   UNL     1      36.079 -18.099 -20.400  0.00  0.00    -0.277 OA
ATOM      2  N   UNL     1      34.105 -17.216 -21.247  0.00  0.00    -0.298 N 
ATOM      3  C   UNL     1      35.039 -18.227 -21.045  0.00  0.00    +0.204 C 
ATOM      4  H   UNL     1      33.301 -17.417 -21.779  0.00  0.00    +0.150 HD
ENDROOT
BRANCH   2   9
ATOM      5  S   UNL     1      34.388 -15.116 -23.470  0.00  0.00    -0.118 S 
ATOM      6  O   UNL     1      31.917 -15.361 -19.830  0.00  0.00    -0.273 OA
ATOM      7  N   UNL     1      33.272 -14.150 -21.337  0.00  0.00    -0.260 N 
ATOM      8  C   UNL     1      34.570 -14.728 -21.690  0.00  0.00    +0.151 C 
ATOM      9  CA  UNL     1      34.264 -15.860 -20.701  0.00  0.00    +0.178 C 
ATOM     10  CA  UNL     1      32.415 -13.648 -22.392  0.00  0.00    +0.184 C 
ATOM     11  C   UNL     1      33.230 -13.677 -23.703  0.00  0.00    +0.068 C 
ATOM     12  C   UNL     1      32.932 -15.127 -20.447  0.00  0.00    +0.247 C 
ATOM     13  C   UNL     1      34.078 -12.423 -23.954  0.00  0.00    +0.013 C 
ATOM     14  C   UNL     1      32.332 -13.952 -24.911  0.00  0.00    +0.013 C 
BRANCH  10  16
ATOM     15  OXT UNL     1      31.614 -11.395 -22.726  0.00  0.00    -0.248 OA
ATOM     16  C   UNL     1      31.937 -12.296 -21.966  0.00  0.00    +0.333 C 
BRANCH  16  17
ATOM     17  O   UNL     1      31.914 -12.200 -20.615  0.00  0.00    -0.479 OA
ATOM     18  H   UNL     1      32.579 -11.714 -20.168  0.00  0.00    +0.295 HD
ENDBRANCH  16  17
ENDBRANCH  10  16
ENDBRANCH   2   9
BRANCH   3  19
ATOM     19  C   UNL     1      34.680 -19.533 -21.708  0.00  0.00    +0.022 C 
ATOM     20  C   UNL     1      35.579 -20.665 -21.188  0.00  0.00    -0.012 C 
ATOM     21  C   UNL     1      33.191 -19.851 -21.497  0.00  0.00    -0.012 C 
ATOM     22  C   UNL     1      35.248 -21.061 -19.747  0.00  0.00    -0.002 C 
ATOM     23  C   UNL     1      32.877 -20.253 -20.055  0.00  0.00    -0.002 C 
ATOM     24  C   UNL     1      33.769 -21.395 -19.580  0.00  0.00    -0.000 C 
BRANCH  19  25
ATOM     25  N   UNL     1      34.935 -19.326 -23.134  0.00  0.00    +0.388 N 
ATOM     26  H   UNL     1      34.051 -19.333 -23.643  0.00  0.00    -0.088 HD
ATOM     27  H   UNL     1      35.535 -20.073 -23.484  0.00  0.00    -0.088 HD
ATOM     28  H   UNL     1      35.398 -18.427 -23.269  0.00  0.00    -0.088 HD
ENDBRANCH  19  25
ENDBRANCH   3  19
TORSDOF 5
ENDMDL
MODEL 2
REMARK VINA RESULT:      -8.1     10.214     12.444
REMARK  Name = 19003
REMARK  5 active torsions:
REMARK  status: ('A' for Active; 'I' for Inactive)
REMARK    1  A    between atoms: N_2  and  CA_9
REMARK    2  A    between atoms: C_3  and  C_19
REMARK    3  A    between atoms: CA_10  and  C_16
REMARK    4  A    between atoms: C_16  and  O_17
REMARK    5  A    between atoms: C_19  and  N_25
REMARK                            x       y       z     vdW  Elec       q    Type
REMARK                         _______ _______ _______ _____ _____    ______ ____
ROOT
ATOM      1  O   UNL     1      32.327 -23.242 -16.218  0.00  0.00    -0.277 OA
ATOM      2  N   UNL     1      33.662 -23.163 -14.319  0.00  0.00    -0.298 N 
ATOM      3  C   UNL     1      32.449 -23.258 -14.994  0.00  0.00    +0.204 C 
ATOM      4  H   UNL     1      33.656 -23.186 -13.334  0.00  0.00    +0.150 HD
ENDROOT
BRANCH   2   9
ATOM      5  S   UNL     1      36.029 -23.563 -12.404  0.00  0.00    -0.118 S 
ATOM      6  O   UNL     1      35.042 -25.183 -16.381  0.00  0.00    -0.273 OA
ATOM      7  N   UNL     1      36.585 -24.301 -14.827  0.00  0.00    -0.260 N 
ATOM      8  C   UNL     1      36.224 -23.053 -14.151  0.00  0.00    +0.151 C 
ATOM      9  CA  UNL     1      34.952 -23.031 -15.010  0.00  0.00    +0.178 C 
ATOM     10  CA  UNL     1      37.096 -25.405 -14.041  0.00  0.00    +0.184 C 
ATOM     11  C   UNL     1      37.327 -24.883 -12.606  0.00  0.00    +0.068 C 
ATOM     12  C   UNL     1      35.475 -24.348 -15.619  0.00  0.00    +0.247 C 
ATOM     13  C   UNL     1      38.699 -24.237 -12.376  0.00  0.00    +0.013 C 
ATOM     14  C   UNL     1      37.085 -25.981 -11.568  0.00  0.00    +0.013 C 
BRANCH  10  16
ATOM     15  OXT UNL     1      38.726 -27.068 -14.680  0.00  0.00    -0.248 OA
ATOM     16  C   UNL     1      38.316 -25.918 -14.738  0.00  0.00    +0.333 C 
BRANCH  16  17
ATOM     17  O   UNL     1      38.914 -24.929 -15.445  0.00  0.00    -0.479 OA
ATOM     18  H   UNL     1      39.822 -24.995 -15.669  0.00  0.00    +0.295 HD
ENDBRANCH  16  17
ENDBRANCH  10  16
ENDBRANCH   2   9
BRANCH   3  19
ATOM     19  C   UNL     1      31.251 -23.372 -14.085  0.00  0.00    +0.022 C 
ATOM     20  C   UNL     1      30.065 -22.580 -14.656  0.00  0.00    -0.012 C 
ATOM     21  C   UNL     1      30.888 -24.848 -13.857  0.00  0.00    -0.012 C 
ATOM     22  C   UNL     1      29.457 -23.247 -15.893  0.00  0.00    -0.002 C 
ATOM     23  C   UNL     1      30.274 -25.498 -15.098  0.00  0.00    -0.002 C 
ATOM     24  C   UNL     1      29.085 -24.702 -15.623  0.00  0.00    -0.000 C 
BRANCH  19  25
ATOM     25  N   UNL     1      31.669 -22.773 -12.817  0.00  0.00    +0.388 N 
ATOM     26  H   UNL     1      31.260 -23.295 -12.042  0.00  0.00    -0.088 HD
ATOM     27  H   UNL     1      31.354 -21.804 -12.778  0.00  0.00    -0.088 HD
ATOM     28  H   UNL     1      32.687 -22.802 -12.746  0.00  0.00    -0.088 HD
ENDBRANCH  19  25
ENDBRANCH   3  19
TORSDOF 5
ENDMDL
MODEL 3
REMARK VINA RESULT:      -7.2      3.072      7.893
REMARK  Name = 19003
REMARK  5 active torsions:
REMARK  status: ('A' for Active; 'I' for Inactive)
REMARK    1  A    between atoms: N_2  and  CA_9
REMARK    2  A    between atoms: C_3  and  C_19
REMARK    3  A    between atoms: CA_10  and  C_16
REMARK    4  A    between atoms: C_16  and  O_17
REMARK    5  A    between atoms: C_19  and  N_25
REMARK                            x       y       z     vdW  Elec       q    Type
REMARK                         _______ _______ _______ _____ _____    ______ ____
ROOT
ATOM      1  O   UNL     1      33.531 -10.016 -23.259  0.00  0.00    -0.277 OA
ATOM      2  N   UNL     1      32.757 -12.182 -22.937  0.00  0.00    -0.298 N 
ATOM      3  C   UNL     1      32.673 -10.796 -22.851  0.00  0.00    +0.204 C 
ATOM      4  H   UNL     1      32.016 -12.723 -22.580  0.00  0.00    +0.150 HD
ENDROOT
BRANCH   2   9
ATOM      5  S   UNL     1      33.794 -14.445 -21.138  0.00  0.00    -0.118 S 
ATOM      6  O   UNL     1      32.799 -14.196 -25.424  0.00  0.00    -0.273 OA
ATOM      7  N   UNL     1      34.180 -14.931 -23.657  0.00  0.00    -0.260 N 
ATOM      8  C   UNL     1      34.625 -13.929 -22.685  0.00  0.00    +0.151 C 
ATOM      9  CA  UNL     1      33.905 -12.876 -23.538  0.00  0.00    +0.178 C 
ATOM     10  CA  UNL     1      33.646 -16.189 -23.175  0.00  0.00    +0.184 C 
ATOM     11  C   UNL     1      33.873 -16.234 -21.649  0.00  0.00    +0.068 C 
ATOM     12  C   UNL     1      33.516 -14.050 -24.459  0.00  0.00    +0.247 C 
ATOM     13  C   UNL     1      35.240 -16.787 -21.224  0.00  0.00    +0.013 C 
ATOM     14  C   UNL     1      32.755 -17.003 -20.942  0.00  0.00    +0.013 C 
BRANCH  10  16
ATOM     15  OXT UNL     1      33.975 -18.454 -23.944  0.00  0.00    -0.248 OA
ATOM     16  C   UNL     1      34.312 -17.279 -23.953  0.00  0.00    +0.333 C 
BRANCH  16  17
ATOM     17  O   UNL     1      35.350 -16.788 -24.672  0.00  0.00    -0.479 OA
ATOM     18  H   UNL     1      35.919 -17.373 -25.133  0.00  0.00    +0.295 HD
ENDBRANCH  16  17
ENDBRANCH  10  16
ENDBRANCH   2   9
BRANCH   3  19
ATOM     19  C   UNL     1      31.414 -10.301 -22.183  0.00  0.00    +0.022 C 
ATOM     20  C   UNL     1      31.706  -9.864 -20.740  0.00  0.00    -0.012 C 
ATOM     21  C   UNL     1      30.783  -9.164 -23.002  0.00  0.00    -0.012 C 
ATOM     22  C   UNL     1      32.507  -8.561 -20.674  0.00  0.00    -0.002 C 
ATOM     23  C   UNL     1      31.590  -7.866 -22.920  0.00  0.00    -0.002 C 
ATOM     24  C   UNL     1      31.840  -7.448 -21.475  0.00  0.00    -0.000 C 
BRANCH  19  25
ATOM     25  N   UNL     1      30.507 -11.450 -22.169  0.00  0.00    +0.388 N 
ATOM     26  H   UNL     1      30.023 -11.513 -23.065  0.00  0.00    -0.088 HD
ATOM     27  H   UNL     1      29.823 -11.333 -21.421  0.00  0.00    -0.088 HD
ATOM     28  H   UNL     1      31.042 -12.304 -22.010  0.00  0.00    -0.088 HD
ENDBRANCH  19  25
ENDBRANCH   3  19
TORSDOF 5
ENDMDL
MODEL 4
REMARK VINA RESULT:      -6.9      3.272      7.490
REMARK  Name = 19003
REMARK  5 active torsions:
REMARK  status: ('A' for Active; 'I' for Inactive)
REMARK    1  A    between atoms: N_2  and  CA_9
REMARK    2  A    between atoms: C_3  and  C_19
REMARK    3  A    between atoms: CA_10  and  C_16
REMARK    4  A    between atoms: C_16  and  O_17
REMARK    5  A    between atoms: C_19  and  N_25
REMARK                            x       y       z     vdW  Elec       q    Type
REMARK                         _______ _______ _______ _____ _____    ______ ____
ROOT
ATOM      1  O   UNL     1      33.777  -9.615 -23.184  0.00  0.00    -0.277 OA
ATOM      2  N   UNL     1      32.798 -11.721 -23.107  0.00  0.00    -0.298 N 
ATOM      3  C   UNL     1      32.813 -10.339 -22.938  0.00  0.00    +0.204 C 
ATOM      4  H   UNL     1      31.976 -12.214 -22.882  0.00  0.00    +0.150 HD
ENDROOT
BRANCH   2   9
ATOM      5  S   UNL     1      33.620 -13.960 -21.173  0.00  0.00    -0.118 S 
ATOM      6  O   UNL     1      32.927 -13.815 -25.522  0.00  0.00    -0.273 OA
ATOM      7  N   UNL     1      34.156 -14.543 -23.643  0.00  0.00    -0.260 N 
ATOM      8  C   UNL     1      34.574 -13.527 -22.674  0.00  0.00    +0.151 C 
ATOM      9  CA  UNL     1      33.956 -12.476 -23.606  0.00  0.00    +0.178 C 
ATOM     10  CA  UNL     1      33.541 -15.763 -23.161  0.00  0.00    +0.184 C 
ATOM     11  C   UNL     1      33.663 -15.766 -21.622  0.00  0.00    +0.068 C 
ATOM     12  C   UNL     1      33.583 -13.665 -24.515  0.00  0.00    +0.247 C 
ATOM     13  C   UNL     1      34.975 -16.356 -21.088  0.00  0.00    +0.013 C 
ATOM     14  C   UNL     1      32.470 -16.469 -20.970  0.00  0.00    +0.013 C 
BRANCH  10  16
ATOM     15  OXT UNL     1      33.859 -18.071 -23.797  0.00  0.00    -0.248 OA
ATOM     16  C   UNL     1      34.214 -16.903 -23.857  0.00  0.00    +0.333 C 
BRANCH  16  17
ATOM     17  O   UNL     1      35.282 -16.466 -24.568  0.00  0.00    -0.479 OA
ATOM     18  H   UNL     1      35.875 -17.083 -24.950  0.00  0.00    +0.295 HD
ENDBRANCH  16  17
ENDBRANCH  10  16
ENDBRANCH   2   9
BRANCH   3  19
ATOM     19  C   UNL     1      31.522  -9.775 -22.400  0.00  0.00    +0.022 C 
ATOM     20  C   UNL     1      30.592 -10.907 -21.938  0.00  0.00    -0.012 C 
ATOM     21  C   UNL     1      31.803  -8.776 -21.267  0.00  0.00    -0.012 C 
ATOM     22  C   UNL     1      31.081 -11.578 -20.653  0.00  0.00    -0.002 C 
ATOM     23  C   UNL     1      32.283  -9.462 -19.987  0.00  0.00    -0.002 C 
ATOM     24  C   UNL     1      31.324 -10.561 -19.543  0.00  0.00    -0.000 C 
BRANCH  19  25
ATOM     25  N   UNL     1      30.909  -9.072 -23.527  0.00  0.00    +0.388 N 
ATOM     26  H   UNL     1      31.636  -8.629 -24.090  0.00  0.00    -0.088 HD
ATOM     27  H   UNL     1      30.270  -8.359 -23.176  0.00  0.00    -0.088 HD
ATOM     28  H   UNL     1      30.392  -9.737 -24.103  0.00  0.00    -0.088 HD
ENDBRANCH  19  25
ENDBRANCH   3  19
TORSDOF 5
ENDMDL
MODEL 5
REMARK VINA RESULT:      -6.8      9.563     11.903
REMARK  Name = 19003
REMARK  5 active torsions:
REMARK  status: ('A' for Active; 'I' for Inactive)
REMARK    1  A    between atoms: N_2  and  CA_9
REMARK    2  A    between atoms: C_3  and  C_19
REMARK    3  A    between atoms: CA_10  and  C_16
REMARK    4  A    between atoms: C_16  and  O_17
REMARK    5  A    between atoms: C_19  and  N_25
REMARK                            x       y       z     vdW  Elec       q    Type
REMARK                         _______ _______ _______ _____ _____    ______ ____
ROOT
ATOM      1  O   UNL     1      32.567 -22.763 -14.117  0.00  0.00    -0.277 OA
ATOM      2  N   UNL     1      34.163 -23.054 -15.778  0.00  0.00    -0.298 N 
ATOM      3  C   UNL     1      32.868 -23.069 -15.269  0.00  0.00    +0.204 C 
ATOM      4  H   UNL     1      34.304 -23.316 -16.717  0.00  0.00    +0.150 HD
ENDROOT
BRANCH   2   9
ATOM      5  S   UNL     1      35.204 -25.379 -14.065  0.00  0.00    -0.118 S 
ATOM      6  O   UNL     1      37.158 -22.486 -16.753  0.00  0.00    -0.273 OA
ATOM      7  N   UNL     1      37.092 -23.741 -14.754  0.00  0.00    -0.260 N 
ATOM      8  C   UNL     1      35.865 -23.676 -13.957  0.00  0.00    +0.151 C 
ATOM      9  CA  UNL     1      35.332 -22.662 -14.977  0.00  0.00    +0.178 C 
ATOM     10  CA  UNL     1      37.687 -25.033 -15.027  0.00  0.00    +0.184 C 
ATOM     11  C   UNL     1      36.925 -26.080 -14.186  0.00  0.00    +0.068 C 
ATOM     12  C   UNL     1      36.680 -22.849 -15.701  0.00  0.00    +0.247 C 
ATOM     13  C   UNL     1      37.462 -26.264 -12.760  0.00  0.00    +0.013 C 
ATOM     14  C   UNL     1      36.862 -27.431 -14.900  0.00  0.00    +0.013 C 
BRANCH  10  16
ATOM     15  OXT UNL     1      39.626 -24.381 -13.745  0.00  0.00    -0.248 OA
ATOM     16  C   UNL     1      39.149 -24.919 -14.733  0.00  0.00    +0.333 C 
BRANCH  16  17
ATOM     17  O   UNL     1      39.882 -25.492 -15.719  0.00  0.00    -0.479 OA
ATOM     18  H   UNL     1      39.576 -25.468 -16.604  0.00  0.00    +0.295 HD
ENDBRANCH  16  17
ENDBRANCH  10  16
ENDBRANCH   2   9
BRANCH   3  19
ATOM     19  C   UNL     1      31.826 -23.517 -16.263  0.00  0.00    +0.022 C 
ATOM     20  C   UNL     1      31.413 -24.971 -15.989  0.00  0.00    -0.012 C 
ATOM     21  C   UNL     1      30.616 -22.571 -16.236  0.00  0.00    -0.012 C 
ATOM     22  C   UNL     1      30.569 -25.111 -14.720  0.00  0.00    -0.002 C 
ATOM     23  C   UNL     1      29.778 -22.728 -14.966  0.00  0.00    -0.002 C 
ATOM     24  C   UNL     1      29.364 -24.177 -14.739  0.00  0.00    -0.000 C 
BRANCH  19  25
ATOM     25  N   UNL     1      32.478 -23.435 -17.570  0.00  0.00    +0.388 N 
ATOM     26  H   UNL     1      31.972 -22.777 -18.163  0.00  0.00    -0.088 HD
ATOM     27  H   UNL     1      32.479 -24.356 -18.008  0.00  0.00    -0.088 HD
ATOM     28  H   UNL     1      33.440 -23.115 -17.451  0.00  0.00    -0.088 HD
ENDBRANCH  19  25
ENDBRANCH   3  19
TORSDOF 5
ENDMDL
MODEL 6
REMARK VINA RESULT:      -6.6      9.670     12.398
REMARK  Name = 19003
REMARK  5 active torsions:
REMARK  status: ('A' for Active; 'I' for Inactive)
REMARK    1  A    between atoms: N_2  and  CA_9
REMARK    2  A    between atoms: C_3  and  C_19
REMARK    3  A    between atoms: CA_10  and  C_16
REMARK    4  A    between atoms: C_16  and  O_17
REMARK    5  A    between atoms: C_19  and  N_25
REMARK                            x       y       z     vdW  Elec       q    Type
REMARK                         _______ _______ _______ _____ _____    ______ ____
ROOT
ATOM      1  O   UNL     1      33.098 -23.903 -17.569  0.00  0.00    -0.277 OA
ATOM      2  N   UNL     1      33.749 -23.410 -15.394  0.00  0.00    -0.298 N 
ATOM      3  C   UNL     1      32.822 -23.555 -16.422  0.00  0.00    +0.204 C 
ATOM      4  H   UNL     1      33.428 -23.126 -14.507  0.00  0.00    +0.150 HD
ENDROOT
BRANCH   2   9
ATOM      5  S   UNL     1      35.331 -22.886 -12.815  0.00  0.00    -0.118 S 
ATOM      6  O   UNL     1      35.263 -26.211 -15.706  0.00  0.00    -0.273 OA
ATOM      7  N   UNL     1      36.422 -24.723 -14.285  0.00  0.00    -0.260 N 
ATOM      8  C   UNL     1      36.121 -23.295 -14.414  0.00  0.00    +0.151 C 
ATOM      9  CA  UNL     1      35.186 -23.662 -15.574  0.00  0.00    +0.178 C 
ATOM     10  CA  UNL     1      36.461 -25.317 -12.964  0.00  0.00    +0.184 C 
ATOM     11  C   UNL     1      36.355 -24.170 -11.937  0.00  0.00    +0.068 C 
ATOM     12  C   UNL     1      35.604 -25.121 -15.302  0.00  0.00    +0.247 C 
ATOM     13  C   UNL     1      37.697 -23.527 -11.560  0.00  0.00    +0.013 C 
ATOM     14  C   UNL     1      35.617 -24.618 -10.675  0.00  0.00    +0.013 C 
BRANCH  10  16
ATOM     15  OXT UNL     1      38.610 -26.125 -13.712  0.00  0.00    -0.248 OA
ATOM     16  C   UNL     1      37.711 -26.134 -12.884  0.00  0.00    +0.333 C 
BRANCH  16  17
ATOM     17  O   UNL     1      37.714 -26.895 -11.763  0.00  0.00    -0.479 OA
ATOM     18  H   UNL     1      38.492 -26.962 -11.244  0.00  0.00    +0.295 HD
ENDBRANCH  16  17
ENDBRANCH  10  16
ENDBRANCH   2   9
BRANCH   3  19
ATOM     19  C   UNL     1      31.405 -23.230 -16.018  0.00  0.00    +0.022 C 
ATOM     20  C   UNL     1      30.561 -24.510 -15.939  0.00  0.00    -0.012 C 
ATOM     21  C   UNL     1      31.389 -22.459 -14.689  0.00  0.00    -0.012 C 
ATOM     22  C   UNL     1      30.930 -25.381 -14.735  0.00  0.00    -0.002 C 
ATOM     23  C   UNL     1      31.751 -23.343 -13.494  0.00  0.00    -0.002 C 
ATOM     24  C   UNL     1      30.878 -24.591 -13.431  0.00  0.00    -0.000 C 
BRANCH  19  25
ATOM     25  N   UNL     1      30.887 -22.371 -17.084  0.00  0.00    +0.388 N 
ATOM     26  H   UNL     1      31.651 -21.827 -17.486  0.00  0.00    -0.088 HD
ATOM     27  H   UNL     1      30.185 -21.739 -16.700  0.00  0.00    -0.088 HD
ATOM     28  H   UNL     1      30.462 -22.949 -17.810  0.00  0.00    -0.088 HD
ENDBRANCH  19  25
ENDBRANCH   3  19
TORSDOF 5
ENDMDL
MODEL 7
REMARK VINA RESULT:      -6.5      6.240     10.623
REMARK  Name = 19003
REMARK  5 active torsions:
REMARK  status: ('A' for Active; 'I' for Inactive)
REMARK    1  A    between atoms: N_2  and  CA_9
REMARK    2  A    between atoms: C_3  and  C_19
REMARK    3  A    between atoms: CA_10  and  C_16
REMARK    4  A    between atoms: C_16  and  O_17
REMARK    5  A    between atoms: C_19  and  N_25
REMARK                            x       y       z     vdW  Elec       q    Type
REMARK                         _______ _______ _______ _____ _____    ______ ____
ROOT
ATOM      1  O   UNL     1      36.999 -20.220 -18.721  0.00  0.00    -0.277 OA
ATOM      2  N   UNL     1      35.995 -22.025 -17.658  0.00  0.00    -0.298 N 
ATOM      3  C   UNL     1      36.291 -21.225 -18.758  0.00  0.00    +0.204 C 
ATOM      4  H   UNL     1      35.418 -22.811 -17.789  0.00  0.00    +0.150 HD
ENDROOT
BRANCH   2   9
ATOM      5  S   UNL     1      34.880 -23.998 -15.586  0.00  0.00    -0.118 S 
ATOM      6  O   UNL     1      38.933 -22.527 -16.494  0.00  0.00    -0.273 OA
ATOM      7  N   UNL     1      37.248 -23.145 -14.961  0.00  0.00    -0.260 N 
ATOM      8  C   UNL     1      35.919 -22.557 -15.146  0.00  0.00    +0.151 C 
ATOM      9  CA  UNL     1      36.509 -21.748 -16.309  0.00  0.00    +0.178 C 
ATOM     10  CA  UNL     1      37.361 -24.571 -14.734  0.00  0.00    +0.184 C 
ATOM     11  C   UNL     1      35.932 -25.124 -14.542  0.00  0.00    +0.068 C 
ATOM     12  C   UNL     1      37.837 -22.462 -15.985  0.00  0.00    +0.247 C 
ATOM     13  C   UNL     1      35.412 -25.054 -13.100  0.00  0.00    +0.013 C 
ATOM     14  C   UNL     1      35.811 -26.553 -15.074  0.00  0.00    +0.013 C 
BRANCH  10  16
ATOM     15  OXT UNL     1      38.561 -23.904 -12.748  0.00  0.00    -0.248 OA
ATOM     16  C   UNL     1      38.282 -24.763 -13.572  0.00  0.00    +0.333 C 
BRANCH  16  17
ATOM     17  O   UNL     1      38.775 -26.025 -13.555  0.00  0.00    -0.479 OA
ATOM     18  H   UNL     1      38.192 -26.757 -13.610  0.00  0.00    +0.295 HD
ENDBRANCH  16  17
ENDBRANCH  10  16
ENDBRANCH   2   9
BRANCH   3  19
ATOM     19  C   UNL     1      35.647 -21.686 -20.041  0.00  0.00    +0.022 C 
ATOM     20  C   UNL     1      34.383 -22.507 -19.743  0.00  0.00    -0.012 C 
ATOM     21  C   UNL     1      35.340 -20.487 -20.951  0.00  0.00    -0.012 C 
ATOM     22  C   UNL     1      33.231 -21.641 -19.227  0.00  0.00    -0.002 C 
ATOM     23  C   UNL     1      34.182 -19.636 -20.427  0.00  0.00    -0.002 C 
ATOM     24  C   UNL     1      32.937 -20.476 -20.167  0.00  0.00    -0.000 C 
BRANCH  19  25
ATOM     25  N   UNL     1      36.642 -22.544 -20.686  0.00  0.00    +0.388 N 
ATOM     26  H   UNL     1      37.569 -22.326 -20.319  0.00  0.00    -0.088 HD
ATOM     27  H   UNL     1      36.629 -22.381 -21.693  0.00  0.00    -0.088 HD
ATOM     28  H   UNL     1      36.422 -23.522 -20.497  0.00  0.00    -0.088 HD
ENDBRANCH  19  25
ENDBRANCH   3  19
TORSDOF 5
ENDMDL
MODEL 8
REMARK VINA RESULT:      -6.4      8.888     10.720
REMARK  Name = 19003
REMARK  5 active torsions:
REMARK  status: ('A' for Active; 'I' for Inactive)
REMARK    1  A    between atoms: N_2  and  CA_9
REMARK    2  A    between atoms: C_3  and  C_19
REMARK    3  A    between atoms: CA_10  and  C_16
REMARK    4  A    between atoms: C_16  and  O_17
REMARK    5  A    between atoms: C_19  and  N_25
REMARK                            x       y       z     vdW  Elec       q    Type
REMARK                         _______ _______ _______ _____ _____    ______ ____
ROOT
ATOM      1  O   UNL     1      35.832 -25.505 -15.721  0.00  0.00    -0.277 OA
ATOM      2  N   UNL     1      34.763 -23.482 -16.118  0.00  0.00    -0.298 N 
ATOM      3  C   UNL     1      35.783 -24.281 -15.611  0.00  0.00    +0.204 C 
ATOM      4  H   UNL     1      34.814 -22.508 -15.978  0.00  0.00    +0.150 HD
ENDROOT
BRANCH   2   9
ATOM      5  S   UNL     1      32.509 -24.360 -14.227  0.00  0.00    -0.118 S 
ATOM      6  O   UNL     1      32.608 -21.923 -17.898  0.00  0.00    -0.273 OA
ATOM      7  N   UNL     1      31.613 -23.570 -16.530  0.00  0.00    -0.260 N 
ATOM      8  C   UNL     1      32.475 -24.646 -16.035  0.00  0.00    +0.151 C 
ATOM      9  CA  UNL     1      33.613 -24.026 -16.855  0.00  0.00    +0.178 C 
ATOM     10  CA  UNL     1      30.727 -22.895 -15.604  0.00  0.00    +0.184 C 
ATOM     11  C   UNL     1      30.781 -23.666 -14.267  0.00  0.00    +0.068 C 
ATOM     12  C   UNL     1      32.580 -22.963 -17.278  0.00  0.00    +0.247 C 
ATOM     13  C   UNL     1      29.798 -24.841 -14.170  0.00  0.00    +0.013 C 
ATOM     14  C   UNL     1      30.594 -22.727 -13.074  0.00  0.00    +0.013 C 
BRANCH  10  16
ATOM     15  OXT UNL     1      29.045 -23.459 -17.242  0.00  0.00    -0.248 OA
ATOM     16  C   UNL     1      29.380 -22.829 -16.249  0.00  0.00    +0.333 C 
BRANCH  16  17
ATOM     17  O   UNL     1      28.573 -21.966 -15.585  0.00  0.00    -0.479 OA
ATOM     18  H   UNL     1      28.321 -22.147 -14.700  0.00  0.00    +0.295 HD
ENDBRANCH  16  17
ENDBRANCH  10  16
ENDBRANCH   2   9
BRANCH   3  19
ATOM     19  C   UNL     1      36.855 -23.514 -14.878  0.00  0.00    +0.022 C 
ATOM     20  C   UNL     1      36.370 -23.120 -13.475  0.00  0.00    -0.012 C 
ATOM     21  C   UNL     1      38.155 -24.330 -14.819  0.00  0.00    -0.012 C 
ATOM     22  C   UNL     1      36.283 -24.319 -12.528  0.00  0.00    -0.002 C 
ATOM     23  C   UNL     1      38.057 -25.520 -13.862  0.00  0.00    -0.002 C 
ATOM     24  C   UNL     1      37.598 -25.091 -12.473  0.00  0.00    -0.000 C 
BRANCH  19  25
ATOM     25  N   UNL     1      37.076 -22.305 -15.672  0.00  0.00    +0.388 N 
ATOM     26  H   UNL     1      36.209 -22.043 -16.143  0.00  0.00    -0.088 HD
ATOM     27  H   UNL     1      37.800 -22.483 -16.368  0.00  0.00    -0.088 HD
ATOM     28  H   UNL     1      37.372 -21.544 -15.060  0.00  0.00    -0.088 HD
ENDBRANCH  19  25
ENDBRANCH   3  19
TORSDOF 5
ENDMDL
MODEL 9
REMARK VINA RESULT:      -6.2      2.750      7.472
REMARK  Name = 19003
REMARK  5 active torsions:
REMARK  status: ('A' for Active; 'I' for Inactive)
REMARK    1  A    between atoms: N_2  and  CA_9
REMARK    2  A    between atoms: C_3  and  C_19
REMARK    3  A    between atoms: CA_10  and  C_16
REMARK    4  A    between atoms: C_16  and  O_17
REMARK    5  A    between atoms: C_19  and  N_25
REMARK                            x       y       z     vdW  Elec       q    Type
REMARK                         _______ _______ _______ _____ _____    ______ ____
ROOT
ATOM      1  O   UNL     1      34.374 -16.949 -22.994  0.00  0.00    -0.277 OA
ATOM      2  N   UNL     1      33.748 -17.856 -20.949  0.00  0.00    -0.298 N 
ATOM      3  C   UNL     1      34.138 -16.821 -21.794  0.00  0.00    +0.204 C 
ATOM      4  H   UNL     1      33.582 -17.652 -20.000  0.00  0.00    +0.150 HD
ENDROOT
BRANCH   2   9
ATOM      5  S   UNL     1      36.261 -19.549 -20.450  0.00  0.00    -0.118 S 
ATOM      6  O   UNL     1      31.973 -20.186 -19.663  0.00  0.00    -0.273 OA
ATOM      7  N   UNL     1      34.087 -20.962 -20.368  0.00  0.00    -0.260 N 
ATOM      8  C   UNL     1      34.800 -20.162 -21.367  0.00  0.00    +0.151 C 
ATOM      9  CA  UNL     1      33.575 -19.241 -21.411  0.00  0.00    +0.178 C 
ATOM     10  CA  UNL     1      34.801 -21.421 -19.194  0.00  0.00    +0.184 C 
ATOM     11  C   UNL     1      36.294 -21.087 -19.401  0.00  0.00    +0.068 C 
ATOM     12  C   UNL     1      32.967 -20.183 -20.353  0.00  0.00    +0.247 C 
ATOM     13  C   UNL     1      37.088 -22.160 -20.159  0.00  0.00    +0.013 C 
ATOM     14  C   UNL     1      36.983 -20.768 -18.072  0.00  0.00    +0.013 C 
BRANCH  10  16
ATOM     15  OXT UNL     1      34.128 -23.622 -19.923  0.00  0.00    -0.248 OA
ATOM     16  C   UNL     1      34.488 -22.874 -19.026  0.00  0.00    +0.333 C 
BRANCH  16  17
ATOM     17  O   UNL     1      34.656 -23.254 -17.736  0.00  0.00    -0.479 OA
ATOM     18  H   UNL     1      34.880 -22.617 -17.086  0.00  0.00    +0.295 HD
ENDBRANCH  16  17
ENDBRANCH  10  16
ENDBRANCH   2   9
BRANCH   3  19
ATOM     19  C   UNL     1      34.267 -15.485 -21.105  0.00  0.00    +0.022 C 
ATOM     20  C   UNL     1      34.994 -14.481 -22.011  0.00  0.00    -0.012 C 
ATOM     21  C   UNL     1      32.886 -14.965 -20.677  0.00  0.00    -0.012 C 
ATOM     22  C   UNL     1      34.132 -14.027 -23.191  0.00  0.00    -0.002 C 
ATOM     23  C   UNL     1      32.039 -14.507 -21.866  0.00  0.00    -0.002 C 
ATOM     24  C   UNL     1      32.780 -13.493 -22.729  0.00  0.00    -0.000 C 
BRANCH  19  25
ATOM     25  N   UNL     1      35.079 -15.742 -19.914  0.00  0.00    +0.388 N 
ATOM     26  H   UNL     1      34.568 -16.355 -19.278  0.00  0.00    -0.088 HD
ATOM     27  H   UNL     1      35.283 -14.860 -19.446  0.00  0.00    -0.088 HD
ATOM     28  H   UNL     1      35.953 -16.191 -20.189  0.00  0.00    -0.088 HD
ENDBRANCH  19  25
ENDBRANCH   3  19
TORSDOF 5
ENDMDL
