MODEL 1
REMARK VINA RESULT:      -6.8      0.000      0.000
REMARK  Name = 446429
REMARK  5 active torsions:
REMARK  status: ('A' for Active; 'I' for Inactive)
REMARK    1  A    between atoms: C_2  and  C_18
REMARK    2  A    between atoms: C_3  and  O_14
REMARK    3  A    between atoms: C_4  and  O_16
REMARK    4  A    between atoms: C_5  and  N_10
REMARK    5  A    between atoms: C_18  and  O_19
REMARK                            x       y       z     vdW  Elec       q    Type
REMARK                         _______ _______ _______ _____ _____    ______ ____
ROOT
ATOM      1  N   UNL     1      36.113 -23.933 -15.011  0.00  0.00    +0.398 N 
ATOM      2  C   UNL     1      38.002 -24.718 -13.603  0.00  0.00    +0.037 C 
ATOM      3  C   UNL     1      37.013 -25.215 -12.533  0.00  0.00    +0.137 C 
ATOM      4  C   UNL     1      35.700 -24.426 -12.621  0.00  0.00    +0.135 C 
ATOM      5  C   UNL     1      35.131 -24.419 -14.046  0.00  0.00    +0.043 C 
ATOM      6  C   UNL     1      37.349 -24.716 -14.996  0.00  0.00    -0.074 C 
ATOM      7  H   UNL     1      36.339 -22.963 -14.789  0.00  0.00    -0.082 HD
ATOM      8  H   UNL     1      35.704 -24.019 -15.942  0.00  0.00    -0.082 HD
ENDROOT
BRANCH   5  10
ATOM      9  O   UNL     1      32.329 -25.150 -13.838  0.00  0.00    -0.275 OA
ATOM     10  N   UNL     1      33.988 -23.542 -14.128  0.00  0.00    -0.323 N 
ATOM     11  C   UNL     1      32.680 -23.987 -14.016  0.00  0.00    +0.221 C 
ATOM     12  C   UNL     1      31.685 -22.862 -14.113  0.00  0.00    +0.095 C 
ATOM     13  H   UNL     1      34.145 -22.581 -14.270  0.00  0.00    +0.147 HD
ENDBRANCH   5  10
BRANCH   3  14
ATOM     14  O   UNL     1      36.764 -26.613 -12.685  0.00  0.00    -0.382 OA
ATOM     15  H   UNL     1      37.201 -26.934 -13.489  0.00  0.00    +0.210 HD
ENDBRANCH   3  14
BRANCH   4  16
ATOM     16  O   UNL     1      34.742 -24.998 -11.733  0.00  0.00    -0.383 OA
ATOM     17  H   UNL     1      34.571 -25.918 -11.992  0.00  0.00    +0.210 HD
ENDBRANCH   4  16
BRANCH   2  18
ATOM     18  C   UNL     1      39.287 -25.546 -13.620  0.00  0.00    +0.137 C 
BRANCH  18  19
ATOM     19  O   UNL     1      39.106 -26.635 -14.505  0.00  0.00    -0.382 OA
ATOM     20  H   UNL     1      39.962 -26.890 -14.883  0.00  0.00    +0.210 HD
ENDBRANCH  18  19
ENDBRANCH   2  18
TORSDOF 5
ENDMDL
MODEL 2
REMARK VINA RESULT:      -6.6      2.265      2.748
REMARK  Name = 446429
REMARK  5 active torsions:
REMARK  status: ('A' for Active; 'I' for Inactive)
REMARK    1  A    between atoms: C_2  and  C_18
REMARK    2  A    between atoms: C_3  and  O_14
REMARK    3  A    between atoms: C_4  and  O_16
REMARK    4  A    between atoms: C_5  and  N_10
REMARK    5  A    between atoms: C_18  and  O_19
REMARK                            x       y       z     vdW  Elec       q    Type
REMARK                         _______ _______ _______ _____ _____    ______ ____
ROOT
ATOM      1  N   UNL     1      34.803 -24.642 -12.363  0.00  0.00    +0.398 N 
ATOM      2  C   UNL     1      37.270 -24.723 -12.635  0.00  0.00    +0.037 C 
ATOM      3  C   UNL     1      37.128 -24.390 -14.132  0.00  0.00    +0.137 C 
ATOM      4  C   UNL     1      35.750 -24.834 -14.642  0.00  0.00    +0.135 C 
ATOM      5  C   UNL     1      34.613 -24.289 -13.768  0.00  0.00    +0.043 C 
ATOM      6  C   UNL     1      36.081 -24.166 -11.834  0.00  0.00    -0.074 C 
ATOM      7  H   UNL     1      34.771 -25.658 -12.274  0.00  0.00    -0.082 HD
ATOM      8  H   UNL     1      34.060 -24.195 -11.827  0.00  0.00    -0.082 HD
ENDROOT
BRANCH   5  10
ATOM      9  O   UNL     1      31.959 -23.426 -12.970  0.00  0.00    -0.275 OA
ATOM     10  N   UNL     1      33.349 -24.850 -14.177  0.00  0.00    -0.323 N 
ATOM     11  C   UNL     1      32.126 -24.367 -13.741  0.00  0.00    +0.221 C 
ATOM     12  C   UNL     1      30.968 -25.117 -14.342  0.00  0.00    +0.095 C 
ATOM     13  H   UNL     1      33.355 -25.614 -14.799  0.00  0.00    +0.147 HD
ENDBRANCH   5  10
BRANCH   3  14
ATOM     14  O   UNL     1      37.315 -22.992 -14.359  0.00  0.00    -0.382 OA
ATOM     15  H   UNL     1      36.461 -22.580 -14.563  0.00  0.00    +0.210 HD
ENDBRANCH   3  14
BRANCH   4  16
ATOM     16  O   UNL     1      35.573 -24.382 -15.983  0.00  0.00    -0.383 OA
ATOM     17  H   UNL     1      35.869 -25.071 -16.598  0.00  0.00    +0.210 HD
ENDBRANCH   4  16
BRANCH   2  18
ATOM     18  C   UNL     1      38.588 -24.204 -12.059  0.00  0.00    +0.137 C 
BRANCH  18  19
ATOM     19  O   UNL     1      38.392 -22.873 -11.622  0.00  0.00    -0.382 OA
ATOM     20  H   UNL     1      37.537 -22.804 -11.169  0.00  0.00    +0.210 HD
ENDBRANCH  18  19
ENDBRANCH   2  18
TORSDOF 5
ENDMDL
MODEL 3
REMARK VINA RESULT:      -6.5     11.593     12.841
REMARK  Name = 446429
REMARK  5 active torsions:
REMARK  status: ('A' for Active; 'I' for Inactive)
REMARK    1  A    between atoms: C_2  and  C_18
REMARK    2  A    between atoms: C_3  and  O_14
REMARK    3  A    between atoms: C_4  and  O_16
REMARK    4  A    between atoms: C_5  and  N_10
REMARK    5  A    between atoms: C_18  and  O_19
REMARK                            x       y       z     vdW  Elec       q    Type
REMARK                         _______ _______ _______ _____ _____    ______ ____
ROOT
ATOM      1  N   UNL     1      35.343 -17.737 -23.672  0.00  0.00    +0.398 N 
ATOM      2  C   UNL     1      33.726 -15.923 -24.185  0.00  0.00    +0.037 C 
ATOM      3  C   UNL     1      33.968 -15.298 -22.800  0.00  0.00    +0.137 C 
ATOM      4  C   UNL     1      34.443 -16.372 -21.812  0.00  0.00    +0.135 C 
ATOM      5  C   UNL     1      35.637 -17.166 -22.360  0.00  0.00    +0.043 C 
ATOM      6  C   UNL     1      34.956 -16.721 -24.651  0.00  0.00    -0.074 C 
ATOM      7  H   UNL     1      34.576 -18.404 -23.574  0.00  0.00    -0.082 HD
ATOM      8  H   UNL     1      36.192 -18.188 -24.012  0.00  0.00    -0.082 HD
ENDROOT
BRANCH   5  10
ATOM      9  O   UNL     1      34.129 -19.618 -21.982  0.00  0.00    -0.275 OA
ATOM     10  N   UNL     1      35.957 -18.265 -21.482  0.00  0.00    -0.323 N 
ATOM     11  C   UNL     1      35.171 -19.401 -21.370  0.00  0.00    +0.221 C 
ATOM     12  C   UNL     1      35.748 -20.402 -20.405  0.00  0.00    +0.095 C 
ATOM     13  H   UNL     1      36.774 -18.206 -20.937  0.00  0.00    +0.147 HD
ENDBRANCH   5  10
BRANCH   3  14
ATOM     14  O   UNL     1      34.926 -14.241 -22.882  0.00  0.00    -0.382 OA
ATOM     15  H   UNL     1      34.616 -13.483 -22.363  0.00  0.00    +0.210 HD
ENDBRANCH   3  14
BRANCH   4  16
ATOM     16  O   UNL     1      34.812 -15.755 -20.581  0.00  0.00    -0.383 OA
ATOM     17  H   UNL     1      35.316 -14.946 -20.763  0.00  0.00    +0.210 HD
ENDBRANCH   4  16
BRANCH   2  18
ATOM     18  C   UNL     1      33.352 -14.869 -25.228  0.00  0.00    +0.137 C 
BRANCH  18  19
ATOM     19  O   UNL     1      33.604 -15.403 -26.514  0.00  0.00    -0.382 OA
ATOM     20  H   UNL     1      34.430 -15.032 -26.861  0.00  0.00    +0.210 HD
ENDBRANCH  18  19
ENDBRANCH   2  18
TORSDOF 5
ENDMDL
MODEL 4
REMARK VINA RESULT:      -6.4     12.522     13.424
REMARK  Name = 446429
REMARK  5 active torsions:
REMARK  status: ('A' for Active; 'I' for Inactive)
REMARK    1  A    between atoms: C_2  and  C_18
REMARK    2  A    between atoms: C_3  and  O_14
REMARK    3  A    between atoms: C_4  and  O_16
REMARK    4  A    between atoms: C_5  and  N_10
REMARK    5  A    between atoms: C_18  and  O_19
REMARK                            x       y       z     vdW  Elec       q    Type
REMARK                         _______ _______ _______ _____ _____    ______ ____
ROOT
ATOM      1  N   UNL     1      34.658 -16.754 -24.657  0.00  0.00    +0.398 N 
ATOM      2  C   UNL     1      35.642 -17.494 -22.501  0.00  0.00    +0.037 C 
ATOM      3  C   UNL     1      34.869 -16.392 -21.755  0.00  0.00    +0.137 C 
ATOM      4  C   UNL     1      34.556 -15.231 -22.709  0.00  0.00    +0.135 C 
ATOM      5  C   UNL     1      33.874 -15.714 -23.995  0.00  0.00    +0.043 C 
ATOM      6  C   UNL     1      34.909 -17.904 -23.790  0.00  0.00    -0.074 C 
ATOM      7  H   UNL     1      35.554 -16.357 -24.940  0.00  0.00    -0.082 HD
ATOM      8  H   UNL     1      34.123 -17.083 -25.461  0.00  0.00    -0.082 HD
ENDROOT
BRANCH   5  10
ATOM      9  O   UNL     1      32.771 -15.827 -26.679  0.00  0.00    -0.275 OA
ATOM     10  N   UNL     1      33.736 -14.627 -24.933  0.00  0.00    -0.323 N 
ATOM     11  C   UNL     1      33.194 -14.779 -26.199  0.00  0.00    +0.221 C 
ATOM     12  C   UNL     1      33.145 -13.481 -26.959  0.00  0.00    +0.095 C 
ATOM     13  H   UNL     1      34.042 -13.732 -24.659  0.00  0.00    +0.147 HD
ENDBRANCH   5  10
BRANCH   3  14
ATOM     14  O   UNL     1      33.664 -16.912 -21.193  0.00  0.00    -0.382 OA
ATOM     15  H   UNL     1      33.880 -17.525 -20.473  0.00  0.00    +0.210 HD
ENDBRANCH   3  14
BRANCH   4  16
ATOM     16  O   UNL     1      33.708 -14.292 -22.049  0.00  0.00    -0.383 OA
ATOM     17  H   UNL     1      32.948 -14.090 -22.617  0.00  0.00    +0.210 HD
ENDBRANCH   4  16
BRANCH   2  18
ATOM     18  C   UNL     1      35.886 -18.718 -21.617  0.00  0.00    +0.137 C 
BRANCH  18  19
ATOM     19  O   UNL     1      34.803 -19.613 -21.783  0.00  0.00    -0.382 OA
ATOM     20  H   UNL     1      34.077 -19.355 -21.192  0.00  0.00    +0.210 HD
ENDBRANCH  18  19
ENDBRANCH   2  18
TORSDOF 5
ENDMDL
MODEL 5
REMARK VINA RESULT:      -6.3     11.543     12.405
REMARK  Name = 446429
REMARK  5 active torsions:
REMARK  status: ('A' for Active; 'I' for Inactive)
REMARK    1  A    between atoms: C_2  and  C_18
REMARK    2  A    between atoms: C_3  and  O_14
REMARK    3  A    between atoms: C_4  and  O_16
REMARK    4  A    between atoms: C_5  and  N_10
REMARK    5  A    between atoms: C_18  and  O_19
REMARK                            x       y       z     vdW  Elec       q    Type
REMARK                         _______ _______ _______ _____ _____    ______ ____
ROOT
ATOM      1  N   UNL     1      34.535 -15.958 -21.402  0.00  0.00    +0.398 N 
ATOM      2  C   UNL     1      34.559 -18.424 -21.683  0.00  0.00    +0.037 C 
ATOM      3  C   UNL     1      35.011 -18.266 -23.146  0.00  0.00    +0.137 C 
ATOM      4  C   UNL     1      34.566 -16.902 -23.690  0.00  0.00    +0.135 C 
ATOM      5  C   UNL     1      34.998 -15.751 -22.771  0.00  0.00    +0.043 C 
ATOM      6  C   UNL     1      35.007 -17.221 -20.836  0.00  0.00    -0.074 C 
ATOM      7  H   UNL     1      33.515 -15.959 -21.398  0.00  0.00    -0.082 HD
ATOM      8  H   UNL     1      34.911 -15.202 -20.829  0.00  0.00    -0.082 HD
ENDROOT
BRANCH   5  10
ATOM      9  O   UNL     1      32.320 -14.746 -22.276  0.00  0.00    -0.275 OA
ATOM     10  N   UNL     1      34.432 -14.504 -23.225  0.00  0.00    -0.323 N 
ATOM     11  C   UNL     1      33.136 -14.108 -22.936  0.00  0.00    +0.221 C 
ATOM     12  C   UNL     1      32.811 -12.755 -23.509  0.00  0.00    +0.095 C 
ATOM     13  H   UNL     1      34.995 -13.904 -23.766  0.00  0.00    +0.147 HD
ENDBRANCH   5  10
BRANCH   3  14
ATOM     14  O   UNL     1      36.429 -18.406 -23.255  0.00  0.00    -0.382 OA
ATOM     15  H   UNL     1      36.639 -18.981 -24.008  0.00  0.00    +0.210 HD
ENDBRANCH   3  14
BRANCH   4  16
ATOM     16  O   UNL     1      35.124 -16.704 -24.988  0.00  0.00    -0.383 OA
ATOM     17  H   UNL     1      35.931 -16.171 -24.915  0.00  0.00    +0.210 HD
ENDBRANCH   4  16
BRANCH   2  18
ATOM     18  C   UNL     1      35.071 -19.727 -21.067  0.00  0.00    +0.137 C 
BRANCH  18  19
ATOM     19  O   UNL     1      36.297 -19.462 -20.412  0.00  0.00    -0.382 OA
ATOM     20  H   UNL     1      36.756 -20.297 -20.236  0.00  0.00    +0.210 HD
ENDBRANCH  18  19
ENDBRANCH   2  18
TORSDOF 5
ENDMDL
MODEL 6
REMARK VINA RESULT:      -6.3      2.202      5.517
REMARK  Name = 446429
REMARK  5 active torsions:
REMARK  status: ('A' for Active; 'I' for Inactive)
REMARK    1  A    between atoms: C_2  and  C_18
REMARK    2  A    between atoms: C_3  and  O_14
REMARK    3  A    between atoms: C_4  and  O_16
REMARK    4  A    between atoms: C_5  and  N_10
REMARK    5  A    between atoms: C_18  and  O_19
REMARK                            x       y       z     vdW  Elec       q    Type
REMARK                         _______ _______ _______ _____ _____    ______ ____
ROOT
ATOM      1  N   UNL     1      36.239 -24.982 -13.984  0.00  0.00    +0.398 N 
ATOM      2  C   UNL     1      34.334 -23.443 -14.393  0.00  0.00    +0.037 C 
ATOM      3  C   UNL     1      35.002 -22.939 -15.685  0.00  0.00    +0.137 C 
ATOM      4  C   UNL     1      36.523 -23.129 -15.601  0.00  0.00    +0.135 C 
ATOM      5  C   UNL     1      36.900 -24.566 -15.218  0.00  0.00    +0.043 C 
ATOM      6  C   UNL     1      34.783 -24.877 -14.066  0.00  0.00    -0.074 C 
ATOM      7  H   UNL     1      36.567 -24.387 -13.222  0.00  0.00    -0.082 HD
ATOM      8  H   UNL     1      36.471 -25.961 -13.822  0.00  0.00    -0.082 HD
ENDROOT
BRANCH   5  10
ATOM      9  O   UNL     1      38.408 -26.957 -14.556  0.00  0.00    -0.275 OA
ATOM     10  N   UNL     1      38.321 -24.672 -14.994  0.00  0.00    -0.323 N 
ATOM     11  C   UNL     1      38.954 -25.864 -14.681  0.00  0.00    +0.221 C 
ATOM     12  C   UNL     1      40.442 -25.697 -14.524  0.00  0.00    +0.095 C 
ATOM     13  H   UNL     1      38.868 -23.856 -15.067  0.00  0.00    +0.147 HD
ENDBRANCH   5  10
BRANCH   3  14
ATOM     14  O   UNL     1      34.479 -23.623 -16.825  0.00  0.00    -0.382 OA
ATOM     15  H   UNL     1      33.592 -23.960 -16.622  0.00  0.00    +0.210 HD
ENDBRANCH   3  14
BRANCH   4  16
ATOM     16  O   UNL     1      37.111 -22.805 -16.859  0.00  0.00    -0.383 OA
ATOM     17  H   UNL     1      38.032 -23.113 -16.874  0.00  0.00    +0.210 HD
ENDBRANCH   4  16
BRANCH   2  18
ATOM     18  C   UNL     1      32.809 -23.369 -14.475  0.00  0.00    +0.137 C 
BRANCH  18  19
ATOM     19  O   UNL     1      32.306 -23.064 -13.188  0.00  0.00    -0.382 OA
ATOM     20  H   UNL     1      32.875 -22.401 -12.768  0.00  0.00    +0.210 HD
ENDBRANCH  18  19
ENDBRANCH   2  18
TORSDOF 5
ENDMDL
MODEL 7
REMARK VINA RESULT:      -6.2     11.454     12.974
REMARK  Name = 446429
REMARK  5 active torsions:
REMARK  status: ('A' for Active; 'I' for Inactive)
REMARK    1  A    between atoms: C_2  and  C_18
REMARK    2  A    between atoms: C_3  and  O_14
REMARK    3  A    between atoms: C_4  and  O_16
REMARK    4  A    between atoms: C_5  and  N_10
REMARK    5  A    between atoms: C_18  and  O_19
REMARK                            x       y       z     vdW  Elec       q    Type
REMARK                         _______ _______ _______ _____ _____    ______ ____
ROOT
ATOM      1  N   UNL     1      34.206 -15.851 -20.724  0.00  0.00    +0.398 N 
ATOM      2  C   UNL     1      34.182 -14.141 -22.524  0.00  0.00    +0.037 C 
ATOM      3  C   UNL     1      34.588 -15.206 -23.558  0.00  0.00    +0.137 C 
ATOM      4  C   UNL     1      35.339 -16.353 -22.867  0.00  0.00    +0.135 C 
ATOM      5  C   UNL     1      34.557 -16.908 -21.669  0.00  0.00    +0.043 C 
ATOM      6  C   UNL     1      33.428 -14.780 -21.345  0.00  0.00    -0.074 C 
ATOM      7  H   UNL     1      35.066 -15.453 -20.345  0.00  0.00    -0.082 HD
ATOM      8  H   UNL     1      33.631 -16.268 -19.992  0.00  0.00    -0.082 HD
ENDROOT
BRANCH   5  10
ATOM      9  O   UNL     1      34.640 -19.782 -22.071  0.00  0.00    -0.275 OA
ATOM     10  N   UNL     1      35.354 -17.871 -20.950  0.00  0.00    -0.323 N 
ATOM     11  C   UNL     1      35.326 -19.231 -21.215  0.00  0.00    +0.221 C 
ATOM     12  C   UNL     1      36.273 -20.004 -20.337  0.00  0.00    +0.095 C 
ATOM     13  H   UNL     1      35.949 -17.546 -20.235  0.00  0.00    +0.147 HD
ENDBRANCH   5  10
BRANCH   3  14
ATOM     14  O   UNL     1      33.441 -15.707 -24.247  0.00  0.00    -0.382 OA
ATOM     15  H   UNL     1      33.721 -16.348 -24.919  0.00  0.00    +0.210 HD
ENDBRANCH   3  14
BRANCH   4  16
ATOM     16  O   UNL     1      35.571 -17.401 -23.806  0.00  0.00    -0.383 OA
ATOM     17  H   UNL     1      35.234 -18.237 -23.446  0.00  0.00    +0.210 HD
ENDBRANCH   4  16
BRANCH   2  18
ATOM     18  C   UNL     1      33.340 -13.030 -23.152  0.00  0.00    +0.137 C 
BRANCH  18  19
ATOM     19  O   UNL     1      31.973 -13.342 -22.965  0.00  0.00    -0.382 OA
ATOM     20  H   UNL     1      31.596 -12.751 -22.295  0.00  0.00    +0.210 HD
ENDBRANCH  18  19
ENDBRANCH   2  18
TORSDOF 5
ENDMDL
MODEL 8
REMARK VINA RESULT:      -6.1     12.242     13.124
REMARK  Name = 446429
REMARK  5 active torsions:
REMARK  status: ('A' for Active; 'I' for Inactive)
REMARK    1  A    between atoms: C_2  and  C_18
REMARK    2  A    between atoms: C_3  and  O_14
REMARK    3  A    between atoms: C_4  and  O_16
REMARK    4  A    between atoms: C_5  and  N_10
REMARK    5  A    between atoms: C_18  and  O_19
REMARK                            x       y       z     vdW  Elec       q    Type
REMARK                         _______ _______ _______ _____ _____    ______ ____
ROOT
ATOM      1  N   UNL     1      34.899 -15.730 -23.901  0.00  0.00    +0.398 N 
ATOM      2  C   UNL     1      35.494 -17.445 -22.206  0.00  0.00    +0.037 C 
ATOM      3  C   UNL     1      34.713 -16.670 -21.129  0.00  0.00    +0.137 C 
ATOM      4  C   UNL     1      34.639 -15.183 -21.500  0.00  0.00    +0.135 C 
ATOM      5  C   UNL     1      34.115 -14.974 -22.927  0.00  0.00    +0.043 C 
ATOM      6  C   UNL     1      34.925 -17.163 -23.607  0.00  0.00    -0.074 C 
ATOM      7  H   UNL     1      35.857 -15.378 -23.893  0.00  0.00    -0.082 HD
ATOM      8  H   UNL     1      34.462 -15.608 -24.814  0.00  0.00    -0.082 HD
ENDROOT
BRANCH   5  10
ATOM      9  O   UNL     1      33.057 -13.716 -25.321  0.00  0.00    -0.275 OA
ATOM     10  N   UNL     1      34.205 -13.584 -23.300  0.00  0.00    -0.323 N 
ATOM     11  C   UNL     1      33.666 -13.074 -24.470  0.00  0.00    +0.221 C 
ATOM     12  C   UNL     1      33.880 -11.589 -24.599  0.00  0.00    +0.095 C 
ATOM     13  H   UNL     1      34.673 -12.966 -22.692  0.00  0.00    +0.147 HD
ENDBRANCH   5  10
BRANCH   3  14
ATOM     14  O   UNL     1      33.400 -17.209 -20.971  0.00  0.00    -0.382 OA
ATOM     15  H   UNL     1      33.025 -16.905 -20.130  0.00  0.00    +0.210 HD
ENDBRANCH   3  14
BRANCH   4  16
ATOM     16  O   UNL     1      33.784 -14.507 -20.580  0.00  0.00    -0.383 OA
ATOM     17  H   UNL     1      33.632 -15.072 -19.806  0.00  0.00    +0.210 HD
ENDBRANCH   4  16
BRANCH   2  18
ATOM     18  C   UNL     1      35.505 -18.949 -21.930  0.00  0.00    +0.137 C 
BRANCH  18  19
ATOM     19  O   UNL     1      35.640 -19.147 -20.536  0.00  0.00    -0.382 OA
ATOM     20  H   UNL     1      36.056 -20.007 -20.371  0.00  0.00    +0.210 HD
ENDBRANCH  18  19
ENDBRANCH   2  18
TORSDOF 5
ENDMDL
MODEL 9
REMARK VINA RESULT:      -6.1      2.004      2.296
REMARK  Name = 446429
REMARK  5 active torsions:
REMARK  status: ('A' for Active; 'I' for Inactive)
REMARK    1  A    between atoms: C_2  and  C_18
REMARK    2  A    between atoms: C_3  and  O_14
REMARK    3  A    between atoms: C_4  and  O_16
REMARK    4  A    between atoms: C_5  and  N_10
REMARK    5  A    between atoms: C_18  and  O_19
REMARK                            x       y       z     vdW  Elec       q    Type
REMARK                         _______ _______ _______ _____ _____    ______ ____
ROOT
ATOM      1  N   UNL     1      36.294 -26.421 -14.465  0.00  0.00    +0.398 N 
ATOM      2  C   UNL     1      38.644 -25.715 -14.844  0.00  0.00    +0.037 C 
ATOM      3  C   UNL     1      38.255 -24.245 -14.605  0.00  0.00    +0.137 C 
ATOM      4  C   UNL     1      36.768 -24.035 -14.925  0.00  0.00    +0.135 C 
ATOM      5  C   UNL     1      35.877 -25.047 -14.194  0.00  0.00    +0.043 C 
ATOM      6  C   UNL     1      37.690 -26.664 -14.100  0.00  0.00    -0.074 C 
ATOM      7  H   UNL     1      36.180 -26.607 -15.461  0.00  0.00    -0.082 HD
ATOM      8  H   UNL     1      35.714 -27.040 -13.899  0.00  0.00    -0.082 HD
ENDROOT
BRANCH   5  10
ATOM      9  O   UNL     1      33.654 -23.867 -12.747  0.00  0.00    -0.275 OA
ATOM     10  N   UNL     1      34.509 -24.927 -14.636  0.00  0.00    -0.323 N 
ATOM     11  C   UNL     1      33.512 -24.344 -13.870  0.00  0.00    +0.221 C 
ATOM     12  C   UNL     1      32.185 -24.325 -14.579  0.00  0.00    +0.095 C 
ATOM     13  H   UNL     1      34.272 -25.275 -15.526  0.00  0.00    +0.147 HD
ENDBRANCH   5  10
BRANCH   3  14
ATOM     14  O   UNL     1      38.531 -23.860 -13.258  0.00  0.00    -0.382 OA
ATOM     15  H   UNL     1      38.434 -22.899 -13.169  0.00  0.00    +0.210 HD
ENDBRANCH   3  14
BRANCH   4  16
ATOM     16  O   UNL     1      36.385 -22.713 -14.553  0.00  0.00    -0.383 OA
ATOM     17  H   UNL     1      35.917 -22.292 -15.291  0.00  0.00    +0.210 HD
ENDBRANCH   4  16
BRANCH   2  18
ATOM     18  C   UNL     1      40.092 -25.992 -14.438  0.00  0.00    +0.137 C 
BRANCH  18  19
ATOM     19  O   UNL     1      40.874 -24.859 -14.764  0.00  0.00    -0.382 OA
ATOM     20  H   UNL     1      41.804 -25.036 -14.552  0.00  0.00    +0.210 HD
ENDBRANCH  18  19
ENDBRANCH   2  18
TORSDOF 5
ENDMDL
