MODEL 1
REMARK VINA RESULT:     -10.0      0.000      0.000
REMARK  Name = 25134265
REMARK  1 active torsions:
REMARK  status: ('A' for Active; 'I' for Inactive)
REMARK    1  A    between atoms: N_3  and  C_15
REMARK                            x       y       z     vdW  Elec       q    Type
REMARK                         _______ _______ _______ _____ _____    ______ ____
ROOT
ATOM      1  O   UNL     1      34.882 -16.717 -20.484  0.00  0.00    -0.269 OA
ATOM      2  O   UNL     1      34.921 -19.879 -23.909  0.00  0.00    -0.269 OA
ATOM      3  N   UNL     1      35.006 -18.666 -21.855  0.00  0.00    -0.201 N 
ATOM      4  C   UNL     1      34.540 -16.638 -22.794  0.00  0.00    +0.055 C 
ATOM      5  C   UNL     1      34.583 -17.568 -23.812  0.00  0.00    +0.058 C 
ATOM      6  C   UNL     1      34.817 -17.326 -21.536  0.00  0.00    +0.259 C 
ATOM      7  C   UNL     1      34.873 -18.873 -23.224  0.00  0.00    +0.259 C 
ATOM      8  C   UNL     1      34.280 -15.302 -23.036  0.00  0.00    -0.017 C 
ATOM      9  C   UNL     1      34.363 -17.219 -25.130  0.00  0.00    +0.005 C 
ATOM     10  C   UNL     1      34.056 -14.923 -24.362  0.00  0.00    -0.004 C 
ATOM     11  C   UNL     1      34.097 -15.874 -25.400  0.00  0.00    -0.000 C 
ATOM     12  C   UNL     1      34.236 -14.284 -21.951  0.00  0.00    +0.031 C 
ENDROOT
BRANCH   3  15
ATOM     13 CL   UNL     1      33.405 -22.437 -18.729  0.00  0.00    -0.061 Cl
ATOM     14  N   UNL     1      35.870 -21.700 -19.040  0.00  0.00    -0.232 NA
ATOM     15  C   UNL     1      35.298 -19.695 -20.901  0.00  0.00    +0.065 C 
ATOM     16  C   UNL     1      34.271 -20.461 -20.363  0.00  0.00    +0.046 C 
ATOM     17  C   UNL     1      36.612 -19.930 -20.510  0.00  0.00    +0.036 C 
ATOM     18  C   UNL     1      34.607 -21.443 -19.444  0.00  0.00    +0.140 C 
ATOM     19  C   UNL     1      36.843 -20.935 -19.585  0.00  0.00    +0.101 C 
ENDBRANCH   3  15
TORSDOF 1
ENDMDL
MODEL 2
REMARK VINA RESULT:      -9.8      0.896      2.540
REMARK  Name = 25134265
REMARK  1 active torsions:
REMARK  status: ('A' for Active; 'I' for Inactive)
REMARK    1  A    between atoms: N_3  and  C_15
REMARK                            x       y       z     vdW  Elec       q    Type
REMARK                         _______ _______ _______ _____ _____    ______ ____
ROOT
ATOM      1  O   UNL     1      34.502 -18.423 -23.950  0.00  0.00    -0.269 OA
ATOM      2  O   UNL     1      35.007 -16.078 -19.953  0.00  0.00    -0.269 OA
ATOM      3  N   UNL     1      34.883 -17.685 -21.712  0.00  0.00    -0.201 N 
ATOM      4  C   UNL     1      34.282 -16.183 -23.323  0.00  0.00    +0.055 C 
ATOM      5  C   UNL     1      34.400 -15.493 -22.133  0.00  0.00    +0.058 C 
ATOM      6  C   UNL     1      34.581 -17.589 -23.066  0.00  0.00    +0.259 C 
ATOM      7  C   UNL     1      34.792 -16.443 -21.095  0.00  0.00    +0.259 C 
ATOM      8  C   UNL     1      33.925 -15.553 -24.499  0.00  0.00    -0.017 C 
ATOM      9  C   UNL     1      34.174 -14.134 -22.051  0.00  0.00    +0.005 C 
ATOM     10  C   UNL     1      33.689 -14.176 -24.443  0.00  0.00    -0.004 C 
ATOM     11  C   UNL     1      33.813 -13.473 -23.229  0.00  0.00    -0.000 C 
ATOM     12  C   UNL     1      33.787 -16.281 -25.790  0.00  0.00    +0.031 C 
ENDROOT
BRANCH   3  15
ATOM     13 CL   UNL     1      33.501 -22.086 -19.413  0.00  0.00    -0.061 Cl
ATOM     14  N   UNL     1      35.940 -21.273 -19.739  0.00  0.00    -0.232 NA
ATOM     15  C   UNL     1      35.240 -18.902 -21.044  0.00  0.00    +0.065 C 
ATOM     16  C   UNL     1      34.252 -19.781 -20.617  0.00  0.00    +0.046 C 
ATOM     17  C   UNL     1      36.579 -19.207 -20.820  0.00  0.00    +0.036 C 
ATOM     18  C   UNL     1      34.651 -20.942 -19.975  0.00  0.00    +0.140 C 
ATOM     19  C   UNL     1      36.874 -20.394 -20.169  0.00  0.00    +0.101 C 
ENDBRANCH   3  15
TORSDOF 1
ENDMDL
MODEL 3
REMARK VINA RESULT:      -9.8      4.127      6.724
REMARK  Name = 25134265
REMARK  1 active torsions:
REMARK  status: ('A' for Active; 'I' for Inactive)
REMARK    1  A    between atoms: N_3  and  C_15
REMARK                            x       y       z     vdW  Elec       q    Type
REMARK                         _______ _______ _______ _____ _____    ______ ____
ROOT
ATOM      1  O   UNL     1      34.463 -15.181 -21.309  0.00  0.00    -0.269 OA
ATOM      2  O   UNL     1      33.180 -14.897 -25.781  0.00  0.00    -0.269 OA
ATOM      3  N   UNL     1      33.666 -14.557 -23.470  0.00  0.00    -0.201 N 
ATOM      4  C   UNL     1      34.533 -16.641 -23.131  0.00  0.00    +0.055 C 
ATOM      5  C   UNL     1      34.123 -16.569 -24.447  0.00  0.00    +0.058 C 
ATOM      6  C   UNL     1      34.239 -15.362 -22.492  0.00  0.00    +0.259 C 
ATOM      7  C   UNL     1      33.573 -15.236 -24.679  0.00  0.00    +0.259 C 
ATOM      8  C   UNL     1      35.103 -17.785 -22.606  0.00  0.00    -0.017 C 
ATOM      9  C   UNL     1      34.266 -17.633 -25.316  0.00  0.00    +0.005 C 
ATOM     10  C   UNL     1      35.258 -18.876 -23.465  0.00  0.00    -0.004 C 
ATOM     11  C   UNL     1      34.843 -18.800 -24.809  0.00  0.00    -0.000 C 
ATOM     12  C   UNL     1      35.545 -17.883 -21.189  0.00  0.00    +0.031 C 
ENDROOT
BRANCH   3  15
ATOM     13 CL   UNL     1      30.610 -11.178 -21.060  0.00  0.00    -0.061 Cl
ATOM     14  N   UNL     1      32.383 -10.575 -22.852  0.00  0.00    -0.232 NA
ATOM     15  C   UNL     1      33.231 -13.207 -23.259  0.00  0.00    +0.065 C 
ATOM     16  C   UNL     1      32.226 -12.932 -22.339  0.00  0.00    +0.046 C 
ATOM     17  C   UNL     1      33.813 -12.167 -23.976  0.00  0.00    +0.036 C 
ATOM     18  C   UNL     1      31.841 -11.611 -22.174  0.00  0.00    +0.140 C 
ATOM     19  C   UNL     1      33.357 -10.880 -23.738  0.00  0.00    +0.101 C 
ENDBRANCH   3  15
TORSDOF 1
ENDMDL
MODEL 4
REMARK VINA RESULT:      -9.7      2.746      6.336
REMARK  Name = 25134265
REMARK  1 active torsions:
REMARK  status: ('A' for Active; 'I' for Inactive)
REMARK    1  A    between atoms: N_3  and  C_15
REMARK                            x       y       z     vdW  Elec       q    Type
REMARK                         _______ _______ _______ _____ _____    ______ ____
ROOT
ATOM      1  O   UNL     1      36.751 -19.833 -20.238  0.00  0.00    -0.269 OA
ATOM      2  O   UNL     1      32.197 -20.255 -21.144  0.00  0.00    -0.269 OA
ATOM      3  N   UNL     1      34.516 -19.696 -21.064  0.00  0.00    -0.201 N 
ATOM      4  C   UNL     1      35.016 -21.126 -19.357  0.00  0.00    +0.055 C 
ATOM      5  C   UNL     1      33.661 -21.228 -19.603  0.00  0.00    +0.058 C 
ATOM      6  C   UNL     1      35.574 -20.143 -20.280  0.00  0.00    +0.259 C 
ATOM      7  C   UNL     1      33.330 -20.322 -20.700  0.00  0.00    +0.259 C 
ATOM      8  C   UNL     1      35.636 -21.868 -18.370  0.00  0.00    -0.017 C 
ATOM      9  C   UNL     1      32.850 -22.082 -18.882  0.00  0.00    +0.005 C 
ATOM     10  C   UNL     1      34.836 -22.739 -17.625  0.00  0.00    -0.004 C 
ATOM     11  C   UNL     1      33.455 -22.845 -17.880  0.00  0.00    -0.000 C 
ATOM     12  C   UNL     1      37.093 -21.767 -18.087  0.00  0.00    +0.031 C 
ENDROOT
BRANCH   3  15
ATOM     13 CL   UNL     1      34.593 -14.771 -22.583  0.00  0.00    -0.061 Cl
ATOM     14  N   UNL     1      34.862 -16.821 -24.146  0.00  0.00    -0.232 NA
ATOM     15  C   UNL     1      34.634 -18.720 -22.108  0.00  0.00    +0.065 C 
ATOM     16  C   UNL     1      34.557 -17.365 -21.810  0.00  0.00    +0.046 C 
ATOM     17  C   UNL     1      34.825 -19.128 -23.424  0.00  0.00    +0.036 C 
ATOM     18  C   UNL     1      34.675 -16.464 -22.856  0.00  0.00    +0.140 C 
ATOM     19  C   UNL     1      34.931 -18.148 -24.398  0.00  0.00    +0.101 C 
ENDBRANCH   3  15
TORSDOF 1
ENDMDL
MODEL 5
REMARK VINA RESULT:      -9.6      3.933      6.869
REMARK  Name = 25134265
REMARK  1 active torsions:
REMARK  status: ('A' for Active; 'I' for Inactive)
REMARK    1  A    between atoms: N_3  and  C_15
REMARK                            x       y       z     vdW  Elec       q    Type
REMARK                         _______ _______ _______ _____ _____    ______ ____
ROOT
ATOM      1  O   UNL     1      33.509 -15.671 -24.853  0.00  0.00    -0.269 OA
ATOM      2  O   UNL     1      34.654 -14.911 -20.399  0.00  0.00    -0.269 OA
ATOM      3  N   UNL     1      33.893 -14.815 -22.659  0.00  0.00    -0.201 N 
ATOM      4  C   UNL     1      34.509 -16.952 -23.175  0.00  0.00    +0.055 C 
ATOM      5  C   UNL     1      34.877 -16.717 -21.865  0.00  0.00    +0.058 C 
ATOM      6  C   UNL     1      33.884 -15.740 -23.697  0.00  0.00    +0.259 C 
ATOM      7  C   UNL     1      34.481 -15.354 -21.520  0.00  0.00    +0.259 C 
ATOM      8  C   UNL     1      34.747 -18.164 -23.793  0.00  0.00    -0.017 C 
ATOM      9  C   UNL     1      35.499 -17.681 -21.097  0.00  0.00    +0.005 C 
ATOM     10  C   UNL     1      35.378 -19.156 -23.037  0.00  0.00    -0.004 C 
ATOM     11  C   UNL     1      35.750 -18.916 -21.701  0.00  0.00    -0.000 C 
ATOM     12  C   UNL     1      34.363 -18.434 -25.205  0.00  0.00    +0.031 C 
ENDROOT
BRANCH   3  15
ATOM     13 CL   UNL     1      30.530 -11.232 -21.106  0.00  0.00    -0.061 Cl
ATOM     14  N   UNL     1      32.338 -10.892 -22.932  0.00  0.00    -0.232 NA
ATOM     15  C   UNL     1      33.365 -13.486 -22.751  0.00  0.00    +0.065 C 
ATOM     16  C   UNL     1      32.307 -13.096 -21.939  0.00  0.00    +0.046 C 
ATOM     17  C   UNL     1      33.912 -12.580 -23.654  0.00  0.00    +0.036 C 
ATOM     18  C   UNL     1      31.834 -11.800 -22.067  0.00  0.00    +0.140 C 
ATOM     19  C   UNL     1      33.367 -11.307 -23.706  0.00  0.00    +0.101 C 
ENDBRANCH   3  15
TORSDOF 1
ENDMDL
MODEL 6
REMARK VINA RESULT:      -9.6      2.788      6.194
REMARK  Name = 25134265
REMARK  1 active torsions:
REMARK  status: ('A' for Active; 'I' for Inactive)
REMARK    1  A    between atoms: N_3  and  C_15
REMARK                            x       y       z     vdW  Elec       q    Type
REMARK                         _______ _______ _______ _____ _____    ______ ____
ROOT
ATOM      1  O   UNL     1      32.862 -19.703 -21.373  0.00  0.00    -0.269 OA
ATOM      2  O   UNL     1      37.415 -18.745 -21.657  0.00  0.00    -0.269 OA
ATOM      3  N   UNL     1      35.044 -18.887 -21.889  0.00  0.00    -0.201 N 
ATOM      4  C   UNL     1      34.768 -20.448 -20.246  0.00  0.00    +0.055 C 
ATOM      5  C   UNL     1      36.120 -20.188 -20.352  0.00  0.00    +0.058 C 
ATOM      6  C   UNL     1      34.069 -19.626 -21.230  0.00  0.00    +0.259 C 
ATOM      7  C   UNL     1      36.309 -19.184 -21.396  0.00  0.00    +0.259 C 
ATOM      8  C   UNL     1      34.269 -21.358 -19.335  0.00  0.00    -0.017 C 
ATOM      9  C   UNL     1      37.049 -20.820 -19.549  0.00  0.00    +0.005 C 
ATOM     10  C   UNL     1      35.190 -22.012 -18.512  0.00  0.00    -0.004 C 
ATOM     11  C   UNL     1      36.568 -21.744 -18.618  0.00  0.00    -0.000 C 
ATOM     12  C   UNL     1      32.816 -21.655 -19.211  0.00  0.00    +0.031 C 
ENDROOT
BRANCH   3  15
ATOM     13 CL   UNL     1      34.192 -14.039 -23.418  0.00  0.00    -0.061 Cl
ATOM     14  N   UNL     1      34.265 -16.107 -24.979  0.00  0.00    -0.232 NA
ATOM     15  C   UNL     1      34.780 -17.944 -22.936  0.00  0.00    +0.065 C 
ATOM     16  C   UNL     1      34.638 -16.593 -22.641  0.00  0.00    +0.046 C 
ATOM     17  C   UNL     1      34.666 -18.378 -24.253  0.00  0.00    +0.036 C 
ATOM     18  C   UNL     1      34.382 -15.724 -23.689  0.00  0.00    +0.140 C 
ATOM     19  C   UNL     1      34.409 -17.428 -25.229  0.00  0.00    +0.101 C 
ENDBRANCH   3  15
TORSDOF 1
ENDMDL
MODEL 7
REMARK VINA RESULT:      -9.4      4.941      7.285
REMARK  Name = 25134265
REMARK  1 active torsions:
REMARK  status: ('A' for Active; 'I' for Inactive)
REMARK    1  A    between atoms: N_3  and  C_15
REMARK                            x       y       z     vdW  Elec       q    Type
REMARK                         _______ _______ _______ _____ _____    ______ ____
ROOT
ATOM      1  O   UNL     1      31.790 -13.141 -21.976  0.00  0.00    -0.269 OA
ATOM      2  O   UNL     1      34.416 -11.174 -25.288  0.00  0.00    -0.269 OA
ATOM      3  N   UNL     1      33.183 -12.618 -23.841  0.00  0.00    -0.201 N 
ATOM      4  C   UNL     1      32.439 -10.952 -22.471  0.00  0.00    +0.055 C 
ATOM      5  C   UNL     1      33.242 -10.373 -23.432  0.00  0.00    +0.058 C 
ATOM      6  C   UNL     1      32.399 -12.390 -22.717  0.00  0.00    +0.259 C 
ATOM      7  C   UNL     1      33.720 -11.429 -24.321  0.00  0.00    +0.259 C 
ATOM      8  C   UNL     1      31.831 -10.204 -21.480  0.00  0.00    -0.017 C 
ATOM      9  C   UNL     1      33.480  -9.013 -23.463  0.00  0.00    +0.005 C 
ATOM     10  C   UNL     1      32.058  -8.825 -21.489  0.00  0.00    -0.004 C 
ATOM     11  C   UNL     1      32.875  -8.235 -22.473  0.00  0.00    -0.000 C 
ATOM     12  C   UNL     1      30.967 -10.812 -20.433  0.00  0.00    +0.031 C 
ENDROOT
BRANCH   3  15
ATOM     13 CL   UNL     1      35.223 -17.345 -23.583  0.00  0.00    -0.061 Cl
ATOM     14  N   UNL     1      33.847 -16.418 -25.575  0.00  0.00    -0.232 NA
ATOM     15  C   UNL     1      33.408 -13.907 -24.428  0.00  0.00    +0.065 C 
ATOM     16  C   UNL     1      34.141 -14.868 -23.743  0.00  0.00    +0.046 C 
ATOM     17  C   UNL     1      32.893 -14.199 -25.687  0.00  0.00    +0.036 C 
ATOM     18  C   UNL     1      34.331 -16.097 -24.355  0.00  0.00    +0.140 C 
ATOM     19  C   UNL     1      33.139 -15.458 -26.211  0.00  0.00    +0.101 C 
ENDBRANCH   3  15
TORSDOF 1
ENDMDL
MODEL 8
REMARK VINA RESULT:      -9.3      7.229      9.705
REMARK  Name = 25134265
REMARK  1 active torsions:
REMARK  status: ('A' for Active; 'I' for Inactive)
REMARK    1  A    between atoms: N_3  and  C_15
REMARK                            x       y       z     vdW  Elec       q    Type
REMARK                         _______ _______ _______ _____ _____    ______ ____
ROOT
ATOM      1  O   UNL     1      35.709 -23.140 -16.636  0.00  0.00    -0.269 OA
ATOM      2  O   UNL     1      33.704 -24.367 -12.610  0.00  0.00    -0.269 OA
ATOM      3  N   UNL     1      35.170 -23.819 -14.413  0.00  0.00    -0.201 N 
ATOM      4  C   UNL     1      33.502 -23.344 -15.898  0.00  0.00    +0.055 C 
ATOM      5  C   UNL     1      32.908 -23.738 -14.715  0.00  0.00    +0.058 C 
ATOM      6  C   UNL     1      34.950 -23.398 -15.720  0.00  0.00    +0.259 C 
ATOM      7  C   UNL     1      33.965 -24.038 -13.754  0.00  0.00    +0.259 C 
ATOM      8  C   UNL     1      32.757 -22.988 -17.006  0.00  0.00    -0.017 C 
ATOM      9  C   UNL     1      31.536 -23.793 -14.571  0.00  0.00    +0.005 C 
ATOM     10  C   UNL     1      31.366 -23.037 -16.885  0.00  0.00    -0.004 C 
ATOM     11  C   UNL     1      30.761 -23.436 -15.678  0.00  0.00    -0.000 C 
ATOM     12  C   UNL     1      33.380 -22.566 -18.289  0.00  0.00    +0.031 C 
ENDROOT
BRANCH   3  15
ATOM     13 CL   UNL     1      39.848 -25.978 -14.503  0.00  0.00    -0.061 Cl
ATOM     14  N   UNL     1      38.986 -24.357 -12.674  0.00  0.00    -0.232 NA
ATOM     15  C   UNL     1      36.464 -24.002 -13.824  0.00  0.00    +0.065 C 
ATOM     16  C   UNL     1      37.398 -24.831 -14.433  0.00  0.00    +0.046 C 
ATOM     17  C   UNL     1      36.789 -23.348 -12.640  0.00  0.00    +0.036 C 
ATOM     18  C   UNL     1      38.634 -24.975 -13.823  0.00  0.00    +0.140 C 
ATOM     19  C   UNL     1      38.052 -23.558 -12.110  0.00  0.00    +0.101 C 
ENDBRANCH   3  15
TORSDOF 1
ENDMDL
MODEL 9
REMARK VINA RESULT:      -9.2      5.062      7.736
REMARK  Name = 25134265
REMARK  1 active torsions:
REMARK  status: ('A' for Active; 'I' for Inactive)
REMARK    1  A    between atoms: N_3  and  C_15
REMARK                            x       y       z     vdW  Elec       q    Type
REMARK                         _______ _______ _______ _____ _____    ______ ____
ROOT
ATOM      1  O   UNL     1      34.703 -10.764 -24.977  0.00  0.00    -0.269 OA
ATOM      2  O   UNL     1      31.608 -12.467 -21.936  0.00  0.00    -0.269 OA
ATOM      3  N   UNL     1      33.242 -12.088 -23.634  0.00  0.00    -0.201 N 
ATOM      4  C   UNL     1      33.347  -9.830 -23.320  0.00  0.00    +0.055 C 
ATOM      5  C   UNL     1      32.407 -10.329 -22.441  0.00  0.00    +0.058 C 
ATOM      6  C   UNL     1      33.884 -10.945 -24.095  0.00  0.00    +0.259 C 
ATOM      7  C   UNL     1      32.336 -11.776 -22.627  0.00  0.00    +0.259 C 
ATOM      8  C   UNL     1      33.646  -8.482 -23.381  0.00  0.00    -0.017 C 
ATOM      9  C   UNL     1      31.716  -9.512 -21.569  0.00  0.00    +0.005 C 
ATOM     10  C   UNL     1      32.958  -7.634 -22.509  0.00  0.00    -0.004 C 
ATOM     11  C   UNL     1      32.002  -8.145 -21.610  0.00  0.00    -0.000 C 
ATOM     12  C   UNL     1      34.651  -7.925 -24.325  0.00  0.00    +0.031 C 
ENDROOT
BRANCH   3  15
ATOM     13 CL   UNL     1      35.272 -16.785 -23.014  0.00  0.00    -0.061 Cl
ATOM     14  N   UNL     1      33.954 -15.990 -25.100  0.00  0.00    -0.232 NA
ATOM     15  C   UNL     1      33.484 -13.411 -24.130  0.00  0.00    +0.065 C 
ATOM     16  C   UNL     1      34.197 -14.326 -23.364  0.00  0.00    +0.046 C 
ATOM     17  C   UNL     1      33.004 -13.785 -25.381  0.00  0.00    +0.036 C 
ATOM     18  C   UNL     1      34.403 -15.591 -23.889  0.00  0.00    +0.140 C 
ATOM     19  C   UNL     1      33.265 -15.074 -25.817  0.00  0.00    +0.101 C 
ENDBRANCH   3  15
TORSDOF 1
ENDMDL
