MODEL 1
REMARK VINA RESULT:      -9.3      0.000      0.000
REMARK  Name = 145729
REMARK  10 active torsions:
REMARK  status: ('A' for Active; 'I' for Inactive)
REMARK    1  A    between atoms: C_2  and  O_15
REMARK    2  A    between atoms: C_3  and  C_17
REMARK    3  A    between atoms: C_5  and  N_8
REMARK    4  A    between atoms: C_17  and  O_18
REMARK    5  A    between atoms: O_18  and  P_19
REMARK    6  A    between atoms: P_19  and  O_21
REMARK    7  A    between atoms: P_19  and  O_23
REMARK    8  A    between atoms: O_23  and  P_24
REMARK    9  A    between atoms: P_24  and  O_26
REMARK   10  A    between atoms: P_24  and  O_28
REMARK                            x       y       z     vdW  Elec       q    Type
REMARK                         _______ _______ _______ _____ _____    ______ ____
ROOT
ATOM      1  O   UNL     1      35.118 -24.586 -16.084  0.00  0.00    -0.335 OA
ATOM      2  C   UNL     1      36.795 -22.971 -15.638  0.00  0.00    +0.144 C 
ATOM      3  C   UNL     1      36.349 -24.400 -15.359  0.00  0.00    +0.174 C 
ATOM      4  C   UNL     1      35.491 -22.244 -15.870  0.00  0.00    +0.083 C 
ATOM      5  C   UNL     1      34.632 -23.312 -16.530  0.00  0.00    +0.202 C 
ENDROOT
BRANCH   5   8
ATOM      6  O   UNL     1      32.615 -22.605 -18.372  0.00  0.00    -0.252 OA
ATOM      7  O   UNL     1      29.330 -22.876 -15.149  0.00  0.00    -0.270 OA
ATOM      8  N   UNL     1      33.243 -23.191 -16.199  0.00  0.00    -0.219 N 
ATOM      9  N   UNL     1      30.981 -22.740 -16.765  0.00  0.00    -0.236 N 
ATOM     10  C   UNL     1      32.311 -22.830 -17.199  0.00  0.00    +0.315 C 
ATOM     11  C   UNL     1      32.818 -23.429 -14.899  0.00  0.00    +0.076 C 
ATOM     12  C   UNL     1      31.548 -23.340 -14.500  0.00  0.00    +0.074 C 
ATOM     13  C   UNL     1      30.509 -22.967 -15.481  0.00  0.00    +0.254 C 
ATOM     14  H   UNL     1      30.312 -22.489 -17.443  0.00  0.00    +0.159 HD
ENDBRANCH   5   8
BRANCH   2  15
ATOM     15  O   UNL     1      37.585 -22.931 -16.825  0.00  0.00    -0.382 OA
ATOM     16  H   UNL     1      37.827 -23.835 -17.081  0.00  0.00    +0.210 HD
ENDBRANCH   2  15
BRANCH   3  17
ATOM     17  C   UNL     1      36.068 -24.656 -13.885  0.00  0.00    +0.186 C 
BRANCH  17  18
ATOM     18  O   UNL     1      36.898 -23.811 -13.106  0.00  0.00    -0.270 OA
BRANCH  18  19
ATOM     19  P   UNL     1      38.316 -24.358 -12.553  0.00  0.00    +0.484 P 
ATOM     20  O   UNL     1      38.972 -23.478 -11.528  0.00  0.00    -0.227 OA
BRANCH  19  21
ATOM     21  O   UNL     1      37.997 -25.858 -12.039  0.00  0.00    -0.302 OA
ATOM     22  H   UNL     1      37.309 -25.827 -11.356  0.00  0.00    +0.222 HD
ENDBRANCH  19  21
BRANCH  19  23
ATOM     23  O   UNL     1      39.204 -24.602 -13.882  0.00  0.00    -0.186 OA
BRANCH  23  24
ATOM     24  P   UNL     1      39.873 -25.947 -14.477  0.00  0.00    +0.481 P 
ATOM     25  O   UNL     1      41.046 -26.462 -13.697  0.00  0.00    -0.227 OA
BRANCH  24  26
ATOM     26  O   UNL     1      40.185 -25.552 -16.013  0.00  0.00    -0.302 OA
ATOM     27  H   UNL     1      40.240 -24.587 -16.094  0.00  0.00    +0.222 HD
ENDBRANCH  24  26
BRANCH  24  28
ATOM     28  O   UNL     1      38.622 -26.965 -14.596  0.00  0.00    -0.302 OA
ATOM     29  H   UNL     1      37.840 -26.564 -14.188  0.00  0.00    +0.222 HD
ENDBRANCH  24  28
ENDBRANCH  23  24
ENDBRANCH  19  23
ENDBRANCH  18  19
ENDBRANCH  17  18
ENDBRANCH   3  17
TORSDOF 10
ENDMDL
MODEL 2
REMARK VINA RESULT:      -8.5      2.122      3.871
REMARK  Name = 145729
REMARK  10 active torsions:
REMARK  status: ('A' for Active; 'I' for Inactive)
REMARK    1  A    between atoms: C_2  and  O_15
REMARK    2  A    between atoms: C_3  and  C_17
REMARK    3  A    between atoms: C_5  and  N_8
REMARK    4  A    between atoms: C_17  and  O_18
REMARK    5  A    between atoms: O_18  and  P_19
REMARK    6  A    between atoms: P_19  and  O_21
REMARK    7  A    between atoms: P_19  and  O_23
REMARK    8  A    between atoms: O_23  and  P_24
REMARK    9  A    between atoms: P_24  and  O_26
REMARK   10  A    between atoms: P_24  and  O_28
REMARK                            x       y       z     vdW  Elec       q    Type
REMARK                         _______ _______ _______ _____ _____    ______ ____
ROOT
ATOM      1  O   UNL     1      34.673 -22.731 -14.385  0.00  0.00    -0.335 OA
ATOM      2  C   UNL     1      34.066 -24.990 -14.001  0.00  0.00    +0.144 C 
ATOM      3  C   UNL     1      34.903 -23.829 -13.482  0.00  0.00    +0.174 C 
ATOM      4  C   UNL     1      34.009 -24.734 -15.489  0.00  0.00    +0.083 C 
ATOM      5  C   UNL     1      34.008 -23.215 -15.561  0.00  0.00    +0.202 C 
ENDROOT
BRANCH   5   8
ATOM      6  O   UNL     1      32.791 -22.912 -18.088  0.00  0.00    -0.252 OA
ATOM      7  O   UNL     1      36.675 -21.280 -19.960  0.00  0.00    -0.270 OA
ATOM      8  N   UNL     1      34.678 -22.713 -16.724  0.00  0.00    -0.219 N 
ATOM      9  N   UNL     1      34.727 -22.100 -19.018  0.00  0.00    -0.236 N 
ATOM     10  C   UNL     1      33.976 -22.601 -17.946  0.00  0.00    +0.315 C 
ATOM     11  C   UNL     1      36.013 -22.340 -16.647  0.00  0.00    +0.076 C 
ATOM     12  C   UNL     1      36.715 -21.864 -17.677  0.00  0.00    +0.074 C 
ATOM     13  C   UNL     1      36.058 -21.715 -18.991  0.00  0.00    +0.254 C 
ATOM     14  H   UNL     1      34.260 -22.014 -19.881  0.00  0.00    +0.159 HD
ENDBRANCH   5   8
BRANCH   2  15
ATOM     15  O   UNL     1      32.751 -24.924 -13.452  0.00  0.00    -0.382 OA
ATOM     16  H   UNL     1      32.376 -24.045 -13.618  0.00  0.00    +0.210 HD
ENDBRANCH   2  15
BRANCH   3  17
ATOM     17  C   UNL     1      36.396 -24.130 -13.480  0.00  0.00    +0.186 C 
BRANCH  17  18
ATOM     18  O   UNL     1      36.584 -25.523 -13.669  0.00  0.00    -0.270 OA
BRANCH  18  19
ATOM     19  P   UNL     1      37.447 -26.059 -14.927  0.00  0.00    +0.484 P 
ATOM     20  O   UNL     1      36.732 -27.047 -15.803  0.00  0.00    -0.227 OA
BRANCH  19  21
ATOM     21  O   UNL     1      37.926 -24.715 -15.691  0.00  0.00    -0.302 OA
ATOM     22  H   UNL     1      37.714 -23.940 -15.146  0.00  0.00    +0.222 HD
ENDBRANCH  19  21
BRANCH  19  23
ATOM     23  O   UNL     1      38.814 -26.621 -14.273  0.00  0.00    -0.186 OA
BRANCH  23  24
ATOM     24  P   UNL     1      40.346 -26.136 -14.440  0.00  0.00    +0.481 P 
ATOM     25  O   UNL     1      41.361 -27.027 -13.786  0.00  0.00    -0.227 OA
BRANCH  24  26
ATOM     26  O   UNL     1      40.310 -24.615 -13.894  0.00  0.00    -0.302 OA
ATOM     27  H   UNL     1      41.161 -24.400 -13.481  0.00  0.00    +0.222 HD
ENDBRANCH  24  26
BRANCH  24  28
ATOM     28  O   UNL     1      40.510 -25.960 -16.039  0.00  0.00    -0.302 OA
ATOM     29  H   UNL     1      41.378 -25.575 -16.234  0.00  0.00    +0.222 HD
ENDBRANCH  24  28
ENDBRANCH  23  24
ENDBRANCH  19  23
ENDBRANCH  18  19
ENDBRANCH  17  18
ENDBRANCH   3  17
TORSDOF 10
ENDMDL
MODEL 3
REMARK VINA RESULT:      -8.4      8.926     12.029
REMARK  Name = 145729
REMARK  10 active torsions:
REMARK  status: ('A' for Active; 'I' for Inactive)
REMARK    1  A    between atoms: C_2  and  O_15
REMARK    2  A    between atoms: C_3  and  C_17
REMARK    3  A    between atoms: C_5  and  N_8
REMARK    4  A    between atoms: C_17  and  O_18
REMARK    5  A    between atoms: O_18  and  P_19
REMARK    6  A    between atoms: P_19  and  O_21
REMARK    7  A    between atoms: P_19  and  O_23
REMARK    8  A    between atoms: O_23  and  P_24
REMARK    9  A    between atoms: P_24  and  O_26
REMARK   10  A    between atoms: P_24  and  O_28
REMARK                            x       y       z     vdW  Elec       q    Type
REMARK                         _______ _______ _______ _____ _____    ______ ____
ROOT
ATOM      1  O   UNL     1      35.272 -17.262 -20.764  0.00  0.00    -0.335 OA
ATOM      2  C   UNL     1      34.676 -16.647 -22.974  0.00  0.00    +0.144 C 
ATOM      3  C   UNL     1      34.722 -16.172 -21.528  0.00  0.00    +0.174 C 
ATOM      4  C   UNL     1      34.504 -18.141 -22.840  0.00  0.00    +0.083 C 
ATOM      5  C   UNL     1      35.283 -18.449 -21.570  0.00  0.00    +0.202 C 
ENDROOT
BRANCH   5   8
ATOM      6  O   UNL     1      36.807 -20.407 -20.227  0.00  0.00    -0.252 OA
ATOM      7  O   UNL     1      33.025 -22.578 -18.733  0.00  0.00    -0.270 OA
ATOM      8  N   UNL     1      34.723 -19.536 -20.823  0.00  0.00    -0.219 N 
ATOM      9  N   UNL     1      34.922 -21.487 -19.485  0.00  0.00    -0.236 N 
ATOM     10  C   UNL     1      35.576 -20.465 -20.186  0.00  0.00    +0.315 C 
ATOM     11  C   UNL     1      33.344 -19.671 -20.728  0.00  0.00    +0.076 C 
ATOM     12  C   UNL     1      32.735 -20.650 -20.055  0.00  0.00    +0.074 C 
ATOM     13  C   UNL     1      33.553 -21.665 -19.361  0.00  0.00    +0.254 C 
ATOM     14  H   UNL     1      35.496 -22.148 -19.033  0.00  0.00    +0.159 HD
ENDBRANCH   5   8
BRANCH   2  15
ATOM     15  O   UNL     1      35.916 -16.362 -23.618  0.00  0.00    -0.382 OA
ATOM     16  H   UNL     1      35.955 -16.831 -24.466  0.00  0.00    +0.210 HD
ENDBRANCH   2  15
BRANCH   3  17
ATOM     17  C   UNL     1      33.343 -15.854 -20.965  0.00  0.00    +0.186 C 
BRANCH  17  18
ATOM     18  O   UNL     1      32.553 -15.272 -21.988  0.00  0.00    -0.270 OA
BRANCH  18  19
ATOM     19  P   UNL     1      32.692 -13.695 -22.319  0.00  0.00    +0.484 P 
ATOM     20  O   UNL     1      34.065 -13.260 -22.741  0.00  0.00    -0.227 OA
BRANCH  19  21
ATOM     21  O   UNL     1      31.535 -13.408 -23.413  0.00  0.00    -0.302 OA
ATOM     22  H   UNL     1      31.485 -12.456 -23.589  0.00  0.00    +0.222 HD
ENDBRANCH  19  21
BRANCH  19  23
ATOM     23  O   UNL     1      32.140 -12.951 -20.993  0.00  0.00    -0.186 OA
BRANCH  23  24
ATOM     24  P   UNL     1      31.584 -11.450 -20.774  0.00  0.00    +0.481 P 
ATOM     25  O   UNL     1      31.809 -10.892 -19.400  0.00  0.00    -0.227 OA
BRANCH  24  26
ATOM     26  O   UNL     1      30.037 -11.563 -21.228  0.00  0.00    -0.302 OA
ATOM     27  H   UNL     1      29.992 -11.787 -22.171  0.00  0.00    +0.222 HD
ENDBRANCH  24  26
BRANCH  24  28
ATOM     28  O   UNL     1      32.271 -10.618 -21.979  0.00  0.00    -0.302 OA
ATOM     29  H   UNL     1      31.683 -10.620 -22.749  0.00  0.00    +0.222 HD
ENDBRANCH  24  28
ENDBRANCH  23  24
ENDBRANCH  19  23
ENDBRANCH  18  19
ENDBRANCH  17  18
ENDBRANCH   3  17
TORSDOF 10
ENDMDL
MODEL 4
REMARK VINA RESULT:      -8.4      9.555     12.487
REMARK  Name = 145729
REMARK  10 active torsions:
REMARK  status: ('A' for Active; 'I' for Inactive)
REMARK    1  A    between atoms: C_2  and  O_15
REMARK    2  A    between atoms: C_3  and  C_17
REMARK    3  A    between atoms: C_5  and  N_8
REMARK    4  A    between atoms: C_17  and  O_18
REMARK    5  A    between atoms: O_18  and  P_19
REMARK    6  A    between atoms: P_19  and  O_21
REMARK    7  A    between atoms: P_19  and  O_23
REMARK    8  A    between atoms: O_23  and  P_24
REMARK    9  A    between atoms: P_24  and  O_26
REMARK   10  A    between atoms: P_24  and  O_28
REMARK                            x       y       z     vdW  Elec       q    Type
REMARK                         _______ _______ _______ _____ _____    ______ ____
ROOT
ATOM      1  O   UNL     1      35.247 -16.972 -21.113  0.00  0.00    -0.335 OA
ATOM      2  C   UNL     1      34.694 -16.440 -23.356  0.00  0.00    +0.144 C 
ATOM      3  C   UNL     1      34.709 -15.912 -21.928  0.00  0.00    +0.174 C 
ATOM      4  C   UNL     1      34.524 -17.929 -23.170  0.00  0.00    +0.083 C 
ATOM      5  C   UNL     1      35.278 -18.187 -21.875  0.00  0.00    +0.202 C 
ENDROOT
BRANCH   5   8
ATOM      6  O   UNL     1      36.780 -20.075 -20.412  0.00  0.00    -0.252 OA
ATOM      7  O   UNL     1      32.976 -22.219 -18.934  0.00  0.00    -0.270 OA
ATOM      8  N   UNL     1      34.706 -19.248 -21.100  0.00  0.00    -0.219 N 
ATOM      9  N   UNL     1      34.884 -21.142 -19.678  0.00  0.00    -0.236 N 
ATOM     10  C   UNL     1      35.549 -20.143 -20.402  0.00  0.00    +0.315 C 
ATOM     11  C   UNL     1      33.327 -19.392 -21.037  0.00  0.00    +0.076 C 
ATOM     12  C   UNL     1      32.707 -20.348 -20.342  0.00  0.00    +0.074 C 
ATOM     13  C   UNL     1      33.514 -21.326 -19.584  0.00  0.00    +0.254 C 
ATOM     14  H   UNL     1      35.450 -21.779 -19.184  0.00  0.00    +0.159 HD
ENDBRANCH   5   8
BRANCH   2  15
ATOM     15  O   UNL     1      35.946 -16.174 -23.985  0.00  0.00    -0.382 OA
ATOM     16  H   UNL     1      36.549 -15.767 -23.344  0.00  0.00    +0.210 HD
ENDBRANCH   2  15
BRANCH   3  17
ATOM     17  C   UNL     1      33.319 -15.579 -21.404  0.00  0.00    +0.186 C 
BRANCH  17  18
ATOM     18  O   UNL     1      33.169 -14.169 -21.366  0.00  0.00    -0.270 OA
BRANCH  18  19
ATOM     19  P   UNL     1      32.568 -13.385 -22.646  0.00  0.00    +0.484 P 
ATOM     20  O   UNL     1      32.063 -14.273 -23.747  0.00  0.00    -0.227 OA
BRANCH  19  21
ATOM     21  O   UNL     1      31.452 -12.392 -22.025  0.00  0.00    -0.302 OA
ATOM     22  H   UNL     1      30.578 -12.810 -22.085  0.00  0.00    +0.222 HD
ENDBRANCH  19  21
BRANCH  19  23
ATOM     23  O   UNL     1      33.750 -12.378 -23.099  0.00  0.00    -0.186 OA
BRANCH  23  24
ATOM     24  P   UNL     1      33.782 -11.220 -24.225  0.00  0.00    +0.481 P 
ATOM     25  O   UNL     1      33.669 -11.716 -25.637  0.00  0.00    -0.227 OA
BRANCH  24  26
ATOM     26  O   UNL     1      35.141 -10.414 -23.884  0.00  0.00    -0.302 OA
ATOM     27  H   UNL     1      34.951  -9.722 -23.232  0.00  0.00    +0.222 HD
ENDBRANCH  24  26
BRANCH  24  28
ATOM     28  O   UNL     1      32.613 -10.207 -23.753  0.00  0.00    -0.302 OA
ATOM     29  H   UNL     1      31.749 -10.614 -23.916  0.00  0.00    +0.222 HD
ENDBRANCH  24  28
ENDBRANCH  23  24
ENDBRANCH  19  23
ENDBRANCH  18  19
ENDBRANCH  17  18
ENDBRANCH   3  17
TORSDOF 10
ENDMDL
MODEL 5
REMARK VINA RESULT:      -8.3      3.669      7.401
REMARK  Name = 145729
REMARK  10 active torsions:
REMARK  status: ('A' for Active; 'I' for Inactive)
REMARK    1  A    between atoms: C_2  and  O_15
REMARK    2  A    between atoms: C_3  and  C_17
REMARK    3  A    between atoms: C_5  and  N_8
REMARK    4  A    between atoms: C_17  and  O_18
REMARK    5  A    between atoms: O_18  and  P_19
REMARK    6  A    between atoms: P_19  and  O_21
REMARK    7  A    between atoms: P_19  and  O_23
REMARK    8  A    between atoms: O_23  and  P_24
REMARK    9  A    between atoms: P_24  and  O_26
REMARK   10  A    between atoms: P_24  and  O_28
REMARK                            x       y       z     vdW  Elec       q    Type
REMARK                         _______ _______ _______ _____ _____    ______ ____
ROOT
ATOM      1  O   UNL     1      34.137 -24.608 -14.945  0.00  0.00    -0.335 OA
ATOM      2  C   UNL     1      34.461 -23.976 -12.683  0.00  0.00    +0.144 C 
ATOM      3  C   UNL     1      33.423 -24.405 -13.710  0.00  0.00    +0.174 C 
ATOM      4  C   UNL     1      35.504 -23.274 -13.522  0.00  0.00    +0.083 C 
ATOM      5  C   UNL     1      35.456 -24.055 -14.826  0.00  0.00    +0.202 C 
ENDROOT
BRANCH   5   8
ATOM      6  O   UNL     1      37.964 -22.886 -15.376  0.00  0.00    -0.252 OA
ATOM      7  O   UNL     1      36.407 -20.944 -19.256  0.00  0.00    -0.270 OA
ATOM      8  N   UNL     1      35.733 -23.240 -15.972  0.00  0.00    -0.219 N 
ATOM      9  N   UNL     1      37.186 -21.919 -17.308  0.00  0.00    -0.236 N 
ATOM     10  C   UNL     1      37.027 -22.701 -16.155  0.00  0.00    +0.315 C 
ATOM     11  C   UNL     1      34.730 -22.984 -16.898  0.00  0.00    +0.076 C 
ATOM     12  C   UNL     1      34.897 -22.238 -17.992  0.00  0.00    +0.074 C 
ATOM     13  C   UNL     1      36.219 -21.635 -18.259  0.00  0.00    +0.254 C 
ATOM     14  H   UNL     1      38.079 -21.531 -17.457  0.00  0.00    +0.159 HD
ENDBRANCH   5   8
BRANCH   2  15
ATOM     15  O   UNL     1      35.037 -25.125 -12.064  0.00  0.00    -0.382 OA
ATOM     16  H   UNL     1      34.334 -25.667 -11.674  0.00  0.00    +0.210 HD
ENDBRANCH   2  15
BRANCH   3  17
ATOM     17  C   UNL     1      32.357 -23.346 -13.954  0.00  0.00    +0.186 C 
BRANCH  17  18
ATOM     18  O   UNL     1      31.512 -23.779 -15.008  0.00  0.00    -0.270 OA
BRANCH  18  19
ATOM     19  P   UNL     1      30.209 -24.678 -14.681  0.00  0.00    +0.484 P 
ATOM     20  O   UNL     1      30.204 -26.035 -15.325  0.00  0.00    -0.227 OA
BRANCH  19  21
ATOM     21  O   UNL     1      30.132 -24.706 -13.065  0.00  0.00    -0.302 OA
ATOM     22  H   UNL     1      29.843 -23.839 -12.740  0.00  0.00    +0.222 HD
ENDBRANCH  19  21
BRANCH  19  23
ATOM     23  O   UNL     1      28.956 -23.745 -15.096  0.00  0.00    -0.186 OA
BRANCH  23  24
ATOM     24  P   UNL     1      28.627 -22.961 -16.471  0.00  0.00    +0.481 P 
ATOM     25  O   UNL     1      29.824 -22.372 -17.158  0.00  0.00    -0.227 OA
BRANCH  24  26
ATOM     26  O   UNL     1      27.496 -21.896 -16.023  0.00  0.00    -0.302 OA
ATOM     27  H   UNL     1      26.837 -21.809 -16.730  0.00  0.00    +0.222 HD
ENDBRANCH  24  26
BRANCH  24  28
ATOM     28  O   UNL     1      27.801 -24.050 -17.333  0.00  0.00    -0.302 OA
ATOM     29  H   UNL     1      26.884 -23.753 -17.436  0.00  0.00    +0.222 HD
ENDBRANCH  24  28
ENDBRANCH  23  24
ENDBRANCH  19  23
ENDBRANCH  18  19
ENDBRANCH  17  18
ENDBRANCH   3  17
TORSDOF 10
ENDMDL
MODEL 6
REMARK VINA RESULT:      -8.2      8.522     11.475
REMARK  Name = 145729
REMARK  10 active torsions:
REMARK  status: ('A' for Active; 'I' for Inactive)
REMARK    1  A    between atoms: C_2  and  O_15
REMARK    2  A    between atoms: C_3  and  C_17
REMARK    3  A    between atoms: C_5  and  N_8
REMARK    4  A    between atoms: C_17  and  O_18
REMARK    5  A    between atoms: O_18  and  P_19
REMARK    6  A    between atoms: P_19  and  O_21
REMARK    7  A    between atoms: P_19  and  O_23
REMARK    8  A    between atoms: O_23  and  P_24
REMARK    9  A    between atoms: P_24  and  O_26
REMARK   10  A    between atoms: P_24  and  O_28
REMARK                            x       y       z     vdW  Elec       q    Type
REMARK                         _______ _______ _______ _____ _____    ______ ____
ROOT
ATOM      1  O   UNL     1      35.426 -17.937 -20.721  0.00  0.00    -0.335 OA
ATOM      2  C   UNL     1      34.829 -17.486 -22.971  0.00  0.00    +0.144 C 
ATOM      3  C   UNL     1      34.946 -16.883 -21.577  0.00  0.00    +0.174 C 
ATOM      4  C   UNL     1      34.543 -18.943 -22.691  0.00  0.00    +0.083 C 
ATOM      5  C   UNL     1      35.325 -19.192 -21.410  0.00  0.00    +0.202 C 
ENDROOT
BRANCH   5   8
ATOM      6  O   UNL     1      36.713 -21.190 -19.981  0.00  0.00    -0.252 OA
ATOM      7  O   UNL     1      32.814 -22.838 -18.153  0.00  0.00    -0.270 OA
ATOM      8  N   UNL     1      34.698 -20.155 -20.554  0.00  0.00    -0.219 N 
ATOM      9  N   UNL     1      34.770 -22.009 -19.073  0.00  0.00    -0.236 N 
ATOM     10  C   UNL     1      35.486 -21.117 -19.882  0.00  0.00    +0.315 C 
ATOM     11  C   UNL     1      33.319 -20.139 -20.388  0.00  0.00    +0.076 C 
ATOM     12  C   UNL     1      32.651 -20.995 -19.613  0.00  0.00    +0.074 C 
ATOM     13  C   UNL     1      33.398 -22.034 -18.875  0.00  0.00    +0.254 C 
ATOM     14  H   UNL     1      35.297 -22.690 -18.595  0.00  0.00    +0.159 HD
ENDBRANCH   5   8
BRANCH   2  15
ATOM     15  O   UNL     1      36.073 -17.364 -23.658  0.00  0.00    -0.382 OA
ATOM     16  H   UNL     1      36.565 -18.198 -23.586  0.00  0.00    +0.210 HD
ENDBRANCH   2  15
BRANCH   3  17
ATOM     17  C   UNL     1      33.610 -16.403 -21.026  0.00  0.00    +0.186 C 
BRANCH  17  18
ATOM     18  O   UNL     1      32.882 -15.775 -22.069  0.00  0.00    -0.270 OA
BRANCH  18  19
ATOM     19  P   UNL     1      32.949 -14.170 -22.249  0.00  0.00    +0.484 P 
ATOM     20  O   UNL     1      32.227 -13.388 -21.191  0.00  0.00    -0.227 OA
BRANCH  19  21
ATOM     21  O   UNL     1      34.530 -13.842 -22.359  0.00  0.00    -0.302 OA
ATOM     22  H   UNL     1      34.975 -14.554 -22.845  0.00  0.00    +0.222 HD
ENDBRANCH  19  21
BRANCH  19  23
ATOM     23  O   UNL     1      32.411 -13.906 -23.751  0.00  0.00    -0.186 OA
BRANCH  23  24
ATOM     24  P   UNL     1      33.180 -13.930 -25.172  0.00  0.00    +0.481 P 
ATOM     25  O   UNL     1      33.821 -12.630 -25.559  0.00  0.00    -0.227 OA
BRANCH  24  26
ATOM     26  O   UNL     1      32.048 -14.472 -26.191  0.00  0.00    -0.302 OA
ATOM     27  H   UNL     1      31.671 -13.725 -26.681  0.00  0.00    +0.222 HD
ENDBRANCH  24  26
BRANCH  24  28
ATOM     28  O   UNL     1      34.191 -15.183 -25.028  0.00  0.00    -0.302 OA
ATOM     29  H   UNL     1      34.965 -15.040 -25.593  0.00  0.00    +0.222 HD
ENDBRANCH  24  28
ENDBRANCH  23  24
ENDBRANCH  19  23
ENDBRANCH  18  19
ENDBRANCH  17  18
ENDBRANCH   3  17
TORSDOF 10
ENDMDL
MODEL 7
REMARK VINA RESULT:      -8.0      1.927      3.149
REMARK  Name = 145729
REMARK  10 active torsions:
REMARK  status: ('A' for Active; 'I' for Inactive)
REMARK    1  A    between atoms: C_2  and  O_15
REMARK    2  A    between atoms: C_3  and  C_17
REMARK    3  A    between atoms: C_5  and  N_8
REMARK    4  A    between atoms: C_17  and  O_18
REMARK    5  A    between atoms: O_18  and  P_19
REMARK    6  A    between atoms: P_19  and  O_21
REMARK    7  A    between atoms: P_19  and  O_23
REMARK    8  A    between atoms: O_23  and  P_24
REMARK    9  A    between atoms: P_24  and  O_26
REMARK   10  A    between atoms: P_24  and  O_28
REMARK                            x       y       z     vdW  Elec       q    Type
REMARK                         _______ _______ _______ _____ _____    ______ ____
ROOT
ATOM      1  O   UNL     1      34.330 -22.763 -14.692  0.00  0.00    -0.335 OA
ATOM      2  C   UNL     1      35.328 -24.095 -13.004  0.00  0.00    +0.144 C 
ATOM      3  C   UNL     1      35.542 -23.477 -14.379  0.00  0.00    +0.174 C 
ATOM      4  C   UNL     1      33.834 -24.314 -12.955  0.00  0.00    +0.083 C 
ATOM      5  C   UNL     1      33.303 -23.142 -13.765  0.00  0.00    +0.202 C 
ENDROOT
BRANCH   5   8
ATOM      6  O   UNL     1      30.855 -23.846 -12.552  0.00  0.00    -0.252 OA
ATOM      7  O   UNL     1      28.774 -24.350 -16.634  0.00  0.00    -0.270 OA
ATOM      8  N   UNL     1      32.107 -23.461 -14.487  0.00  0.00    -0.219 N 
ATOM      9  N   UNL     1      29.821 -24.097 -14.586  0.00  0.00    -0.236 N 
ATOM     10  C   UNL     1      30.930 -23.802 -13.782  0.00  0.00    +0.315 C 
ATOM     11  C   UNL     1      32.108 -23.434 -15.875  0.00  0.00    +0.076 C 
ATOM     12  C   UNL     1      31.044 -23.717 -16.628  0.00  0.00    +0.074 C 
ATOM     13  C   UNL     1      29.773 -24.084 -15.972  0.00  0.00    +0.254 C 
ATOM     14  H   UNL     1      28.989 -24.339 -14.118  0.00  0.00    +0.159 HD
ENDBRANCH   5   8
BRANCH   2  15
ATOM     15  O   UNL     1      35.710 -23.167 -11.990  0.00  0.00    -0.382 OA
ATOM     16  H   UNL     1      35.070 -22.440 -11.959  0.00  0.00    +0.210 HD
ENDBRANCH   2  15
BRANCH   3  17
ATOM     17  C   UNL     1      35.768 -24.518 -15.467  0.00  0.00    +0.186 C 
BRANCH  17  18
ATOM     18  O   UNL     1      37.063 -25.074 -15.308  0.00  0.00    -0.270 OA
BRANCH  18  19
ATOM     19  P   UNL     1      37.231 -26.642 -14.952  0.00  0.00    +0.484 P 
ATOM     20  O   UNL     1      36.496 -27.089 -13.722  0.00  0.00    -0.227 OA
BRANCH  19  21
ATOM     21  O   UNL     1      36.796 -27.412 -16.307  0.00  0.00    -0.302 OA
ATOM     22  H   UNL     1      36.234 -26.831 -16.844  0.00  0.00    +0.222 HD
ENDBRANCH  19  21
BRANCH  19  23
ATOM     23  O   UNL     1      38.830 -26.876 -14.890  0.00  0.00    -0.186 OA
BRANCH  23  24
ATOM     24  P   UNL     1      40.042 -25.846 -14.603  0.00  0.00    +0.481 P 
ATOM     25  O   UNL     1      41.291 -26.482 -14.069  0.00  0.00    -0.227 OA
BRANCH  24  26
ATOM     26  O   UNL     1      39.363 -24.741 -13.639  0.00  0.00    -0.302 OA
ATOM     27  H   UNL     1      38.545 -24.415 -14.046  0.00  0.00    +0.222 HD
ENDBRANCH  24  26
BRANCH  24  28
ATOM     28  O   UNL     1      40.210 -25.068 -16.010  0.00  0.00    -0.302 OA
ATOM     29  H   UNL     1      41.146 -25.052 -16.261  0.00  0.00    +0.222 HD
ENDBRANCH  24  28
ENDBRANCH  23  24
ENDBRANCH  19  23
ENDBRANCH  18  19
ENDBRANCH  17  18
ENDBRANCH   3  17
TORSDOF 10
ENDMDL
MODEL 8
REMARK VINA RESULT:      -8.0      2.256      3.815
REMARK  Name = 145729
REMARK  10 active torsions:
REMARK  status: ('A' for Active; 'I' for Inactive)
REMARK    1  A    between atoms: C_2  and  O_15
REMARK    2  A    between atoms: C_3  and  C_17
REMARK    3  A    between atoms: C_5  and  N_8
REMARK    4  A    between atoms: C_17  and  O_18
REMARK    5  A    between atoms: O_18  and  P_19
REMARK    6  A    between atoms: P_19  and  O_21
REMARK    7  A    between atoms: P_19  and  O_23
REMARK    8  A    between atoms: O_23  and  P_24
REMARK    9  A    between atoms: P_24  and  O_26
REMARK   10  A    between atoms: P_24  and  O_28
REMARK                            x       y       z     vdW  Elec       q    Type
REMARK                         _______ _______ _______ _____ _____    ______ ____
ROOT
ATOM      1  O   UNL     1      32.342 -22.770 -14.224  0.00  0.00    -0.335 OA
ATOM      2  C   UNL     1      33.633 -24.714 -13.804  0.00  0.00    +0.144 C 
ATOM      3  C   UNL     1      33.696 -23.263 -14.260  0.00  0.00    +0.174 C 
ATOM      4  C   UNL     1      32.252 -25.150 -14.235  0.00  0.00    +0.083 C 
ATOM      5  C   UNL     1      31.439 -23.875 -14.072  0.00  0.00    +0.202 C 
ENDROOT
BRANCH   5   8
ATOM      6  O   UNL     1      29.522 -25.883 -14.574  0.00  0.00    -0.252 OA
ATOM      7  O   UNL     1      27.435 -23.332 -17.798  0.00  0.00    -0.270 OA
ATOM      8  N   UNL     1      30.385 -23.762 -15.036  0.00  0.00    -0.219 N 
ATOM      9  N   UNL     1      28.485 -24.611 -16.180  0.00  0.00    -0.236 N 
ATOM     10  C   UNL     1      29.474 -24.829 -15.211  0.00  0.00    +0.315 C 
ATOM     11  C   UNL     1      30.262 -22.604 -15.794  0.00  0.00    +0.076 C 
ATOM     12  C   UNL     1      29.313 -22.411 -16.713  0.00  0.00    +0.074 C 
ATOM     13  C   UNL     1      28.321 -23.477 -16.960  0.00  0.00    +0.254 C 
ATOM     14  H   UNL     1      27.839 -25.341 -16.321  0.00  0.00    +0.159 HD
ENDBRANCH   5   8
BRANCH   2  15
ATOM     15  O   UNL     1      33.736 -24.780 -12.383  0.00  0.00    -0.382 OA
ATOM     16  H   UNL     1      34.422 -25.420 -12.138  0.00  0.00    +0.210 HD
ENDBRANCH   2  15
BRANCH   3  17
ATOM     17  C   UNL     1      34.211 -23.111 -15.685  0.00  0.00    +0.186 C 
BRANCH  17  18
ATOM     18  O   UNL     1      35.485 -22.488 -15.648  0.00  0.00    -0.270 OA
BRANCH  18  19
ATOM     19  P   UNL     1      36.797 -23.354 -15.271  0.00  0.00    +0.484 P 
ATOM     20  O   UNL     1      38.062 -22.903 -15.942  0.00  0.00    -0.227 OA
BRANCH  19  21
ATOM     21  O   UNL     1      36.851 -23.321 -13.654  0.00  0.00    -0.302 OA
ATOM     22  H   UNL     1      37.247 -24.144 -13.327  0.00  0.00    +0.222 HD
ENDBRANCH  19  21
BRANCH  19  23
ATOM     23  O   UNL     1      36.384 -24.883 -15.597  0.00  0.00    -0.186 OA
BRANCH  23  24
ATOM     24  P   UNL     1      37.103 -26.279 -15.216  0.00  0.00    +0.481 P 
ATOM     25  O   UNL     1      36.711 -27.442 -16.080  0.00  0.00    -0.227 OA
BRANCH  24  26
ATOM     26  O   UNL     1      36.770 -26.445 -13.643  0.00  0.00    -0.302 OA
ATOM     27  H   UNL     1      36.299 -25.658 -13.328  0.00  0.00    +0.222 HD
ENDBRANCH  24  26
BRANCH  24  28
ATOM     28  O   UNL     1      38.676 -25.906 -15.232  0.00  0.00    -0.302 OA
ATOM     29  H   UNL     1      39.200 -26.709 -15.095  0.00  0.00    +0.222 HD
ENDBRANCH  24  28
ENDBRANCH  23  24
ENDBRANCH  19  23
ENDBRANCH  18  19
ENDBRANCH  17  18
ENDBRANCH   3  17
TORSDOF 10
ENDMDL
MODEL 9
REMARK VINA RESULT:      -8.0      3.604      7.271
REMARK  Name = 145729
REMARK  10 active torsions:
REMARK  status: ('A' for Active; 'I' for Inactive)
REMARK    1  A    between atoms: C_2  and  O_15
REMARK    2  A    between atoms: C_3  and  C_17
REMARK    3  A    between atoms: C_5  and  N_8
REMARK    4  A    between atoms: C_17  and  O_18
REMARK    5  A    between atoms: O_18  and  P_19
REMARK    6  A    between atoms: P_19  and  O_21
REMARK    7  A    between atoms: P_19  and  O_23
REMARK    8  A    between atoms: O_23  and  P_24
REMARK    9  A    between atoms: P_24  and  O_26
REMARK   10  A    between atoms: P_24  and  O_28
REMARK                            x       y       z     vdW  Elec       q    Type
REMARK                         _______ _______ _______ _____ _____    ______ ____
ROOT
ATOM      1  O   UNL     1      34.976 -25.332 -15.074  0.00  0.00    -0.335 OA
ATOM      2  C   UNL     1      33.686 -23.873 -13.723  0.00  0.00    +0.144 C 
ATOM      3  C   UNL     1      33.926 -24.348 -15.149  0.00  0.00    +0.174 C 
ATOM      4  C   UNL     1      35.037 -24.047 -13.071  0.00  0.00    +0.083 C 
ATOM      5  C   UNL     1      35.588 -25.275 -13.778  0.00  0.00    +0.202 C 
ENDROOT
BRANCH   5   8
ATOM      6  O   UNL     1      37.404 -26.542 -12.029  0.00  0.00    -0.252 OA
ATOM      7  O   UNL     1      41.039 -25.066 -14.449  0.00  0.00    -0.270 OA
ATOM      8  N   UNL     1      37.013 -25.238 -13.928  0.00  0.00    -0.219 N 
ATOM      9  N   UNL     1      39.213 -25.805 -13.236  0.00  0.00    -0.236 N 
ATOM     10  C   UNL     1      37.836 -25.907 -12.994  0.00  0.00    +0.315 C 
ATOM     11  C   UNL     1      37.579 -24.545 -14.990  0.00  0.00    +0.076 C 
ATOM     12  C   UNL     1      38.893 -24.457 -15.208  0.00  0.00    +0.074 C 
ATOM     13  C   UNL     1      39.825 -25.127 -14.278  0.00  0.00    +0.254 C 
ATOM     14  H   UNL     1      39.808 -26.262 -12.597  0.00  0.00    +0.159 HD
ENDBRANCH   5   8
BRANCH   2  15
ATOM     15  O   UNL     1      32.732 -24.720 -13.084  0.00  0.00    -0.382 OA
ATOM     16  H   UNL     1      32.525 -24.367 -12.204  0.00  0.00    +0.210 HD
ENDBRANCH   2  15
BRANCH   3  17
ATOM     17  C   UNL     1      34.395 -23.233 -16.074  0.00  0.00    +0.186 C 
BRANCH  17  18
ATOM     18  O   UNL     1      33.399 -23.004 -17.058  0.00  0.00    -0.270 OA
BRANCH  18  19
ATOM     19  P   UNL     1      33.828 -22.710 -18.589  0.00  0.00    +0.484 P 
ATOM     20  O   UNL     1      33.878 -23.923 -19.472  0.00  0.00    -0.227 OA
BRANCH  19  21
ATOM     21  O   UNL     1      32.797 -21.565 -19.084  0.00  0.00    -0.302 OA
ATOM     22  H   UNL     1      33.293 -20.834 -19.485  0.00  0.00    +0.222 HD
ENDBRANCH  19  21
BRANCH  19  23
ATOM     23  O   UNL     1      35.233 -21.918 -18.473  0.00  0.00    -0.186 OA
BRANCH  23  24
ATOM     24  P   UNL     1      35.995 -20.951 -19.520  0.00  0.00    +0.481 P 
ATOM     25  O   UNL     1      35.098 -20.012 -20.272  0.00  0.00    -0.227 OA
BRANCH  24  26
ATOM     26  O   UNL     1      36.830 -21.989 -20.435  0.00  0.00    -0.302 OA
ATOM     27  H   UNL     1      37.778 -21.793 -20.363  0.00  0.00    +0.222 HD
ENDBRANCH  24  26
BRANCH  24  28
ATOM     28  O   UNL     1      37.133 -20.244 -18.615  0.00  0.00    -0.302 OA
ATOM     29  H   UNL     1      36.759 -19.464 -18.177  0.00  0.00    +0.222 HD
ENDBRANCH  24  28
ENDBRANCH  23  24
ENDBRANCH  19  23
ENDBRANCH  18  19
ENDBRANCH  17  18
ENDBRANCH   3  17
TORSDOF 10
ENDMDL
