MODEL 1
REMARK VINA RESULT:      -4.9      0.000      0.000
REMARK  Name = 11073394
REMARK  5 active torsions:
REMARK  status: ('A' for Active; 'I' for Inactive)
REMARK    1  A    between atoms: CA_1  and  N_2
REMARK    2  A    between atoms: CA_1  and  C_7
REMARK    3  A    between atoms: CA_1  and  C_10
REMARK    4  A    between atoms: C_7  and  O_8
REMARK    5  A    between atoms: C_10  and  N_12
REMARK                            x       y       z     vdW  Elec       q    Type
REMARK                         _______ _______ _______ _____ _____    ______ ____
ROOT
ATOM      1  CA  UNL     1      38.679 -25.655 -14.540  0.00  0.00    +0.016 C 
ENDROOT
BRANCH   1   2
ATOM      2  N   UNL     1      38.707 -26.006 -13.116  0.00  0.00    +0.387 N 
ATOM      3  H1  UNL     1      37.751 -26.073 -12.764  0.00  0.00    -0.089 HD
ATOM      4  H2  UNL     1      39.209 -25.286 -12.598  0.00  0.00    -0.089 HD
ATOM      5  H3  UNL     1      39.177 -26.903 -12.995  0.00  0.00    -0.089 HD
ENDBRANCH   1   2
BRANCH   1   7
ATOM      6  OXT UNL     1      40.905 -24.675 -14.306  0.00  0.00    -0.253 OA
ATOM      7  C   UNL     1      40.115 -25.354 -14.949  0.00  0.00    +0.291 C 
BRANCH   7   8
ATOM      8  O   UNL     1      40.446 -25.944 -16.128  0.00  0.00    -0.482 OA
ATOM      9  H   UNL     1      40.229 -25.526 -16.938  0.00  0.00    +0.295 HD
ENDBRANCH   7   8
ENDBRANCH   1   7
BRANCH   1  10
ATOM     10  C   UNL     1      37.696 -24.498 -14.824  0.00  0.00    -0.076 C 
ATOM     11  C   UNL     1      37.268 -23.706 -13.585  0.00  0.00    -0.026 C 
BRANCH  10  12
ATOM     12  N   UNL     1      38.272 -23.579 -15.812  0.00  0.00    +0.381 N 
ATOM     13  H   UNL     1      38.229 -22.625 -15.453  0.00  0.00    -0.089 HD
ATOM     14  H   UNL     1      37.743 -23.639 -16.682  0.00  0.00    -0.089 HD
ATOM     15  H   UNL     1      39.245 -23.833 -15.987  0.00  0.00    -0.089 HD
ENDBRANCH  10  12
ENDBRANCH   1  10
TORSDOF 5
ENDMDL
MODEL 2
REMARK VINA RESULT:      -4.7      1.418      2.141
REMARK  Name = 11073394
REMARK  5 active torsions:
REMARK  status: ('A' for Active; 'I' for Inactive)
REMARK    1  A    between atoms: CA_1  and  N_2
REMARK    2  A    between atoms: CA_1  and  C_7
REMARK    3  A    between atoms: CA_1  and  C_10
REMARK    4  A    between atoms: C_7  and  O_8
REMARK    5  A    between atoms: C_10  and  N_12
REMARK                            x       y       z     vdW  Elec       q    Type
REMARK                         _______ _______ _______ _____ _____    ______ ____
ROOT
ATOM      1  CA  UNL     1      39.051 -25.169 -14.225  0.00  0.00    +0.016 C 
ENDROOT
BRANCH   1   2
ATOM      2  N   UNL     1      38.128 -25.109 -15.363  0.00  0.00    +0.387 N 
ATOM      3  H1  UNL     1      38.225 -25.955 -15.925  0.00  0.00    -0.089 HD
ATOM      4  H2  UNL     1      38.348 -24.295 -15.936  0.00  0.00    -0.089 HD
ATOM      5  H3  UNL     1      37.170 -25.036 -15.022  0.00  0.00    -0.089 HD
ENDBRANCH   1   2
BRANCH   1   7
ATOM      6  OXT UNL     1      41.043 -26.557 -13.946  0.00  0.00    -0.253 OA
ATOM      7  C   UNL     1      40.269 -25.959 -14.684  0.00  0.00    +0.291 C 
BRANCH   7   8
ATOM      8  O   UNL     1      40.409 -25.946 -16.035  0.00  0.00    -0.482 OA
ATOM      9  H   UNL     1      39.802 -25.467 -16.564  0.00  0.00    +0.295 HD
ENDBRANCH   7   8
ENDBRANCH   1   7
BRANCH   1  10
ATOM     10  C   UNL     1      38.370 -25.752 -12.967  0.00  0.00    -0.076 C 
ATOM     11  C   UNL     1      37.796 -24.704 -12.009  0.00  0.00    -0.026 C 
BRANCH  10  12
ATOM     12  N   UNL     1      37.307 -26.686 -13.357  0.00  0.00    +0.381 N 
ATOM     13  H   UNL     1      37.713 -27.604 -13.537  0.00  0.00    -0.089 HD
ATOM     14  H   UNL     1      36.848 -26.345 -14.202  0.00  0.00    -0.089 HD
ATOM     15  H   UNL     1      36.624 -26.758 -12.603  0.00  0.00    -0.089 HD
ENDBRANCH  10  12
ENDBRANCH   1  10
TORSDOF 5
ENDMDL
MODEL 3
REMARK VINA RESULT:      -4.5      4.015      4.687
REMARK  Name = 11073394
REMARK  5 active torsions:
REMARK  status: ('A' for Active; 'I' for Inactive)
REMARK    1  A    between atoms: CA_1  and  N_2
REMARK    2  A    between atoms: CA_1  and  C_7
REMARK    3  A    between atoms: CA_1  and  C_10
REMARK    4  A    between atoms: C_7  and  O_8
REMARK    5  A    between atoms: C_10  and  N_12
REMARK                            x       y       z     vdW  Elec       q    Type
REMARK                         _______ _______ _______ _____ _____    ______ ____
ROOT
ATOM      1  CA  UNL     1      36.691 -24.108 -12.366  0.00  0.00    +0.016 C 
ENDROOT
BRANCH   1   2
ATOM      2  N   UNL     1      37.600 -23.641 -11.313  0.00  0.00    +0.387 N 
ATOM      3  H1  UNL     1      38.197 -24.412 -11.012  0.00  0.00    -0.089 HD
ATOM      4  H2  UNL     1      37.056 -23.304 -10.519  0.00  0.00    -0.089 HD
ATOM      5  H3  UNL     1      38.179 -22.884 -11.674  0.00  0.00    -0.089 HD
ENDBRANCH   1   2
BRANCH   1   7
ATOM      6  OXT UNL     1      35.417 -25.052 -10.508  0.00  0.00    -0.253 OA
ATOM      7  C   UNL     1      35.459 -24.671 -11.671  0.00  0.00    +0.291 C 
BRANCH   7   8
ATOM      8  O   UNL     1      34.376 -24.697 -12.490  0.00  0.00    -0.482 OA
ATOM      9  H   UNL     1      34.328 -25.323 -13.185  0.00  0.00    +0.295 HD
ENDBRANCH   7   8
ENDBRANCH   1   7
BRANCH   1  10
ATOM     10  C   UNL     1      37.384 -25.111 -13.314  0.00  0.00    -0.076 C 
ATOM     11  C   UNL     1      38.913 -25.121 -13.226  0.00  0.00    -0.026 C 
BRANCH  10  12
ATOM     12  N   UNL     1      36.875 -26.466 -13.072  0.00  0.00    +0.381 N 
ATOM     13  H   UNL     1      37.647 -27.072 -12.792  0.00  0.00    -0.089 HD
ATOM     14  H   UNL     1      36.451 -26.829 -13.926  0.00  0.00    -0.089 HD
ATOM     15  H   UNL     1      36.177 -26.440 -12.329  0.00  0.00    -0.089 HD
ENDBRANCH  10  12
ENDBRANCH   1  10
TORSDOF 5
ENDMDL
MODEL 4
REMARK VINA RESULT:      -4.4      2.679      3.219
REMARK  Name = 11073394
REMARK  5 active torsions:
REMARK  status: ('A' for Active; 'I' for Inactive)
REMARK    1  A    between atoms: CA_1  and  N_2
REMARK    2  A    between atoms: CA_1  and  C_7
REMARK    3  A    between atoms: CA_1  and  C_10
REMARK    4  A    between atoms: C_7  and  O_8
REMARK    5  A    between atoms: C_10  and  N_12
REMARK                            x       y       z     vdW  Elec       q    Type
REMARK                         _______ _______ _______ _____ _____    ______ ____
ROOT
ATOM      1  CA  UNL     1      36.892 -25.602 -13.956  0.00  0.00    +0.016 C 
ENDROOT
BRANCH   1   2
ATOM      2  N   UNL     1      37.133 -26.974 -13.497  0.00  0.00    +0.387 N 
ATOM      3  H1  UNL     1      36.600 -27.146 -12.644  0.00  0.00    -0.089 HD
ATOM      4  H2  UNL     1      38.127 -27.099 -13.307  0.00  0.00    -0.089 HD
ATOM      5  H3  UNL     1      36.840 -27.631 -14.219  0.00  0.00    -0.089 HD
ENDBRANCH   1   2
BRANCH   1   7
ATOM      6  OXT UNL     1      35.294 -24.898 -15.665  0.00  0.00    -0.253 OA
ATOM      7  C   UNL     1      36.129 -25.702 -15.270  0.00  0.00    +0.291 C 
BRANCH   7   8
ATOM      8  O   UNL     1      36.488 -26.798 -15.988  0.00  0.00    -0.482 OA
ATOM      9  H   UNL     1      35.871 -27.202 -16.566  0.00  0.00    +0.295 HD
ENDBRANCH   7   8
ENDBRANCH   1   7
BRANCH   1  10
ATOM     10  C   UNL     1      38.204 -24.795 -14.059  0.00  0.00    -0.076 C 
ATOM     11  C   UNL     1      39.467 -25.581 -13.691  0.00  0.00    -0.026 C 
BRANCH  10  12
ATOM     12  N   UNL     1      38.352 -24.245 -15.412  0.00  0.00    +0.381 N 
ATOM     13  H   UNL     1      39.319 -23.952 -15.554  0.00  0.00    -0.089 HD
ATOM     14  H   UNL     1      37.734 -23.441 -15.522  0.00  0.00    -0.089 HD
ATOM     15  H   UNL     1      38.108 -24.959 -16.098  0.00  0.00    -0.089 HD
ENDBRANCH  10  12
ENDBRANCH   1  10
TORSDOF 5
ENDMDL
MODEL 5
REMARK VINA RESULT:      -4.3     10.142     10.851
REMARK  Name = 11073394
REMARK  5 active torsions:
REMARK  status: ('A' for Active; 'I' for Inactive)
REMARK    1  A    between atoms: CA_1  and  N_2
REMARK    2  A    between atoms: CA_1  and  C_7
REMARK    3  A    between atoms: CA_1  and  C_10
REMARK    4  A    between atoms: C_7  and  O_8
REMARK    5  A    between atoms: C_10  and  N_12
REMARK                            x       y       z     vdW  Elec       q    Type
REMARK                         _______ _______ _______ _____ _____    ______ ____
ROOT
ATOM      1  CA  UNL     1      40.966 -14.361 -16.205  0.00  0.00    +0.016 C 
ENDROOT
BRANCH   1   2
ATOM      2  N   UNL     1      41.581 -13.489 -15.199  0.00  0.00    +0.387 N 
ATOM      3  H1  UNL     1      42.090 -12.737 -15.665  0.00  0.00    -0.089 HD
ATOM      4  H2  UNL     1      42.228 -14.032 -14.627  0.00  0.00    -0.089 HD
ATOM      5  H3  UNL     1      40.855 -13.090 -14.604  0.00  0.00    -0.089 HD
ENDBRANCH   1   2
BRANCH   1   7
ATOM      6  OXT UNL     1      42.357 -16.307 -15.710  0.00  0.00    -0.253 OA
ATOM      7  C   UNL     1      41.247 -15.796 -15.779  0.00  0.00    +0.291 C 
BRANCH   7   8
ATOM      8  O   UNL     1      40.109 -16.468 -15.461  0.00  0.00    -0.482 OA
ATOM      9  H   UNL     1      39.469 -16.644 -16.122  0.00  0.00    +0.295 HD
ENDBRANCH   7   8
ENDBRANCH   1   7
BRANCH   1  10
ATOM     10  C   UNL     1      41.460 -14.027 -17.629  0.00  0.00    -0.076 C 
ATOM     11  C   UNL     1      42.625 -13.033 -17.683  0.00  0.00    -0.026 C 
BRANCH  10  12
ATOM     12  N   UNL     1      41.840 -15.258 -18.332  0.00  0.00    +0.381 N 
ATOM     13  H   UNL     1      42.803 -15.499 -18.097  0.00  0.00    -0.089 HD
ATOM     14  H   UNL     1      41.762 -15.113 -19.339  0.00  0.00    -0.089 HD
ATOM     15  H   UNL     1      41.221 -16.017 -18.048  0.00  0.00    -0.089 HD
ENDBRANCH  10  12
ENDBRANCH   1  10
TORSDOF 5
ENDMDL
MODEL 6
REMARK VINA RESULT:      -4.3      9.897     10.567
REMARK  Name = 11073394
REMARK  5 active torsions:
REMARK  status: ('A' for Active; 'I' for Inactive)
REMARK    1  A    between atoms: CA_1  and  N_2
REMARK    2  A    between atoms: CA_1  and  C_7
REMARK    3  A    between atoms: CA_1  and  C_10
REMARK    4  A    between atoms: C_7  and  O_8
REMARK    5  A    between atoms: C_10  and  N_12
REMARK                            x       y       z     vdW  Elec       q    Type
REMARK                         _______ _______ _______ _____ _____    ______ ____
ROOT
ATOM      1  CA  UNL     1      42.056 -15.613 -16.166  0.00  0.00    +0.016 C 
ENDROOT
BRANCH   1   2
ATOM      2  N   UNL     1      41.820 -16.767 -17.040  0.00  0.00    +0.387 N 
ATOM      3  H1  UNL     1      41.702 -17.606 -16.472  0.00  0.00    -0.089 HD
ATOM      4  H2  UNL     1      42.616 -16.889 -17.665  0.00  0.00    -0.089 HD
ATOM      5  H3  UNL     1      40.977 -16.610 -17.591  0.00  0.00    -0.089 HD
ENDBRANCH   1   2
BRANCH   1   7
ATOM      6  OXT UNL     1      40.777 -14.747 -14.273  0.00  0.00    -0.253 OA
ATOM      7  C   UNL     1      40.890 -15.551 -15.189  0.00  0.00    +0.291 C 
BRANCH   7   8
ATOM      8  O   UNL     1      39.951 -16.498 -15.453  0.00  0.00    -0.482 OA
ATOM      9  H   UNL     1      39.625 -16.605 -16.325  0.00  0.00    +0.295 HD
ENDBRANCH   7   8
ENDBRANCH   1   7
BRANCH   1  10
ATOM     10  C   UNL     1      42.258 -14.314 -16.976  0.00  0.00    -0.076 C 
ATOM     11  C   UNL     1      41.179 -14.046 -18.031  0.00  0.00    -0.026 C 
BRANCH  10  12
ATOM     12  N   UNL     1      42.346 -13.164 -16.070  0.00  0.00    +0.381 N 
ATOM     13  H   UNL     1      43.131 -13.295 -15.432  0.00  0.00    -0.089 HD
ATOM     14  H   UNL     1      41.482 -13.086 -15.534  0.00  0.00    -0.089 HD
ATOM     15  H   UNL     1      42.488 -12.312 -16.614  0.00  0.00    -0.089 HD
ENDBRANCH  10  12
ENDBRANCH   1  10
TORSDOF 5
ENDMDL
MODEL 7
REMARK VINA RESULT:      -4.3      2.947      3.471
REMARK  Name = 11073394
REMARK  5 active torsions:
REMARK  status: ('A' for Active; 'I' for Inactive)
REMARK    1  A    between atoms: CA_1  and  N_2
REMARK    2  A    between atoms: CA_1  and  C_7
REMARK    3  A    between atoms: CA_1  and  C_10
REMARK    4  A    between atoms: C_7  and  O_8
REMARK    5  A    between atoms: C_10  and  N_12
REMARK                            x       y       z     vdW  Elec       q    Type
REMARK                         _______ _______ _______ _____ _____    ______ ____
ROOT
ATOM      1  CA  UNL     1      38.064 -24.659 -13.371  0.00  0.00    +0.016 C 
ENDROOT
BRANCH   1   2
ATOM      2  N   UNL     1      39.288 -25.452 -13.531  0.00  0.00    +0.387 N 
ATOM      3  H1  UNL     1      39.046 -26.389 -13.855  0.00  0.00    -0.089 HD
ATOM      4  H2  UNL     1      39.771 -25.517 -12.636  0.00  0.00    -0.089 HD
ATOM      5  H3  UNL     1      39.897 -25.004 -14.214  0.00  0.00    -0.089 HD
ENDBRANCH   1   2
BRANCH   1   7
ATOM      6  OXT UNL     1      38.767 -23.038 -11.683  0.00  0.00    -0.253 OA
ATOM      7  C   UNL     1      38.120 -24.034 -11.984  0.00  0.00    +0.291 C 
BRANCH   7   8
ATOM      8  O   UNL     1      37.347 -24.703 -11.089  0.00  0.00    -0.482 OA
ATOM      9  H   UNL     1      36.551 -24.318 -10.778  0.00  0.00    +0.295 HD
ENDBRANCH   7   8
ENDBRANCH   1   7
BRANCH   1  10
ATOM     10  C   UNL     1      36.797 -25.507 -13.620  0.00  0.00    -0.076 C 
ATOM     11  C   UNL     1      36.180 -25.337 -15.012  0.00  0.00    -0.026 C 
BRANCH  10  12
ATOM     12  N   UNL     1      37.087 -26.926 -13.387  0.00  0.00    +0.381 N 
ATOM     13  H   UNL     1      36.671 -27.216 -12.502  0.00  0.00    -0.089 HD
ATOM     14  H   UNL     1      38.097 -27.066 -13.350  0.00  0.00    -0.089 HD
ATOM     15  H   UNL     1      36.694 -27.483 -14.146  0.00  0.00    -0.089 HD
ENDBRANCH  10  12
ENDBRANCH   1  10
TORSDOF 5
ENDMDL
MODEL 8
REMARK VINA RESULT:      -4.2      3.684      4.749
REMARK  Name = 11073394
REMARK  5 active torsions:
REMARK  status: ('A' for Active; 'I' for Inactive)
REMARK    1  A    between atoms: CA_1  and  N_2
REMARK    2  A    between atoms: CA_1  and  C_7
REMARK    3  A    between atoms: CA_1  and  C_10
REMARK    4  A    between atoms: C_7  and  O_8
REMARK    5  A    between atoms: C_10  and  N_12
REMARK                            x       y       z     vdW  Elec       q    Type
REMARK                         _______ _______ _______ _____ _____    ______ ____
ROOT
ATOM      1  CA  UNL     1      35.650 -24.544 -12.685  0.00  0.00    +0.016 C 
ENDROOT
BRANCH   1   2
ATOM      2  N   UNL     1      35.734 -23.143 -13.112  0.00  0.00    +0.387 N 
ATOM      3  H1  UNL     1      36.416 -22.651 -12.534  0.00  0.00    -0.089 HD
ATOM      4  H2  UNL     1      34.821 -22.701 -13.009  0.00  0.00    -0.089 HD
ATOM      5  H3  UNL     1      36.023 -23.102 -14.089  0.00  0.00    -0.089 HD
ENDBRANCH   1   2
BRANCH   1   7
ATOM      6  OXT UNL     1      35.219 -25.169 -10.363  0.00  0.00    -0.253 OA
ATOM      7  C   UNL     1      35.898 -24.564 -11.183  0.00  0.00    +0.291 C 
BRANCH   7   8
ATOM      8  O   UNL     1      36.988 -23.833 -10.833  0.00  0.00    -0.482 OA
ATOM      9  H   UNL     1      36.995 -22.906 -10.972  0.00  0.00    +0.295 HD
ENDBRANCH   7   8
ENDBRANCH   1   7
BRANCH   1  10
ATOM     10  C   UNL     1      36.616 -25.444 -13.486  0.00  0.00    -0.076 C 
ATOM     11  C   UNL     1      37.602 -24.685 -14.380  0.00  0.00    -0.026 C 
BRANCH  10  12
ATOM     12  N   UNL     1      37.362 -26.319 -12.574  0.00  0.00    +0.381 N 
ATOM     13  H   UNL     1      37.040 -26.166 -11.619  0.00  0.00    -0.089 HD
ATOM     14  H   UNL     1      38.358 -26.105 -12.636  0.00  0.00    -0.089 HD
ATOM     15  H   UNL     1      37.206 -27.293 -12.834  0.00  0.00    -0.089 HD
ENDBRANCH  10  12
ENDBRANCH   1  10
TORSDOF 5
ENDMDL
MODEL 9
REMARK VINA RESULT:      -4.2      9.523     10.264
REMARK  Name = 11073394
REMARK  5 active torsions:
REMARK  status: ('A' for Active; 'I' for Inactive)
REMARK    1  A    between atoms: CA_1  and  N_2
REMARK    2  A    between atoms: CA_1  and  C_7
REMARK    3  A    between atoms: CA_1  and  C_10
REMARK    4  A    between atoms: C_7  and  O_8
REMARK    5  A    between atoms: C_10  and  N_12
REMARK                            x       y       z     vdW  Elec       q    Type
REMARK                         _______ _______ _______ _____ _____    ______ ____
ROOT
ATOM      1  CA  UNL     1      29.956 -24.204 -16.058  0.00  0.00    +0.016 C 
ENDROOT
BRANCH   1   2
ATOM      2  N   UNL     1      30.658 -22.920 -15.951  0.00  0.00    +0.387 N 
ATOM      3  H1  UNL     1      30.428 -22.338 -16.757  0.00  0.00    -0.089 HD
ATOM      4  H2  UNL     1      31.664 -23.084 -15.927  0.00  0.00    -0.089 HD
ATOM      5  H3  UNL     1      30.371 -22.446 -15.096  0.00  0.00    -0.089 HD
ENDBRANCH   1   2
BRANCH   1   7
ATOM      6  OXT UNL     1      27.879 -24.449 -17.322  0.00  0.00    -0.253 OA
ATOM      7  C   UNL     1      28.515 -23.889 -16.438  0.00  0.00    +0.291 C 
BRANCH   7   8
ATOM      8  O   UNL     1      27.985 -22.906 -15.665  0.00  0.00    -0.482 OA
ATOM      9  H   UNL     1      27.789 -22.070 -16.039  0.00  0.00    +0.295 HD
ENDBRANCH   7   8
ENDBRANCH   1   7
BRANCH   1  10
ATOM     10  C   UNL     1      30.090 -25.038 -14.766  0.00  0.00    -0.076 C 
ATOM     11  C   UNL     1      30.714 -24.288 -13.584  0.00  0.00    -0.026 C 
BRANCH  10  12
ATOM     12  N   UNL     1      28.780 -25.566 -14.368  0.00  0.00    +0.381 N 
ATOM     13  H   UNL     1      28.907 -26.290 -13.661  0.00  0.00    -0.089 HD
ATOM     14  H   UNL     1      28.312 -25.964 -15.183  0.00  0.00    -0.089 HD
ATOM     15  H   UNL     1      28.212 -24.811 -13.984  0.00  0.00    -0.089 HD
ENDBRANCH  10  12
ENDBRANCH   1  10
TORSDOF 5
ENDMDL
