MODEL 1
REMARK VINA RESULT:      -7.1      0.000      0.000
REMARK  Name = 84894
REMARK  3 active torsions:
REMARK  status: ('A' for Active; 'I' for Inactive)
REMARK    1  A    between atoms: C_5  and  C_13
REMARK    2  A    between atoms: C_13  and  O_14
REMARK    3  A    between atoms: O_14  and  C_15
REMARK                            x       y       z     vdW  Elec       q    Type
REMARK                         _______ _______ _______ _____ _____    ______ ____
ROOT
ATOM      1  O   UNL     1      32.309 -19.844 -20.579  0.00  0.00    -0.269 OA
ATOM      2  N   UNL     1      32.851 -21.690 -19.301  0.00  0.00    -0.254 N 
ATOM      3  N   UNL     1      35.087 -22.361 -18.986  0.00  0.00    -0.216 NA
ATOM      4  N   UNL     1      33.336 -23.568 -17.995  0.00  0.00    -0.331 N 
ATOM      5  C   UNL     1      34.597 -20.419 -20.337  0.00  0.00    +0.148 C 
ATOM      6  C   UNL     1      33.146 -20.601 -20.100  0.00  0.00    +0.259 C 
ATOM      7  C   UNL     1      35.441 -21.295 -19.773  0.00  0.00    +0.113 C 
ATOM      8  C   UNL     1      33.813 -22.539 -18.764  0.00  0.00    +0.185 C 
ATOM      9  H   UNL     1      31.906 -21.874 -19.098  0.00  0.00    +0.158 HD
ATOM     10  H   UNL     1      32.367 -23.668 -17.853  0.00  0.00    +0.145 HD
ATOM     11  H   UNL     1      33.962 -24.207 -17.586  0.00  0.00    +0.145 HD
ENDROOT
BRANCH   5  13
ATOM     12  O   UNL     1      35.726 -18.363 -20.684  0.00  0.00    -0.245 OA
ATOM     13  C   UNL     1      35.154 -19.337 -21.150  0.00  0.00    +0.347 C 
BRANCH  13  14
ATOM     14  O   UNL     1      34.924 -19.614 -22.459  0.00  0.00    -0.445 OA
BRANCH  14  15
ATOM     15  C   UNL     1      35.295 -18.583 -23.380  0.00  0.00    +0.209 C 
ATOM     16  C   UNL     1      34.502 -18.752 -24.658  0.00  0.00    +0.051 C 
ENDBRANCH  14  15
ENDBRANCH  13  14
ENDBRANCH   5  13
TORSDOF 3
ENDMDL
MODEL 2
REMARK VINA RESULT:      -6.9      1.840      2.837
REMARK  Name = 84894
REMARK  3 active torsions:
REMARK  status: ('A' for Active; 'I' for Inactive)
REMARK    1  A    between atoms: C_5  and  C_13
REMARK    2  A    between atoms: C_13  and  O_14
REMARK    3  A    between atoms: O_14  and  C_15
REMARK                            x       y       z     vdW  Elec       q    Type
REMARK                         _______ _______ _______ _____ _____    ______ ____
ROOT
ATOM      1  O   UNL     1      36.779 -20.461 -20.196  0.00  0.00    -0.269 OA
ATOM      2  N   UNL     1      34.823 -21.436 -19.446  0.00  0.00    -0.254 N 
ATOM      3  N   UNL     1      32.711 -20.649 -20.126  0.00  0.00    -0.216 NA
ATOM      4  N   UNL     1      32.880 -22.465 -18.651  0.00  0.00    -0.331 N 
ATOM      5  C   UNL     1      34.712 -19.577 -20.952  0.00  0.00    +0.148 C 
ATOM      6  C   UNL     1      35.554 -20.516 -20.175  0.00  0.00    +0.259 C 
ATOM      7  C   UNL     1      33.381 -19.712 -20.871  0.00  0.00    +0.113 C 
ATOM      8  C   UNL     1      33.434 -21.486 -19.434  0.00  0.00    +0.185 C 
ATOM      9  H   UNL     1      35.315 -22.094 -18.904  0.00  0.00    +0.158 HD
ATOM     10  H   UNL     1      33.462 -23.077 -18.144  0.00  0.00    +0.145 HD
ATOM     11  H   UNL     1      31.902 -22.557 -18.596  0.00  0.00    +0.145 HD
ENDROOT
BRANCH   5  13
ATOM     12  O   UNL     1      35.555 -18.673 -22.975  0.00  0.00    -0.245 OA
ATOM     13  C   UNL     1      35.256 -18.516 -21.801  0.00  0.00    +0.347 C 
BRANCH  13  14
ATOM     14  O   UNL     1      35.356 -17.379 -21.065  0.00  0.00    -0.445 OA
BRANCH  14  15
ATOM     15  C   UNL     1      34.744 -16.220 -21.641  0.00  0.00    +0.209 C 
ATOM     16  C   UNL     1      34.393 -15.247 -20.535  0.00  0.00    +0.051 C 
ENDBRANCH  14  15
ENDBRANCH  13  14
ENDBRANCH   5  13
TORSDOF 3
ENDMDL
MODEL 3
REMARK VINA RESULT:      -6.8      1.101      1.917
REMARK  Name = 84894
REMARK  3 active torsions:
REMARK  status: ('A' for Active; 'I' for Inactive)
REMARK    1  A    between atoms: C_5  and  C_13
REMARK    2  A    between atoms: C_13  and  O_14
REMARK    3  A    between atoms: O_14  and  C_15
REMARK                            x       y       z     vdW  Elec       q    Type
REMARK                         _______ _______ _______ _____ _____    ______ ____
ROOT
ATOM      1  O   UNL     1      36.730 -20.846 -19.918  0.00  0.00    -0.269 OA
ATOM      2  N   UNL     1      34.819 -21.865 -19.113  0.00  0.00    -0.254 N 
ATOM      3  N   UNL     1      32.670 -21.088 -19.686  0.00  0.00    -0.216 NA
ATOM      4  N   UNL     1      32.922 -22.938 -18.266  0.00  0.00    -0.331 N 
ATOM      5  C   UNL     1      34.623 -19.971 -20.567  0.00  0.00    +0.148 C 
ATOM      6  C   UNL     1      35.508 -20.918 -19.849  0.00  0.00    +0.259 C 
ATOM      7  C   UNL     1      33.298 -20.125 -20.434  0.00  0.00    +0.113 C 
ATOM      8  C   UNL     1      33.432 -21.933 -19.046  0.00  0.00    +0.185 C 
ATOM      9  H   UNL     1      35.340 -22.529 -18.609  0.00  0.00    +0.158 HD
ATOM     10  H   UNL     1      33.532 -23.554 -17.798  0.00  0.00    +0.145 HD
ATOM     11  H   UNL     1      31.949 -23.044 -18.173  0.00  0.00    +0.145 HD
ENDROOT
BRANCH   5  13
ATOM     12  O   UNL     1      35.649 -17.873 -20.973  0.00  0.00    -0.245 OA
ATOM     13  C   UNL     1      35.118 -18.882 -21.410  0.00  0.00    +0.347 C 
BRANCH  13  14
ATOM     14  O   UNL     1      34.886 -19.199 -22.710  0.00  0.00    -0.445 OA
BRANCH  14  15
ATOM     15  C   UNL     1      35.287 -18.210 -23.664  0.00  0.00    +0.209 C 
ATOM     16  C   UNL     1      34.462 -18.375 -24.923  0.00  0.00    +0.051 C 
ENDBRANCH  14  15
ENDBRANCH  13  14
ENDBRANCH   5  13
TORSDOF 3
ENDMDL
MODEL 4
REMARK VINA RESULT:      -6.7      2.870      5.353
REMARK  Name = 84894
REMARK  3 active torsions:
REMARK  status: ('A' for Active; 'I' for Inactive)
REMARK    1  A    between atoms: C_5  and  C_13
REMARK    2  A    between atoms: C_13  and  O_14
REMARK    3  A    between atoms: O_14  and  C_15
REMARK                            x       y       z     vdW  Elec       q    Type
REMARK                         _______ _______ _______ _____ _____    ______ ____
ROOT
ATOM      1  O   UNL     1      36.413 -21.600 -19.358  0.00  0.00    -0.269 OA
ATOM      2  N   UNL     1      35.732 -19.680 -20.446  0.00  0.00    -0.254 N 
ATOM      3  N   UNL     1      33.468 -19.290 -20.964  0.00  0.00    -0.216 NA
ATOM      4  N   UNL     1      35.105 -17.716 -21.550  0.00  0.00    -0.331 N 
ATOM      5  C   UNL     1      34.104 -21.323 -19.825  0.00  0.00    +0.148 C 
ATOM      6  C   UNL     1      35.526 -20.906 -19.842  0.00  0.00    +0.259 C 
ATOM      7  C   UNL     1      33.201 -20.500 -20.376  0.00  0.00    +0.113 C 
ATOM      8  C   UNL     1      34.714 -18.904 -20.989  0.00  0.00    +0.185 C 
ATOM      9  H   UNL     1      36.653 -19.336 -20.495  0.00  0.00    +0.158 HD
ATOM     10  H   UNL     1      36.057 -17.461 -21.548  0.00  0.00    +0.145 HD
ATOM     11  H   UNL     1      34.436 -17.118 -21.953  0.00  0.00    +0.145 HD
ENDROOT
BRANCH   5  13
ATOM     12  O   UNL     1      34.088 -23.677 -19.538  0.00  0.00    -0.245 OA
ATOM     13  C   UNL     1      33.638 -22.580 -19.239  0.00  0.00    +0.347 C 
BRANCH  13  14
ATOM     14  O   UNL     1      32.657 -22.305 -18.342  0.00  0.00    -0.445 OA
BRANCH  14  15
ATOM     15  C   UNL     1      32.662 -23.112 -17.159  0.00  0.00    +0.209 C 
ATOM     16  C   UNL     1      31.319 -22.987 -16.471  0.00  0.00    +0.051 C 
ENDBRANCH  14  15
ENDBRANCH  13  14
ENDBRANCH   5  13
TORSDOF 3
ENDMDL
MODEL 5
REMARK VINA RESULT:      -6.7      4.730      6.459
REMARK  Name = 84894
REMARK  3 active torsions:
REMARK  status: ('A' for Active; 'I' for Inactive)
REMARK    1  A    between atoms: C_5  and  C_13
REMARK    2  A    between atoms: C_13  and  O_14
REMARK    3  A    between atoms: O_14  and  C_15
REMARK                            x       y       z     vdW  Elec       q    Type
REMARK                         _______ _______ _______ _____ _____    ______ ____
ROOT
ATOM      1  O   UNL     1      34.555 -15.596 -22.015  0.00  0.00    -0.269 OA
ATOM      2  N   UNL     1      33.858 -15.180 -24.178  0.00  0.00    -0.254 N 
ATOM      3  N   UNL     1      34.040 -16.808 -25.869  0.00  0.00    -0.216 NA
ATOM      4  N   UNL     1      33.135 -14.698 -26.348  0.00  0.00    -0.331 N 
ATOM      5  C   UNL     1      34.791 -17.317 -23.630  0.00  0.00    +0.148 C 
ATOM      6  C   UNL     1      34.401 -15.962 -23.175  0.00  0.00    +0.259 C 
ATOM      7  C   UNL     1      34.585 -17.631 -24.916  0.00  0.00    +0.113 C 
ATOM      8  C   UNL     1      33.689 -15.611 -25.489  0.00  0.00    +0.185 C 
ATOM      9  H   UNL     1      33.574 -14.266 -23.950  0.00  0.00    +0.158 HD
ATOM     10  H   UNL     1      32.884 -13.804 -26.021  0.00  0.00    +0.145 HD
ATOM     11  H   UNL     1      32.987 -14.937 -27.291  0.00  0.00    +0.145 HD
ENDROOT
BRANCH   5  13
ATOM     12  O   UNL     1      36.568 -18.341 -22.441  0.00  0.00    -0.245 OA
ATOM     13  C   UNL     1      35.386 -18.324 -22.751  0.00  0.00    +0.347 C 
BRANCH  13  14
ATOM     14  O   UNL     1      34.417 -19.194 -22.367  0.00  0.00    -0.445 OA
BRANCH  14  15
ATOM     15  C   UNL     1      34.106 -19.188 -20.969  0.00  0.00    +0.209 C 
ATOM     16  C   UNL     1      32.936 -20.116 -20.720  0.00  0.00    +0.051 C 
ENDBRANCH  14  15
ENDBRANCH  13  14
ENDBRANCH   5  13
TORSDOF 3
ENDMDL
MODEL 6
REMARK VINA RESULT:      -6.7      4.384      6.024
REMARK  Name = 84894
REMARK  3 active torsions:
REMARK  status: ('A' for Active; 'I' for Inactive)
REMARK    1  A    between atoms: C_5  and  C_13
REMARK    2  A    between atoms: C_13  and  O_14
REMARK    3  A    between atoms: O_14  and  C_15
REMARK                            x       y       z     vdW  Elec       q    Type
REMARK                         _______ _______ _______ _____ _____    ______ ____
ROOT
ATOM      1  O   UNL     1      34.869 -15.947 -19.816  0.00  0.00    -0.269 OA
ATOM      2  N   UNL     1      34.509 -14.758 -21.764  0.00  0.00    -0.254 N 
ATOM      3  N   UNL     1      34.551 -15.803 -23.874  0.00  0.00    -0.216 NA
ATOM      4  N   UNL     1      34.138 -13.501 -23.700  0.00  0.00    -0.331 N 
ATOM      5  C   UNL     1      34.936 -17.112 -21.880  0.00  0.00    +0.148 C 
ATOM      6  C   UNL     1      34.774 -15.904 -21.037  0.00  0.00    +0.259 C 
ATOM      7  C   UNL     1      34.815 -16.973 -23.208  0.00  0.00    +0.113 C 
ATOM      8  C   UNL     1      34.404 -14.728 -23.150  0.00  0.00    +0.185 C 
ATOM      9  H   UNL     1      34.389 -13.915 -21.271  0.00  0.00    +0.158 HD
ATOM     10  H   UNL     1      34.035 -12.713 -23.117  0.00  0.00    +0.145 HD
ATOM     11  H   UNL     1      34.051 -13.407 -24.675  0.00  0.00    +0.145 HD
ENDROOT
BRANCH   5  13
ATOM     12  O   UNL     1      36.183 -18.696 -20.632  0.00  0.00    -0.245 OA
ATOM     13  C   UNL     1      35.220 -18.442 -21.341  0.00  0.00    +0.347 C 
BRANCH  13  14
ATOM     14  O   UNL     1      34.252 -19.297 -21.759  0.00  0.00    -0.445 OA
BRANCH  14  15
ATOM     15  C   UNL     1      33.156 -19.474 -20.855  0.00  0.00    +0.209 C 
ATOM     16  C   UNL     1      33.366 -20.749 -20.067  0.00  0.00    +0.051 C 
ENDBRANCH  14  15
ENDBRANCH  13  14
ENDBRANCH   5  13
TORSDOF 3
ENDMDL
MODEL 7
REMARK VINA RESULT:      -6.6      3.593      5.421
REMARK  Name = 84894
REMARK  3 active torsions:
REMARK  status: ('A' for Active; 'I' for Inactive)
REMARK    1  A    between atoms: C_5  and  C_13
REMARK    2  A    between atoms: C_13  and  O_14
REMARK    3  A    between atoms: O_14  and  C_15
REMARK                            x       y       z     vdW  Elec       q    Type
REMARK                         _______ _______ _______ _____ _____    ______ ____
ROOT
ATOM      1  O   UNL     1      35.249 -16.908 -20.467  0.00  0.00    -0.269 OA
ATOM      2  N   UNL     1      35.181 -16.764 -22.772  0.00  0.00    -0.254 N 
ATOM      3  N   UNL     1      34.760 -18.652 -24.115  0.00  0.00    -0.216 NA
ATOM      4  N   UNL     1      35.124 -16.555 -25.099  0.00  0.00    -0.331 N 
ATOM      5  C   UNL     1      34.816 -18.880 -21.710  0.00  0.00    +0.148 C 
ATOM      6  C   UNL     1      35.102 -17.434 -21.564  0.00  0.00    +0.259 C 
ATOM      7  C   UNL     1      34.669 -19.370 -22.949  0.00  0.00    +0.113 C 
ATOM      8  C   UNL     1      35.010 -17.376 -24.008  0.00  0.00    +0.185 C 
ATOM      9  H   UNL     1      35.368 -15.798 -22.754  0.00  0.00    +0.158 HD
ATOM     10  H   UNL     1      35.315 -15.596 -24.976  0.00  0.00    +0.145 HD
ATOM     11  H   UNL     1      35.016 -16.922 -26.006  0.00  0.00    +0.145 HD
ENDROOT
BRANCH   5  13
ATOM     12  O   UNL     1      33.617 -20.234 -20.177  0.00  0.00    -0.245 OA
ATOM     13  C   UNL     1      34.686 -19.797 -20.577  0.00  0.00    +0.347 C 
BRANCH  13  14
ATOM     14  O   UNL     1      35.924 -20.055 -20.082  0.00  0.00    -0.445 OA
BRANCH  14  15
ATOM     15  C   UNL     1      36.199 -21.432 -19.803  0.00  0.00    +0.209 C 
ATOM     16  C   UNL     1      36.576 -21.574 -18.344  0.00  0.00    +0.051 C 
ENDBRANCH  14  15
ENDBRANCH  13  14
ENDBRANCH   5  13
TORSDOF 3
ENDMDL
MODEL 8
REMARK VINA RESULT:      -6.6      8.390     10.031
REMARK  Name = 84894
REMARK  3 active torsions:
REMARK  status: ('A' for Active; 'I' for Inactive)
REMARK    1  A    between atoms: C_5  and  C_13
REMARK    2  A    between atoms: C_13  and  O_14
REMARK    3  A    between atoms: O_14  and  C_15
REMARK                            x       y       z     vdW  Elec       q    Type
REMARK                         _______ _______ _______ _____ _____    ______ ____
ROOT
ATOM      1  O   UNL     1      38.260 -23.152 -11.614  0.00  0.00    -0.269 OA
ATOM      2  N   UNL     1      39.262 -24.705 -13.001  0.00  0.00    -0.254 N 
ATOM      3  N   UNL     1      38.087 -26.578 -13.810  0.00  0.00    -0.216 NA
ATOM      4  N   UNL     1      40.331 -26.241 -14.402  0.00  0.00    -0.331 N 
ATOM      5  C   UNL     1      36.972 -24.998 -12.363  0.00  0.00    +0.148 C 
ATOM      6  C   UNL     1      38.207 -24.184 -12.275  0.00  0.00    +0.259 C 
ATOM      7  C   UNL     1      37.005 -26.111 -13.109  0.00  0.00    +0.113 C 
ATOM      8  C   UNL     1      39.185 -25.876 -13.746  0.00  0.00    +0.185 C 
ATOM      9  H   UNL     1      40.117 -24.218 -12.991  0.00  0.00    +0.158 HD
ATOM     10  H   UNL     1      41.139 -25.683 -14.327  0.00  0.00    +0.145 HD
ATOM     11  H   UNL     1      40.347 -27.060 -14.947  0.00  0.00    +0.145 HD
ENDROOT
BRANCH   5  13
ATOM     12  O   UNL     1      35.356 -25.165 -10.636  0.00  0.00    -0.245 OA
ATOM     13  C   UNL     1      35.725 -24.650 -11.681  0.00  0.00    +0.347 C 
BRANCH  13  14
ATOM     14  O   UNL     1      35.089 -23.690 -12.400  0.00  0.00    -0.445 OA
BRANCH  14  15
ATOM     15  C   UNL     1      34.024 -24.153 -13.238  0.00  0.00    +0.209 C 
ATOM     16  C   UNL     1      34.307 -23.742 -14.667  0.00  0.00    +0.051 C 
ENDBRANCH  14  15
ENDBRANCH  13  14
ENDBRANCH   5  13
TORSDOF 3
ENDMDL
MODEL 9
REMARK VINA RESULT:      -6.6      4.201      5.881
REMARK  Name = 84894
REMARK  3 active torsions:
REMARK  status: ('A' for Active; 'I' for Inactive)
REMARK    1  A    between atoms: C_5  and  C_13
REMARK    2  A    between atoms: C_13  and  O_14
REMARK    3  A    between atoms: O_14  and  C_15
REMARK                            x       y       z     vdW  Elec       q    Type
REMARK                         _______ _______ _______ _____ _____    ______ ____
ROOT
ATOM      1  O   UNL     1      35.302 -18.004 -24.069  0.00  0.00    -0.269 OA
ATOM      2  N   UNL     1      34.788 -15.806 -23.577  0.00  0.00    -0.254 N 
ATOM      3  N   UNL     1      34.465 -15.078 -21.361  0.00  0.00    -0.216 NA
ATOM      4  N   UNL     1      34.269 -13.567 -23.144  0.00  0.00    -0.331 N 
ATOM      5  C   UNL     1      35.000 -17.394 -21.797  0.00  0.00    +0.148 C 
ATOM      6  C   UNL     1      35.050 -17.124 -23.253  0.00  0.00    +0.259 C 
ATOM      7  C   UNL     1      34.717 -16.371 -20.977  0.00  0.00    +0.113 C 
ATOM      8  C   UNL     1      34.505 -14.820 -22.639  0.00  0.00    +0.185 C 
ATOM      9  H   UNL     1      34.804 -15.550 -24.527  0.00  0.00    +0.158 HD
ATOM     10  H   UNL     1      34.308 -13.414 -24.117  0.00  0.00    +0.145 HD
ATOM     11  H   UNL     1      34.062 -12.822 -22.537  0.00  0.00    +0.145 HD
ENDROOT
BRANCH   5  13
ATOM     12  O   UNL     1      36.178 -18.961 -20.464  0.00  0.00    -0.245 OA
ATOM     13  C   UNL     1      35.243 -18.712 -21.210  0.00  0.00    +0.347 C 
BRANCH  13  14
ATOM     14  O   UNL     1      34.273 -19.563 -21.634  0.00  0.00    -0.445 OA
BRANCH  14  15
ATOM     15  C   UNL     1      33.154 -19.706 -20.753  0.00  0.00    +0.209 C 
ATOM     16  C   UNL     1      33.349 -20.944 -19.904  0.00  0.00    +0.051 C 
ENDBRANCH  14  15
ENDBRANCH  13  14
ENDBRANCH   5  13
TORSDOF 3
ENDMDL
