MODEL 1
REMARK VINA RESULT:      -8.6      0.000      0.000
REMARK  Name = 3033
REMARK  5 active torsions:
REMARK  status: ('A' for Active; 'I' for Inactive)
REMARK    1  A    between atoms: C_1  and  C_17
REMARK    2  A    between atoms: C_2  and  N_7
REMARK    3  A    between atoms: N_7  and  C_11
REMARK    4  A    between atoms: C_17  and  C_19
REMARK    5  A    between atoms: C_19  and  O_20
REMARK                            x       y       z     vdW  Elec       q    Type
REMARK                         _______ _______ _______ _____ _____    ______ ____
ROOT
ATOM      1  C   UNL     1      34.457 -16.539 -22.969  0.00  0.00    +0.002 C 
ATOM      2  C   UNL     1      34.660 -17.879 -22.638  0.00  0.00    +0.045 C 
ATOM      3  C   UNL     1      34.355 -16.158 -24.307  0.00  0.00    -0.002 C 
ATOM      4  C   UNL     1      34.761 -18.838 -23.646  0.00  0.00    +0.014 C 
ATOM      5  C   UNL     1      34.457 -17.117 -25.315  0.00  0.00    -0.000 C 
ATOM      6  C   UNL     1      34.659 -18.457 -24.984  0.00  0.00    +0.001 C 
ENDROOT
BRANCH   2   7
ATOM      7  N   UNL     1      34.767 -18.282 -21.289  0.00  0.00    -0.311 N 
ATOM      8  H   UNL     1      34.758 -17.532 -20.650  0.00  0.00    +0.152 HD
BRANCH   7  11
ATOM      9 CL   UNL     1      32.157 -19.590 -20.512  0.00  0.00    -0.081 Cl
ATOM     10 CL   UNL     1      37.591 -19.297 -20.944  0.00  0.00    -0.081 Cl
ATOM     11  C   UNL     1      34.884 -19.544 -20.679  0.00  0.00    +0.070 C 
ATOM     12  C   UNL     1      33.739 -20.243 -20.278  0.00  0.00    +0.072 C 
ATOM     13  C   UNL     1      36.144 -20.113 -20.469  0.00  0.00    +0.072 C 
ATOM     14  C   UNL     1      33.855 -21.495 -19.674  0.00  0.00    +0.013 C 
ATOM     15  C   UNL     1      36.260 -21.365 -19.865  0.00  0.00    +0.013 C 
ATOM     16  C   UNL     1      35.116 -22.056 -19.467  0.00  0.00    +0.002 C 
ENDBRANCH   7  11
ENDBRANCH   2   7
BRANCH   1  17
ATOM     17  C   UNL     1      34.346 -15.491 -21.910  0.00  0.00    +0.137 C 
BRANCH  17  19
ATOM     18  O   UNL     1      32.304 -14.166 -21.975  0.00  0.00    -0.250 OA
ATOM     19  C   UNL     1      32.916 -15.139 -21.557  0.00  0.00    +0.318 C 
BRANCH  19  20
ATOM     20  O   UNL     1      32.371 -16.045 -20.703  0.00  0.00    -0.480 OA
ATOM     21  H   UNL     1      31.440 -16.107 -20.616  0.00  0.00    +0.295 HD
ENDBRANCH  19  20
ENDBRANCH  17  19
ENDBRANCH   1  17
TORSDOF 5
ENDMDL
MODEL 2
REMARK VINA RESULT:      -8.6      0.038      2.090
REMARK  Name = 3033
REMARK  5 active torsions:
REMARK  status: ('A' for Active; 'I' for Inactive)
REMARK    1  A    between atoms: C_1  and  C_17
REMARK    2  A    between atoms: C_2  and  N_7
REMARK    3  A    between atoms: N_7  and  C_11
REMARK    4  A    between atoms: C_17  and  C_19
REMARK    5  A    between atoms: C_19  and  O_20
REMARK                            x       y       z     vdW  Elec       q    Type
REMARK                         _______ _______ _______ _____ _____    ______ ____
ROOT
ATOM      1  C   UNL     1      34.455 -16.533 -22.937  0.00  0.00    +0.002 C 
ATOM      2  C   UNL     1      34.653 -17.876 -22.613  0.00  0.00    +0.045 C 
ATOM      3  C   UNL     1      34.366 -16.143 -24.273  0.00  0.00    -0.002 C 
ATOM      4  C   UNL     1      34.762 -18.828 -23.626  0.00  0.00    +0.014 C 
ATOM      5  C   UNL     1      34.475 -17.096 -25.286  0.00  0.00    -0.000 C 
ATOM      6  C   UNL     1      34.672 -18.438 -24.963  0.00  0.00    +0.001 C 
ENDROOT
BRANCH   2   7
ATOM      7  N   UNL     1      34.747 -18.288 -21.266  0.00  0.00    -0.311 N 
ATOM      8  H   UNL     1      34.739 -17.542 -20.622  0.00  0.00    +0.152 HD
BRANCH   7  11
ATOM      9 CL   UNL     1      37.564 -19.320 -20.909  0.00  0.00    -0.081 Cl
ATOM     10 CL   UNL     1      32.125 -19.587 -20.515  0.00  0.00    -0.081 Cl
ATOM     11  C   UNL     1      34.853 -19.555 -20.663  0.00  0.00    +0.070 C 
ATOM     12  C   UNL     1      36.110 -20.132 -20.448  0.00  0.00    +0.072 C 
ATOM     13  C   UNL     1      33.703 -20.250 -20.274  0.00  0.00    +0.072 C 
ATOM     14  C   UNL     1      36.214 -21.388 -19.851  0.00  0.00    +0.013 C 
ATOM     15  C   UNL     1      33.808 -21.506 -19.676  0.00  0.00    +0.013 C 
ATOM     16  C   UNL     1      35.063 -22.075 -19.464  0.00  0.00    +0.002 C 
ENDBRANCH   7  11
ENDBRANCH   2   7
BRANCH   1  17
ATOM     17  C   UNL     1      34.337 -15.492 -21.872  0.00  0.00    +0.137 C 
BRANCH  17  19
ATOM     18  O   UNL     1      32.301 -14.159 -21.948  0.00  0.00    -0.250 OA
ATOM     19  C   UNL     1      32.904 -15.138 -21.532  0.00  0.00    +0.318 C 
BRANCH  19  20
ATOM     20  O   UNL     1      32.345 -16.049 -20.692  0.00  0.00    -0.480 OA
ATOM     21  H   UNL     1      31.548 -15.847 -20.245  0.00  0.00    +0.295 HD
ENDBRANCH  19  20
ENDBRANCH  17  19
ENDBRANCH   1  17
TORSDOF 5
ENDMDL
MODEL 3
REMARK VINA RESULT:      -8.5      1.926      2.873
REMARK  Name = 3033
REMARK  5 active torsions:
REMARK  status: ('A' for Active; 'I' for Inactive)
REMARK    1  A    between atoms: C_1  and  C_17
REMARK    2  A    between atoms: C_2  and  N_7
REMARK    3  A    between atoms: N_7  and  C_11
REMARK    4  A    between atoms: C_17  and  C_19
REMARK    5  A    between atoms: C_19  and  O_20
REMARK                            x       y       z     vdW  Elec       q    Type
REMARK                         _______ _______ _______ _____ _____    ______ ____
ROOT
ATOM      1  C   UNL     1      34.690 -16.110 -22.956  0.00  0.00    +0.002 C 
ATOM      2  C   UNL     1      34.335 -17.016 -21.956  0.00  0.00    +0.045 C 
ATOM      3  C   UNL     1      34.440 -14.749 -22.785  0.00  0.00    -0.002 C 
ATOM      4  C   UNL     1      33.731 -16.559 -20.785  0.00  0.00    +0.014 C 
ATOM      5  C   UNL     1      33.835 -14.292 -21.614  0.00  0.00    -0.000 C 
ATOM      6  C   UNL     1      33.481 -15.198 -20.614  0.00  0.00    +0.001 C 
ENDROOT
BRANCH   2   7
ATOM      7  N   UNL     1      34.579 -18.398 -22.114  0.00  0.00    -0.311 N 
ATOM      8  H   UNL     1      34.465 -18.717 -23.038  0.00  0.00    +0.152 HD
BRANCH   7  11
ATOM      9 CL   UNL     1      32.290 -19.901 -20.837  0.00  0.00    -0.081 Cl
ATOM     10 CL   UNL     1      37.553 -18.753 -21.722  0.00  0.00    -0.081 Cl
ATOM     11  C   UNL     1      34.952 -19.407 -21.207  0.00  0.00    +0.070 C 
ATOM     12  C   UNL     1      33.974 -20.168 -20.557  0.00  0.00    +0.072 C 
ATOM     13  C   UNL     1      36.302 -19.661 -20.948  0.00  0.00    +0.072 C 
ATOM     14  C   UNL     1      34.343 -21.170 -19.659  0.00  0.00    +0.013 C 
ATOM     15  C   UNL     1      36.672 -20.662 -20.050  0.00  0.00    +0.013 C 
ATOM     16  C   UNL     1      35.693 -21.417 -19.405  0.00  0.00    +0.002 C 
ENDBRANCH   7  11
ENDBRANCH   2   7
BRANCH   1  17
ATOM     17  C   UNL     1      35.337 -16.572 -24.221  0.00  0.00    +0.137 C 
BRANCH  17  19
ATOM     18  O   UNL     1      33.933 -15.979 -26.121  0.00  0.00    -0.250 OA
ATOM     19  C   UNL     1      34.351 -16.826 -25.344  0.00  0.00    +0.318 C 
BRANCH  19  20
ATOM     20  O   UNL     1      33.972 -18.130 -25.395  0.00  0.00    -0.480 OA
ATOM     21  H   UNL     1      34.084 -18.681 -24.646  0.00  0.00    +0.295 HD
ENDBRANCH  19  20
ENDBRANCH  17  19
ENDBRANCH   1  17
TORSDOF 5
ENDMDL
MODEL 4
REMARK VINA RESULT:      -8.5      1.927      3.542
REMARK  Name = 3033
REMARK  5 active torsions:
REMARK  status: ('A' for Active; 'I' for Inactive)
REMARK    1  A    between atoms: C_1  and  C_17
REMARK    2  A    between atoms: C_2  and  N_7
REMARK    3  A    between atoms: N_7  and  C_11
REMARK    4  A    between atoms: C_17  and  C_19
REMARK    5  A    between atoms: C_19  and  O_20
REMARK                            x       y       z     vdW  Elec       q    Type
REMARK                         _______ _______ _______ _____ _____    ______ ____
ROOT
ATOM      1  C   UNL     1      34.666 -16.098 -22.968  0.00  0.00    +0.002 C 
ATOM      2  C   UNL     1      34.317 -17.002 -21.964  0.00  0.00    +0.045 C 
ATOM      3  C   UNL     1      34.416 -14.737 -22.798  0.00  0.00    -0.002 C 
ATOM      4  C   UNL     1      33.718 -16.544 -20.791  0.00  0.00    +0.014 C 
ATOM      5  C   UNL     1      33.817 -14.278 -21.625  0.00  0.00    -0.000 C 
ATOM      6  C   UNL     1      33.468 -15.182 -20.621  0.00  0.00    +0.001 C 
ENDROOT
BRANCH   2   7
ATOM      7  N   UNL     1      34.561 -18.384 -22.121  0.00  0.00    -0.311 N 
ATOM      8  H   UNL     1      34.437 -18.707 -23.043  0.00  0.00    +0.152 HD
BRANCH   7  11
ATOM      9 CL   UNL     1      37.540 -18.710 -21.739  0.00  0.00    -0.081 Cl
ATOM     10 CL   UNL     1      32.291 -19.910 -20.837  0.00  0.00    -0.081 Cl
ATOM     11  C   UNL     1      34.946 -19.391 -21.216  0.00  0.00    +0.070 C 
ATOM     12  C   UNL     1      36.301 -19.630 -20.961  0.00  0.00    +0.072 C 
ATOM     13  C   UNL     1      33.979 -20.161 -20.562  0.00  0.00    +0.072 C 
ATOM     14  C   UNL     1      36.683 -20.628 -20.064  0.00  0.00    +0.013 C 
ATOM     15  C   UNL     1      34.360 -21.158 -19.665  0.00  0.00    +0.013 C 
ATOM     16  C   UNL     1      35.712 -21.392 -19.415  0.00  0.00    +0.002 C 
ENDBRANCH   7  11
ENDBRANCH   2   7
BRANCH   1  17
ATOM     17  C   UNL     1      35.307 -16.562 -24.236  0.00  0.00    +0.137 C 
BRANCH  17  19
ATOM     18  O   UNL     1      33.910 -15.944 -26.132  0.00  0.00    -0.250 OA
ATOM     19  C   UNL     1      34.318 -16.799 -25.359  0.00  0.00    +0.318 C 
BRANCH  19  20
ATOM     20  O   UNL     1      33.921 -18.097 -25.415  0.00  0.00    -0.480 OA
ATOM     21  H   UNL     1      34.257 -18.661 -26.083  0.00  0.00    +0.295 HD
ENDBRANCH  19  20
ENDBRANCH  17  19
ENDBRANCH   1  17
TORSDOF 5
ENDMDL
MODEL 5
REMARK VINA RESULT:      -8.3      7.401     10.586
REMARK  Name = 3033
REMARK  5 active torsions:
REMARK  status: ('A' for Active; 'I' for Inactive)
REMARK    1  A    between atoms: C_1  and  C_17
REMARK    2  A    between atoms: C_2  and  N_7
REMARK    3  A    between atoms: N_7  and  C_11
REMARK    4  A    between atoms: C_17  and  C_19
REMARK    5  A    between atoms: C_19  and  O_20
REMARK                            x       y       z     vdW  Elec       q    Type
REMARK                         _______ _______ _______ _____ _____    ______ ____
ROOT
ATOM      1  C   UNL     1      37.299 -23.935 -12.919  0.00  0.00    +0.002 C 
ATOM      2  C   UNL     1      37.123 -23.714 -14.285  0.00  0.00    +0.045 C 
ATOM      3  C   UNL     1      38.299 -24.800 -12.475  0.00  0.00    -0.002 C 
ATOM      4  C   UNL     1      37.948 -24.358 -15.207  0.00  0.00    +0.014 C 
ATOM      5  C   UNL     1      39.124 -25.445 -13.398  0.00  0.00    -0.000 C 
ATOM      6  C   UNL     1      38.948 -25.223 -14.764  0.00  0.00    +0.001 C 
ENDROOT
BRANCH   2   7
ATOM      7  N   UNL     1      36.115 -22.843 -14.751  0.00  0.00    -0.311 N 
ATOM      8  H   UNL     1      35.924 -22.094 -14.140  0.00  0.00    +0.152 HD
BRANCH   7  11
ATOM      9 CL   UNL     1      37.306 -21.369 -17.105  0.00  0.00    -0.081 Cl
ATOM     10 CL   UNL     1      33.477 -24.302 -14.545  0.00  0.00    -0.081 Cl
ATOM     11  C   UNL     1      35.328 -22.835 -15.918  0.00  0.00    +0.070 C 
ATOM     12  C   UNL     1      35.781 -22.182 -17.071  0.00  0.00    +0.072 C 
ATOM     13  C   UNL     1      34.087 -23.480 -15.938  0.00  0.00    +0.072 C 
ATOM     14  C   UNL     1      35.002 -22.175 -18.227  0.00  0.00    +0.013 C 
ATOM     15  C   UNL     1      33.308 -23.473 -17.095  0.00  0.00    +0.013 C 
ATOM     16  C   UNL     1      33.765 -22.821 -18.240  0.00  0.00    +0.002 C 
ENDBRANCH   7  11
ENDBRANCH   2   7
BRANCH   1  17
ATOM     17  C   UNL     1      36.429 -23.260 -11.909  0.00  0.00    +0.137 C 
BRANCH  17  19
ATOM     18  O   UNL     1      36.022 -24.266  -9.729  0.00  0.00    -0.250 OA
ATOM     19  C   UNL     1      35.787 -24.221 -10.929  0.00  0.00    +0.318 C 
BRANCH  19  20
ATOM     20  O   UNL     1      34.901 -25.049 -11.542  0.00  0.00    -0.480 OA
ATOM     21  H   UNL     1      34.211 -25.446 -11.048  0.00  0.00    +0.295 HD
ENDBRANCH  19  20
ENDBRANCH  17  19
ENDBRANCH   1  17
TORSDOF 5
ENDMDL
MODEL 6
REMARK VINA RESULT:      -8.3      7.396     10.418
REMARK  Name = 3033
REMARK  5 active torsions:
REMARK  status: ('A' for Active; 'I' for Inactive)
REMARK    1  A    between atoms: C_1  and  C_17
REMARK    2  A    between atoms: C_2  and  N_7
REMARK    3  A    between atoms: N_7  and  C_11
REMARK    4  A    between atoms: C_17  and  C_19
REMARK    5  A    between atoms: C_19  and  O_20
REMARK                            x       y       z     vdW  Elec       q    Type
REMARK                         _______ _______ _______ _____ _____    ______ ____
ROOT
ATOM      1  C   UNL     1      37.300 -23.919 -12.927  0.00  0.00    +0.002 C 
ATOM      2  C   UNL     1      37.136 -23.686 -14.293  0.00  0.00    +0.045 C 
ATOM      3  C   UNL     1      38.299 -24.785 -12.483  0.00  0.00    -0.002 C 
ATOM      4  C   UNL     1      37.970 -24.320 -15.213  0.00  0.00    +0.014 C 
ATOM      5  C   UNL     1      39.133 -25.419 -13.404  0.00  0.00    -0.000 C 
ATOM      6  C   UNL     1      38.969 -25.186 -14.769  0.00  0.00    +0.001 C 
ENDROOT
BRANCH   2   7
ATOM      7  N   UNL     1      36.129 -22.813 -14.761  0.00  0.00    -0.311 N 
ATOM      8  H   UNL     1      35.949 -22.057 -14.156  0.00  0.00    +0.152 HD
BRANCH   7  11
ATOM      9 CL   UNL     1      33.498 -24.279 -14.521  0.00  0.00    -0.081 Cl
ATOM     10 CL   UNL     1      37.293 -21.350 -17.134  0.00  0.00    -0.081 Cl
ATOM     11  C   UNL     1      35.332 -22.814 -15.920  0.00  0.00    +0.070 C 
ATOM     12  C   UNL     1      34.092 -23.463 -15.924  0.00  0.00    +0.072 C 
ATOM     13  C   UNL     1      35.771 -22.167 -17.080  0.00  0.00    +0.072 C 
ATOM     14  C   UNL     1      33.301 -23.464 -17.073  0.00  0.00    +0.013 C 
ATOM     15  C   UNL     1      34.981 -22.168 -18.229  0.00  0.00    +0.013 C 
ATOM     16  C   UNL     1      33.746 -22.816 -18.226  0.00  0.00    +0.002 C 
ENDBRANCH   7  11
ENDBRANCH   2   7
BRANCH   1  17
ATOM     17  C   UNL     1      36.420 -23.255 -11.919  0.00  0.00    +0.137 C 
BRANCH  17  19
ATOM     18  O   UNL     1      36.011 -24.255  -9.737  0.00  0.00    -0.250 OA
ATOM     19  C   UNL     1      35.790 -24.224 -10.939  0.00  0.00    +0.318 C 
BRANCH  19  20
ATOM     20  O   UNL     1      34.931 -25.078 -11.556  0.00  0.00    -0.480 OA
ATOM     21  H   UNL     1      35.263 -25.783 -12.075  0.00  0.00    +0.295 HD
ENDBRANCH  19  20
ENDBRANCH  17  19
ENDBRANCH   1  17
TORSDOF 5
ENDMDL
MODEL 7
REMARK VINA RESULT:      -8.1      5.820      7.872
REMARK  Name = 3033
REMARK  5 active torsions:
REMARK  status: ('A' for Active; 'I' for Inactive)
REMARK    1  A    between atoms: C_1  and  C_17
REMARK    2  A    between atoms: C_2  and  N_7
REMARK    3  A    between atoms: N_7  and  C_11
REMARK    4  A    between atoms: C_17  and  C_19
REMARK    5  A    between atoms: C_19  and  O_20
REMARK                            x       y       z     vdW  Elec       q    Type
REMARK                         _______ _______ _______ _____ _____    ______ ____
ROOT
ATOM      1  C   UNL     1      32.911  -9.033 -22.695  0.00  0.00    +0.002 C 
ATOM      2  C   UNL     1      33.109 -10.291 -23.265  0.00  0.00    +0.045 C 
ATOM      3  C   UNL     1      33.770  -7.982 -23.012  0.00  0.00    -0.002 C 
ATOM      4  C   UNL     1      34.164 -10.497 -24.152  0.00  0.00    +0.014 C 
ATOM      5  C   UNL     1      34.827  -8.187 -23.899  0.00  0.00    -0.000 C 
ATOM      6  C   UNL     1      35.024  -9.445 -24.469  0.00  0.00    +0.001 C 
ENDROOT
BRANCH   2   7
ATOM      7  N   UNL     1      32.249 -11.368 -22.954  0.00  0.00    -0.311 N 
ATOM      8  H   UNL     1      31.299 -11.179 -23.130  0.00  0.00    +0.152 HD
BRANCH   7  11
ATOM      9 CL   UNL     1      31.721 -11.699 -19.998  0.00  0.00    -0.081 Cl
ATOM     10 CL   UNL     1      33.212 -13.407 -24.964  0.00  0.00    -0.081 Cl
ATOM     11  C   UNL     1      32.486 -12.656 -22.440  0.00  0.00    +0.070 C 
ATOM     12  C   UNL     1      32.274 -12.925 -21.083  0.00  0.00    +0.072 C 
ATOM     13  C   UNL     1      32.934 -13.681 -23.280  0.00  0.00    +0.072 C 
ATOM     14  C   UNL     1      32.508 -14.202 -20.574  0.00  0.00    +0.013 C 
ATOM     15  C   UNL     1      33.168 -14.958 -22.771  0.00  0.00    +0.013 C 
ATOM     16  C   UNL     1      32.954 -15.219 -21.418  0.00  0.00    +0.002 C 
ENDBRANCH   7  11
ENDBRANCH   2   7
BRANCH   1  17
ATOM     17  C   UNL     1      31.789  -8.786 -21.740  0.00  0.00    +0.137 C 
BRANCH  17  19
ATOM     18  O   UNL     1      31.879  -6.648 -20.578  0.00  0.00    -0.250 OA
ATOM     19  C   UNL     1      32.154  -7.839 -20.615  0.00  0.00    +0.318 C 
BRANCH  19  20
ATOM     20  O   UNL     1      32.838  -8.472 -19.626  0.00  0.00    -0.480 OA
ATOM     21  H   UNL     1      32.555  -8.395 -18.737  0.00  0.00    +0.295 HD
ENDBRANCH  19  20
ENDBRANCH  17  19
ENDBRANCH   1  17
TORSDOF 5
ENDMDL
MODEL 8
REMARK VINA RESULT:      -8.1      5.823      7.971
REMARK  Name = 3033
REMARK  5 active torsions:
REMARK  status: ('A' for Active; 'I' for Inactive)
REMARK    1  A    between atoms: C_1  and  C_17
REMARK    2  A    between atoms: C_2  and  N_7
REMARK    3  A    between atoms: N_7  and  C_11
REMARK    4  A    between atoms: C_17  and  C_19
REMARK    5  A    between atoms: C_19  and  O_20
REMARK                            x       y       z     vdW  Elec       q    Type
REMARK                         _______ _______ _______ _____ _____    ______ ____
ROOT
ATOM      1  C   UNL     1      32.906  -9.034 -22.671  0.00  0.00    +0.002 C 
ATOM      2  C   UNL     1      33.096 -10.287 -23.253  0.00  0.00    +0.045 C 
ATOM      3  C   UNL     1      33.769  -7.983 -22.980  0.00  0.00    -0.002 C 
ATOM      4  C   UNL     1      34.150 -10.489 -24.144  0.00  0.00    +0.014 C 
ATOM      5  C   UNL     1      34.823  -8.185 -23.871  0.00  0.00    -0.000 C 
ATOM      6  C   UNL     1      35.013  -9.438 -24.453  0.00  0.00    +0.001 C 
ENDROOT
BRANCH   2   7
ATOM      7  N   UNL     1      32.233 -11.363 -22.950  0.00  0.00    -0.311 N 
ATOM      8  H   UNL     1      31.286 -11.177 -23.144  0.00  0.00    +0.152 HD
BRANCH   7  11
ATOM      9 CL   UNL     1      33.174 -13.428 -24.944  0.00  0.00    -0.081 Cl
ATOM     10 CL   UNL     1      31.714 -11.662 -19.989  0.00  0.00    -0.081 Cl
ATOM     11  C   UNL     1      32.462 -12.648 -22.424  0.00  0.00    +0.070 C 
ATOM     12  C   UNL     1      32.900 -13.684 -23.257  0.00  0.00    +0.072 C 
ATOM     13  C   UNL     1      32.254 -12.902 -21.065  0.00  0.00    +0.072 C 
ATOM     14  C   UNL     1      33.128 -14.957 -22.736  0.00  0.00    +0.013 C 
ATOM     15  C   UNL     1      32.482 -14.176 -20.543  0.00  0.00    +0.013 C 
ATOM     16  C   UNL     1      32.919 -15.203 -21.379  0.00  0.00    +0.002 C 
ENDBRANCH   7  11
ENDBRANCH   2   7
BRANCH   1  17
ATOM     17  C   UNL     1      31.787  -8.790 -21.712  0.00  0.00    +0.137 C 
BRANCH  17  19
ATOM     18  O   UNL     1      31.845  -6.645 -20.561  0.00  0.00    -0.250 OA
ATOM     19  C   UNL     1      32.147  -7.829 -20.597  0.00  0.00    +0.318 C 
BRANCH  19  20
ATOM     20  O   UNL     1      32.862  -8.441 -19.616  0.00  0.00    -0.480 OA
ATOM     21  H   UNL     1      32.914  -9.375 -19.587  0.00  0.00    +0.295 HD
ENDBRANCH  19  20
ENDBRANCH  17  19
ENDBRANCH   1  17
TORSDOF 5
ENDMDL
MODEL 9
REMARK VINA RESULT:      -7.9      4.326      6.397
REMARK  Name = 3033
REMARK  5 active torsions:
REMARK  status: ('A' for Active; 'I' for Inactive)
REMARK    1  A    between atoms: C_1  and  C_17
REMARK    2  A    between atoms: C_2  and  N_7
REMARK    3  A    between atoms: N_7  and  C_11
REMARK    4  A    between atoms: C_17  and  C_19
REMARK    5  A    between atoms: C_19  and  O_20
REMARK                            x       y       z     vdW  Elec       q    Type
REMARK                         _______ _______ _______ _____ _____    ______ ____
ROOT
ATOM      1  C   UNL     1      32.337 -11.050 -22.809  0.00  0.00    +0.002 C 
ATOM      2  C   UNL     1      33.066 -12.005 -23.518  0.00  0.00    +0.045 C 
ATOM      3  C   UNL     1      32.683  -9.702 -22.897  0.00  0.00    -0.002 C 
ATOM      4  C   UNL     1      34.141 -11.611 -24.315  0.00  0.00    +0.014 C 
ATOM      5  C   UNL     1      33.758  -9.307 -23.693  0.00  0.00    -0.000 C 
ATOM      6  C   UNL     1      34.487 -10.262 -24.403  0.00  0.00    +0.001 C 
ENDROOT
BRANCH   2   7
ATOM      7  N   UNL     1      32.731 -13.374 -23.440  0.00  0.00    -0.311 N 
ATOM      8  H   UNL     1      31.811 -13.540 -23.128  0.00  0.00    +0.152 HD
BRANCH   7  11
ATOM      9 CL   UNL     1      32.574 -14.343 -26.297  0.00  0.00    -0.081 Cl
ATOM     10 CL   UNL     1      34.219 -14.566 -21.096  0.00  0.00    -0.081 Cl
ATOM     11  C   UNL     1      33.454 -14.549 -23.718  0.00  0.00    +0.070 C 
ATOM     12  C   UNL     1      33.453 -15.089 -25.010  0.00  0.00    +0.072 C 
ATOM     13  C   UNL     1      34.181 -15.187 -22.709  0.00  0.00    +0.072 C 
ATOM     14  C   UNL     1      34.171 -16.252 -25.286  0.00  0.00    +0.013 C 
ATOM     15  C   UNL     1      34.899 -16.351 -22.985  0.00  0.00    +0.013 C 
ATOM     16  C   UNL     1      34.894 -16.884 -24.274  0.00  0.00    +0.002 C 
ENDBRANCH   7  11
ENDBRANCH   2   7
BRANCH   1  17
ATOM     17  C   UNL     1      31.182 -11.444 -21.947  0.00  0.00    +0.137 C 
BRANCH  17  19
ATOM     18  O   UNL     1      31.166 -10.167 -19.874  0.00  0.00    -0.250 OA
ATOM     19  C   UNL     1      31.423 -11.203 -20.471  0.00  0.00    +0.318 C 
BRANCH  19  20
ATOM     20  O   UNL     1      31.972 -12.289 -19.866  0.00  0.00    -0.480 OA
ATOM     21  H   UNL     1      31.886 -12.404 -18.940  0.00  0.00    +0.295 HD
ENDBRANCH  19  20
ENDBRANCH  17  19
ENDBRANCH   1  17
TORSDOF 5
ENDMDL
