MODEL 1
REMARK VINA RESULT:      -8.0      0.000      0.000
REMARK  Name = 6029
REMARK  5 active torsions:
REMARK  status: ('A' for Active; 'I' for Inactive)
REMARK    1  A    between atoms: C2*_2  and  O2*_15
REMARK    2  A    between atoms: C3*_3  and  O3*_17
REMARK    3  A    between atoms: C1*_4  and  N1_8
REMARK    4  A    between atoms: C4*_5  and  C5*_19
REMARK    5  A    between atoms: C5*_19  and  O5*_20
REMARK                            x       y       z     vdW  Elec       q    Type
REMARK                         _______ _______ _______ _____ _____    ______ ____
ROOT
ATOM      1  O4* U   A   1      35.122 -17.122 -20.747  0.00  0.00    -0.333 OA
ATOM      2  C2* U   A   1      34.428 -17.982 -22.843  0.00  0.00    +0.187 C 
ATOM      3  C3* U   A   1      34.598 -16.482 -22.966  0.00  0.00    +0.171 C 
ATOM      4  C1* U   A   1      35.221 -18.286 -21.584  0.00  0.00    +0.229 C 
ATOM      5  C4* U   A   1      34.556 -16.036 -21.512  0.00  0.00    +0.175 C 
ENDROOT
BRANCH   4   8
ATOM      6  O2  U   A   1      36.803 -20.096 -20.101  0.00  0.00    -0.252 OA
ATOM      7  O4  U   A   1      33.127 -22.600 -18.889  0.00  0.00    -0.270 OA
ATOM      8  N1  U   A   1      34.703 -19.419 -20.870  0.00  0.00    -0.217 N 
ATOM      9  N3  U   A   1      34.971 -21.341 -19.499  0.00  0.00    -0.236 N 
ATOM     10  C2  U   A   1      35.583 -20.267 -20.157  0.00  0.00    +0.315 C 
ATOM     11  C6  U   A   1      33.338 -19.681 -20.882  0.00  0.00    +0.076 C 
ATOM     12  C5  U   A   1      32.770 -20.710 -20.250  0.00  0.00    +0.074 C 
ATOM     13  C4  U   A   1      33.618 -21.644 -19.481  0.00  0.00    +0.254 C 
ATOM     14  H3  U   A   1      35.564 -21.946 -18.996  0.00  0.00    +0.159 HD
ENDBRANCH   4   8
BRANCH   2  15
ATOM     15  O2* U   A   1      34.919 -18.672 -23.975  0.00  0.00    -0.378 OA
ATOM     16  H2* U   A   1      35.773 -18.296 -24.238  0.00  0.00    +0.211 HD
ENDBRANCH   2  15
BRANCH   3  17
ATOM     17  O3* U   A   1      35.892 -16.172 -23.484  0.00  0.00    -0.379 OA
ATOM     18  H3* U   A   1      35.940 -16.440 -24.416  0.00  0.00    +0.211 HD
ENDBRANCH   3  17
BRANCH   5  19
ATOM     19  C5* U   A   1      33.144 -15.782 -21.000  0.00  0.00    +0.169 C 
BRANCH  19  20
ATOM     20  O5* U   A   1      32.487 -14.904 -21.898  0.00  0.00    -0.379 OA
ATOM     21  H5* U   A   1      31.544 -14.860 -21.675  0.00  0.00    +0.211 HD
ENDBRANCH  19  20
ENDBRANCH   5  19
TORSDOF 5
ENDMDL
MODEL 2
REMARK VINA RESULT:      -7.6      7.622     10.461
REMARK  Name = 6029
REMARK  5 active torsions:
REMARK  status: ('A' for Active; 'I' for Inactive)
REMARK    1  A    between atoms: C2*_2  and  O2*_15
REMARK    2  A    between atoms: C3*_3  and  O3*_17
REMARK    3  A    between atoms: C1*_4  and  N1_8
REMARK    4  A    between atoms: C4*_5  and  C5*_19
REMARK    5  A    between atoms: C5*_19  and  O5*_20
REMARK                            x       y       z     vdW  Elec       q    Type
REMARK                         _______ _______ _______ _____ _____    ______ ____
ROOT
ATOM      1  O4* U   A   1      34.992 -25.125 -15.111  0.00  0.00    -0.333 OA
ATOM      2  C2* U   A   1      35.019 -24.298 -12.891  0.00  0.00    +0.187 C 
ATOM      3  C3* U   A   1      33.657 -24.022 -13.493  0.00  0.00    +0.171 C 
ATOM      4  C1* U   A   1      35.561 -25.374 -13.815  0.00  0.00    +0.229 C 
ATOM      5  C4* U   A   1      33.939 -24.144 -14.984  0.00  0.00    +0.175 C 
ENDROOT
BRANCH   4   8
ATOM      6  O2  U   A   1      37.327 -26.576 -11.968  0.00  0.00    -0.252 OA
ATOM      7  O4  U   A   1      41.034 -25.164 -14.314  0.00  0.00    -0.270 OA
ATOM      8  N1  U   A   1      36.992 -25.336 -13.920  0.00  0.00    -0.217 N 
ATOM      9  N3  U   A   1      39.172 -25.872 -13.137  0.00  0.00    -0.236 N 
ATOM     10  C2  U   A   1      37.789 -25.971 -12.938  0.00  0.00    +0.315 C 
ATOM     11  C6  U   A   1      37.593 -24.676 -14.985  0.00  0.00    +0.076 C 
ATOM     12  C5  U   A   1      38.913 -24.589 -15.162  0.00  0.00    +0.074 C 
ATOM     13  C4  U   A   1      39.817 -25.225 -14.182  0.00  0.00    +0.254 C 
ATOM     14  H3  U   A   1      39.747 -26.305 -12.466  0.00  0.00    +0.159 HD
ENDBRANCH   4   8
BRANCH   2  15
ATOM     15  O2* U   A   1      34.932 -24.728 -11.547  0.00  0.00    -0.378 OA
ATOM     16  H2* U   A   1      34.163 -25.309 -11.442  0.00  0.00    +0.211 HD
ENDBRANCH   2  15
BRANCH   3  17
ATOM     17  O3* U   A   1      32.739 -25.055 -13.134  0.00  0.00    -0.379 OA
ATOM     18  H3* U   A   1      32.898 -25.836 -13.687  0.00  0.00    +0.211 HD
ENDBRANCH   3  17
BRANCH   5  19
ATOM     19  C5* U   A   1      34.424 -22.845 -15.614  0.00  0.00    +0.169 C 
BRANCH  19  20
ATOM     20  O5* U   A   1      35.013 -23.141 -16.868  0.00  0.00    -0.379 OA
ATOM     21  H5* U   A   1      35.583 -23.921 -16.782  0.00  0.00    +0.211 HD
ENDBRANCH  19  20
ENDBRANCH   5  19
TORSDOF 5
ENDMDL
MODEL 3
REMARK VINA RESULT:      -7.6      6.376      8.608
REMARK  Name = 6029
REMARK  5 active torsions:
REMARK  status: ('A' for Active; 'I' for Inactive)
REMARK    1  A    between atoms: C2*_2  and  O2*_15
REMARK    2  A    between atoms: C3*_3  and  O3*_17
REMARK    3  A    between atoms: C1*_4  and  N1_8
REMARK    4  A    between atoms: C4*_5  and  C5*_19
REMARK    5  A    between atoms: C5*_19  and  O5*_20
REMARK                            x       y       z     vdW  Elec       q    Type
REMARK                         _______ _______ _______ _____ _____    ______ ____
ROOT
ATOM      1  O4* U   A   1      34.965 -24.881 -14.769  0.00  0.00    -0.333 OA
ATOM      2  C2* U   A   1      35.894 -22.820 -15.476  0.00  0.00    +0.187 C 
ATOM      3  C3* U   A   1      36.874 -23.497 -14.540  0.00  0.00    +0.171 C 
ATOM      4  C1* U   A   1      34.997 -23.975 -15.884  0.00  0.00    +0.229 C 
ATOM      5  C4* U   A   1      35.983 -24.499 -13.819  0.00  0.00    +0.175 C 
ENDROOT
BRANCH   4   8
ATOM      6  O2  U   A   1      34.114 -23.143 -18.434  0.00  0.00    -0.252 OA
ATOM      7  O4  U   A   1      29.837 -22.369 -16.902  0.00  0.00    -0.270 OA
ATOM      8  N1  U   A   1      33.658 -23.552 -16.179  0.00  0.00    -0.217 N 
ATOM      9  N3  U   A   1      31.985 -22.758 -17.669  0.00  0.00    -0.236 N 
ATOM     10  C2  U   A   1      33.318 -23.153 -17.493  0.00  0.00    +0.315 C 
ATOM     11  C6  U   A   1      32.698 -23.535 -15.174  0.00  0.00    +0.076 C 
ATOM     12  C5  U   A   1      31.432 -23.156 -15.357  0.00  0.00    +0.074 C 
ATOM     13  C4  U   A   1      30.993 -22.724 -16.700  0.00  0.00    +0.254 C 
ATOM     14  H3  U   A   1      31.725 -22.475 -18.575  0.00  0.00    +0.159 HD
ENDBRANCH   4   8
BRANCH   2  15
ATOM     15  O2* U   A   1      36.538 -22.215 -16.579  0.00  0.00    -0.378 OA
ATOM     16  H2* U   A   1      37.492 -22.383 -16.529  0.00  0.00    +0.211 HD
ENDBRANCH   2  15
BRANCH   3  17
ATOM     17  O3* U   A   1      37.845 -24.229 -15.287  0.00  0.00    -0.379 OA
ATOM     18  H3* U   A   1      37.496 -25.110 -15.495  0.00  0.00    +0.211 HD
ENDBRANCH   3  17
BRANCH   5  19
ATOM     19  C5* U   A   1      35.293 -23.917 -12.592  0.00  0.00    +0.169 C 
BRANCH  19  20
ATOM     20  O5* U   A   1      34.809 -24.985 -11.795  0.00  0.00    -0.379 OA
ATOM     21  H5* U   A   1      34.279 -24.628 -11.065  0.00  0.00    +0.211 HD
ENDBRANCH  19  20
ENDBRANCH   5  19
TORSDOF 5
ENDMDL
MODEL 4
REMARK VINA RESULT:      -7.4      7.288      9.280
REMARK  Name = 6029
REMARK  5 active torsions:
REMARK  status: ('A' for Active; 'I' for Inactive)
REMARK    1  A    between atoms: C2*_2  and  O2*_15
REMARK    2  A    between atoms: C3*_3  and  O3*_17
REMARK    3  A    between atoms: C1*_4  and  N1_8
REMARK    4  A    between atoms: C4*_5  and  C5*_19
REMARK    5  A    between atoms: C5*_19  and  O5*_20
REMARK                            x       y       z     vdW  Elec       q    Type
REMARK                         _______ _______ _______ _____ _____    ______ ____
ROOT
ATOM      1  O4* U   A   1      35.843 -23.361 -13.906  0.00  0.00    -0.333 OA
ATOM      2  C2* U   A   1      35.949 -25.373 -15.151  0.00  0.00    +0.187 C 
ATOM      3  C3* U   A   1      37.329 -25.065 -14.611  0.00  0.00    +0.171 C 
ATOM      4  C1* U   A   1      35.064 -24.513 -14.266  0.00  0.00    +0.229 C 
ATOM      5  C4* U   A   1      37.219 -23.582 -14.283  0.00  0.00    +0.175 C 
ENDROOT
BRANCH   4   8
ATOM      6  O2  U   A   1      32.465 -24.687 -13.174  0.00  0.00    -0.252 OA
ATOM      7  O4  U   A   1      30.563 -22.822 -16.935  0.00  0.00    -0.270 OA
ATOM      8  N1  U   A   1      33.872 -24.080 -14.938  0.00  0.00    -0.217 N 
ATOM      9  N3  U   A   1      31.520 -23.759 -15.048  0.00  0.00    -0.236 N 
ATOM     10  C2  U   A   1      32.615 -24.212 -14.302  0.00  0.00    +0.315 C 
ATOM     11  C6  U   A   1      33.955 -23.531 -16.212  0.00  0.00    +0.076 C 
ATOM     12  C5  U   A   1      32.901 -23.104 -16.911  0.00  0.00    +0.074 C 
ATOM     13  C4  U   A   1      31.552 -23.206 -16.320  0.00  0.00    +0.254 C 
ATOM     14  H3  U   A   1      30.634 -23.841 -14.626  0.00  0.00    +0.159 HD
ENDBRANCH   4   8
BRANCH   2  15
ATOM     15  O2* U   A   1      35.634 -26.749 -15.064  0.00  0.00    -0.378 OA
ATOM     16  H2* U   A   1      34.672 -26.863 -15.098  0.00  0.00    +0.211 HD
ENDBRANCH   2  15
BRANCH   3  17
ATOM     17  O3* U   A   1      37.551 -25.770 -13.389  0.00  0.00    -0.379 OA
ATOM     18  H3* U   A   1      37.478 -26.724 -13.549  0.00  0.00    +0.211 HD
ENDBRANCH   3  17
BRANCH   5  19
ATOM     19  C5* U   A   1      37.537 -22.679 -15.467  0.00  0.00    +0.169 C 
BRANCH  19  20
ATOM     20  O5* U   A   1      38.646 -23.218 -16.165  0.00  0.00    -0.379 OA
ATOM     21  H5* U   A   1      38.384 -24.046 -16.597  0.00  0.00    +0.211 HD
ENDBRANCH  19  20
ENDBRANCH   5  19
TORSDOF 5
ENDMDL
MODEL 5
REMARK VINA RESULT:      -7.4      7.345      9.893
REMARK  Name = 6029
REMARK  5 active torsions:
REMARK  status: ('A' for Active; 'I' for Inactive)
REMARK    1  A    between atoms: C2*_2  and  O2*_15
REMARK    2  A    between atoms: C3*_3  and  O3*_17
REMARK    3  A    between atoms: C1*_4  and  N1_8
REMARK    4  A    between atoms: C4*_5  and  C5*_19
REMARK    5  A    between atoms: C5*_19  and  O5*_20
REMARK                            x       y       z     vdW  Elec       q    Type
REMARK                         _______ _______ _______ _____ _____    ______ ____
ROOT
ATOM      1  O4* U   A   1      36.831 -26.065 -14.471  0.00  0.00    -0.333 OA
ATOM      2  C2* U   A   1      37.798 -23.953 -14.939  0.00  0.00    +0.187 C 
ATOM      3  C3* U   A   1      38.899 -24.912 -14.539  0.00  0.00    +0.171 C 
ATOM      4  C1* U   A   1      36.669 -24.902 -15.300  0.00  0.00    +0.229 C 
ATOM      5  C4* U   A   1      38.122 -26.010 -13.826  0.00  0.00    +0.175 C 
ENDROOT
BRANCH   4   8
ATOM      6  O2  U   A   1      35.320 -23.183 -17.089  0.00  0.00    -0.252 OA
ATOM      7  O4  U   A   1      31.706 -22.772 -14.258  0.00  0.00    -0.270 OA
ATOM      8  N1  U   A   1      35.374 -24.333 -15.056  0.00  0.00    -0.217 N 
ATOM      9  N3  U   A   1      33.522 -22.980 -15.678  0.00  0.00    -0.236 N 
ATOM     10  C2  U   A   1      34.785 -23.480 -16.019  0.00  0.00    +0.315 C 
ATOM     11  C6  U   A   1      34.702 -24.619 -13.873  0.00  0.00    +0.076 C 
ATOM     12  C5  U   A   1      33.498 -24.134 -13.562  0.00  0.00    +0.074 C 
ATOM     13  C4  U   A   1      32.813 -23.236 -14.514  0.00  0.00    +0.254 C 
ATOM     14  H3  U   A   1      33.092 -22.383 -16.333  0.00  0.00    +0.159 HD
ENDBRANCH   4   8
BRANCH   2  15
ATOM     15  O2* U   A   1      38.177 -23.122 -16.018  0.00  0.00    -0.378 OA
ATOM     16  H2* U   A   1      38.412 -22.244 -15.682  0.00  0.00    +0.211 HD
ENDBRANCH   2  15
BRANCH   3  17
ATOM     17  O3* U   A   1      39.504 -25.483 -15.699  0.00  0.00    -0.379 OA
ATOM     18  H3* U   A   1      39.263 -26.422 -15.760  0.00  0.00    +0.211 HD
ENDBRANCH   3  17
BRANCH   5  19
ATOM     19  C5* U   A   1      37.901 -25.728 -12.346  0.00  0.00    +0.169 C 
BRANCH  19  20
ATOM     20  O5* U   A   1      36.823 -26.526 -11.888  0.00  0.00    -0.379 OA
ATOM     21  H5* U   A   1      36.009 -25.998 -11.882  0.00  0.00    +0.211 HD
ENDBRANCH  19  20
ENDBRANCH   5  19
TORSDOF 5
ENDMDL
MODEL 6
REMARK VINA RESULT:      -7.3      6.191      9.775
REMARK  Name = 6029
REMARK  5 active torsions:
REMARK  status: ('A' for Active; 'I' for Inactive)
REMARK    1  A    between atoms: C2*_2  and  O2*_15
REMARK    2  A    between atoms: C3*_3  and  O3*_17
REMARK    3  A    between atoms: C1*_4  and  N1_8
REMARK    4  A    between atoms: C4*_5  and  C5*_19
REMARK    5  A    between atoms: C5*_19  and  O5*_20
REMARK                            x       y       z     vdW  Elec       q    Type
REMARK                         _______ _______ _______ _____ _____    ______ ____
ROOT
ATOM      1  O4* U   A   1      35.835 -23.837 -13.471  0.00  0.00    -0.333 OA
ATOM      2  C2* U   A   1      37.676 -25.040 -14.352  0.00  0.00    +0.187 C 
ATOM      3  C3* U   A   1      37.546 -25.364 -12.879  0.00  0.00    +0.171 C 
ATOM      4  C1* U   A   1      36.305 -24.470 -14.672  0.00  0.00    +0.229 C 
ATOM      5  C4* U   A   1      36.696 -24.208 -12.373  0.00  0.00    +0.175 C 
ENDROOT
BRANCH   4   8
ATOM      6  O2  U   A   1      34.185 -23.975 -16.472  0.00  0.00    -0.252 OA
ATOM      7  O4  U   A   1      36.581 -20.717 -18.683  0.00  0.00    -0.270 OA
ATOM      8  N1  U   A   1      36.348 -23.498 -15.727  0.00  0.00    -0.217 N 
ATOM      9  N3  U   A   1      35.380 -22.353 -17.571  0.00  0.00    -0.236 N 
ATOM     10  C2  U   A   1      35.229 -23.328 -16.576  0.00  0.00    +0.315 C 
ATOM     11  C6  U   A   1      37.488 -22.725 -15.912  0.00  0.00    +0.076 C 
ATOM     12  C5  U   A   1      37.617 -21.800 -16.865  0.00  0.00    +0.074 C 
ATOM     13  C4  U   A   1      36.495 -21.559 -17.795  0.00  0.00    +0.254 C 
ATOM     14  H3  U   A   1      34.614 -22.217 -18.175  0.00  0.00    +0.159 HD
ENDBRANCH   4   8
BRANCH   2  15
ATOM     15  O2* U   A   1      37.986 -26.181 -15.127  0.00  0.00    -0.378 OA
ATOM     16  H2* U   A   1      37.539 -26.120 -15.985  0.00  0.00    +0.211 HD
ENDBRANCH   2  15
BRANCH   3  17
ATOM     17  O3* U   A   1      36.801 -26.569 -12.702  0.00  0.00    -0.379 OA
ATOM     18  H3* U   A   1      36.774 -26.796 -11.759  0.00  0.00    +0.211 HD
ENDBRANCH   3  17
BRANCH   5  19
ATOM     19  C5* U   A   1      37.514 -22.985 -11.978  0.00  0.00    +0.169 C 
BRANCH  19  20
ATOM     20  O5* U   A   1      38.815 -23.410 -11.608  0.00  0.00    -0.379 OA
ATOM     21  H5* U   A   1      38.875 -23.464 -10.642  0.00  0.00    +0.211 HD
ENDBRANCH  19  20
ENDBRANCH   5  19
TORSDOF 5
ENDMDL
MODEL 7
REMARK VINA RESULT:      -7.2      6.891      9.932
REMARK  Name = 6029
REMARK  5 active torsions:
REMARK  status: ('A' for Active; 'I' for Inactive)
REMARK    1  A    between atoms: C2*_2  and  O2*_15
REMARK    2  A    between atoms: C3*_3  and  O3*_17
REMARK    3  A    between atoms: C1*_4  and  N1_8
REMARK    4  A    between atoms: C4*_5  and  C5*_19
REMARK    5  A    between atoms: C5*_19  and  O5*_20
REMARK                            x       y       z     vdW  Elec       q    Type
REMARK                         _______ _______ _______ _____ _____    ______ ____
ROOT
ATOM      1  O4* U   A   1      37.068 -23.127 -13.827  0.00  0.00    -0.333 OA
ATOM      2  C2* U   A   1      35.829 -24.896 -12.853  0.00  0.00    +0.187 C 
ATOM      3  C3* U   A   1      37.241 -24.936 -12.308  0.00  0.00    +0.171 C 
ATOM      4  C1* U   A   1      35.742 -23.482 -13.401  0.00  0.00    +0.229 C 
ATOM      5  C4* U   A   1      38.003 -24.112 -13.337  0.00  0.00    +0.175 C 
ENDROOT
BRANCH   4   8
ATOM      6  O2  U   A   1      32.933 -23.718 -13.227  0.00  0.00    -0.252 OA
ATOM      7  O4  U   A   1      32.416 -23.080 -17.762  0.00  0.00    -0.270 OA
ATOM      8  N1  U   A   1      34.850 -23.381 -14.520  0.00  0.00    -0.217 N 
ATOM      9  N3  U   A   1      32.678 -23.400 -15.485  0.00  0.00    -0.236 N 
ATOM     10  C2  U   A   1      33.455 -23.515 -14.325  0.00  0.00    +0.315 C 
ATOM     11  C6  U   A   1      35.357 -23.151 -15.794  0.00  0.00    +0.076 C 
ATOM     12  C5  U   A   1      34.604 -23.044 -16.890  0.00  0.00    +0.074 C 
ATOM     13  C4  U   A   1      33.137 -23.172 -16.774  0.00  0.00    +0.254 C 
ATOM     14  H3  U   A   1      31.704 -23.491 -15.375  0.00  0.00    +0.159 HD
ENDBRANCH   4   8
BRANCH   2  15
ATOM     15  O2* U   A   1      34.862 -25.153 -11.855  0.00  0.00    -0.378 OA
ATOM     16  H2* U   A   1      34.653 -26.099 -11.844  0.00  0.00    +0.211 HD
ENDBRANCH   2  15
BRANCH   3  17
ATOM     17  O3* U   A   1      37.309 -24.251 -11.058  0.00  0.00    -0.379 OA
ATOM     18  H3* U   A   1      36.445 -24.295 -10.618  0.00  0.00    +0.211 HD
ENDBRANCH   3  17
BRANCH   5  19
ATOM     19  C5* U   A   1      38.492 -24.932 -14.523  0.00  0.00    +0.169 C 
BRANCH  19  20
ATOM     20  O5* U   A   1      38.879 -24.046 -15.559  0.00  0.00    -0.379 OA
ATOM     21  H5* U   A   1      38.566 -24.388 -16.411  0.00  0.00    +0.211 HD
ENDBRANCH  19  20
ENDBRANCH   5  19
TORSDOF 5
ENDMDL
MODEL 8
REMARK VINA RESULT:      -7.2      3.939      6.995
REMARK  Name = 6029
REMARK  5 active torsions:
REMARK  status: ('A' for Active; 'I' for Inactive)
REMARK    1  A    between atoms: C2*_2  and  O2*_15
REMARK    2  A    between atoms: C3*_3  and  O3*_17
REMARK    3  A    between atoms: C1*_4  and  N1_8
REMARK    4  A    between atoms: C4*_5  and  C5*_19
REMARK    5  A    between atoms: C5*_19  and  O5*_20
REMARK                            x       y       z     vdW  Elec       q    Type
REMARK                         _______ _______ _______ _____ _____    ______ ____
ROOT
ATOM      1  O4* U   A   1      35.401 -15.631 -22.992  0.00  0.00    -0.333 OA
ATOM      2  C2* U   A   1      33.275 -15.275 -22.008  0.00  0.00    +0.187 C 
ATOM      3  C3* U   A   1      34.060 -16.230 -21.134  0.00  0.00    +0.171 C 
ATOM      4  C1* U   A   1      34.372 -14.638 -22.843  0.00  0.00    +0.229 C 
ATOM      5  C4* U   A   1      35.135 -16.727 -22.091  0.00  0.00    +0.175 C 
ENDROOT
BRANCH   4   8
ATOM      6  O2  U   A   1      34.043 -11.959 -23.675  0.00  0.00    -0.252 OA
ATOM      7  O4  U   A   1      32.597 -13.244 -27.858  0.00  0.00    -0.270 OA
ATOM      8  N1  U   A   1      33.912 -14.244 -24.144  0.00  0.00    -0.217 N 
ATOM      9  N3  U   A   1      33.323 -12.601 -25.757  0.00  0.00    -0.236 N 
ATOM     10  C2  U   A   1      33.781 -12.872 -24.461  0.00  0.00    +0.315 C 
ATOM     11  C6  U   A   1      33.596 -15.212 -25.091  0.00  0.00    +0.076 C 
ATOM     12  C5  U   A   1      33.160 -14.939 -26.322  0.00  0.00    +0.074 C 
ATOM     13  C4  U   A   1      32.995 -13.530 -26.734  0.00  0.00    +0.254 C 
ATOM     14  H3  U   A   1      33.223 -11.653 -26.001  0.00  0.00    +0.159 HD
ENDBRANCH   4   8
BRANCH   2  15
ATOM     15  O2* U   A   1      32.550 -14.328 -21.250  0.00  0.00    -0.378 OA
ATOM     16  H2* U   A   1      31.614 -14.579 -21.230  0.00  0.00    +0.211 HD
ENDBRANCH   2  15
BRANCH   3  17
ATOM     17  O3* U   A   1      34.705 -15.519 -20.078  0.00  0.00    -0.379 OA
ATOM     18  H3* U   A   1      34.360 -14.612 -20.041  0.00  0.00    +0.211 HD
ENDBRANCH   3  17
BRANCH   5  19
ATOM     19  C5* U   A   1      34.696 -17.927 -22.920  0.00  0.00    +0.169 C 
BRANCH  19  20
ATOM     20  O5* U   A   1      35.580 -18.066 -24.018  0.00  0.00    -0.379 OA
ATOM     21  H5* U   A   1      36.497 -18.028 -23.703  0.00  0.00    +0.211 HD
ENDBRANCH  19  20
ENDBRANCH   5  19
TORSDOF 5
ENDMDL
MODEL 9
REMARK VINA RESULT:      -7.1      6.254      9.947
REMARK  Name = 6029
REMARK  5 active torsions:
REMARK  status: ('A' for Active; 'I' for Inactive)
REMARK    1  A    between atoms: C2*_2  and  O2*_15
REMARK    2  A    between atoms: C3*_3  and  O3*_17
REMARK    3  A    between atoms: C1*_4  and  N1_8
REMARK    4  A    between atoms: C4*_5  and  C5*_19
REMARK    5  A    between atoms: C5*_19  and  O5*_20
REMARK                            x       y       z     vdW  Elec       q    Type
REMARK                         _______ _______ _______ _____ _____    ______ ____
ROOT
ATOM      1  O4* U   A   1      37.521 -24.363 -14.080  0.00  0.00    -0.333 OA
ATOM      2  C2* U   A   1      35.472 -24.343 -12.891  0.00  0.00    +0.187 C 
ATOM      3  C3* U   A   1      36.489 -25.128 -12.090  0.00  0.00    +0.171 C 
ATOM      4  C1* U   A   1      36.358 -23.555 -13.840  0.00  0.00    +0.229 C 
ATOM      5  C4* U   A   1      37.535 -25.462 -13.143  0.00  0.00    +0.175 C 
ENDROOT
BRANCH   4   8
ATOM      6  O2  U   A   1      37.492 -22.005 -15.911  0.00  0.00    -0.252 OA
ATOM      7  O4  U   A   1      33.793 -22.566 -18.603  0.00  0.00    -0.270 OA
ATOM      8  N1  U   A   1      35.714 -23.281 -15.092  0.00  0.00    -0.217 N 
ATOM      9  N3  U   A   1      35.649 -22.286 -17.250  0.00  0.00    -0.236 N 
ATOM     10  C2  U   A   1      36.369 -22.490 -16.066  0.00  0.00    +0.315 C 
ATOM     11  C6  U   A   1      34.446 -23.792 -15.347  0.00  0.00    +0.076 C 
ATOM     12  C5  U   A   1      33.772 -23.588 -16.481  0.00  0.00    +0.074 C 
ATOM     13  C4  U   A   1      34.385 -22.773 -17.550  0.00  0.00    +0.254 C 
ATOM     14  H3  U   A   1      36.085 -21.738 -17.942  0.00  0.00    +0.159 HD
ENDBRANCH   4   8
BRANCH   2  15
ATOM     15  O2* U   A   1      34.672 -23.511 -12.075  0.00  0.00    -0.378 OA
ATOM     16  H2* U   A   1      34.143 -24.059 -11.475  0.00  0.00    +0.211 HD
ENDBRANCH   2  15
BRANCH   3  17
ATOM     17  O3* U   A   1      37.102 -24.288 -11.112  0.00  0.00    -0.379 OA
ATOM     18  H3* U   A   1      36.442 -23.676 -10.751  0.00  0.00    +0.211 HD
ENDBRANCH   3  17
BRANCH   5  19
ATOM     19  C5* U   A   1      37.229 -26.742 -13.911  0.00  0.00    +0.169 C 
BRANCH  19  20
ATOM     20  O5* U   A   1      38.360 -27.083 -14.694  0.00  0.00    -0.379 OA
ATOM     21  H5* U   A   1      38.725 -26.281 -15.100  0.00  0.00    +0.211 HD
ENDBRANCH  19  20
ENDBRANCH   5  19
TORSDOF 5
ENDMDL
