MODEL 1
REMARK VINA RESULT:      -4.5      0.000      0.000
REMARK  Name = 445281
REMARK  1 active torsions:
REMARK  status: ('A' for Active; 'I' for Inactive)
REMARK    1  A    between atoms: C_2  and  N_7
REMARK                            x       y       z     vdW  Elec       q    Type
REMARK                         _______ _______ _______ _____ _____    ______ ____
ROOT
ATOM      1  N   UNL     1      35.881 -20.269 -20.261  0.00  0.00    -0.276 NA
ATOM      2  C   UNL     1      33.640 -21.034 -19.470  0.00  0.00    -0.041 C 
ATOM      3  C   UNL     1      33.031 -20.406 -20.717  0.00  0.00    -0.014 C 
ATOM      4  C   UNL     1      35.094 -21.399 -19.764  0.00  0.00    +0.103 C 
ATOM      5  C   UNL     1      33.808 -19.156 -21.082  0.00  0.00    +0.045 C 
ATOM      6  C   UNL     1      35.288 -19.299 -20.865  0.00  0.00    +0.067 C 
ENDROOT
BRANCH   2   7
ATOM      7  N   UNL     1      32.892 -22.231 -19.093  0.00  0.00    +0.383 N 
ATOM      8  H   UNL     1      33.472 -22.819 -18.493  0.00  0.00    -0.089 HD
ATOM      9  H   UNL     1      32.636 -22.751 -19.933  0.00  0.00    -0.089 HD
ATOM     10  H   UNL     1      32.047 -21.960 -18.589  0.00  0.00    -0.089 HD
ENDBRANCH   2   7
TORSDOF 1
ENDMDL
MODEL 2
REMARK VINA RESULT:      -4.4      1.739      2.363
REMARK  Name = 445281
REMARK  1 active torsions:
REMARK  status: ('A' for Active; 'I' for Inactive)
REMARK    1  A    between atoms: C_2  and  N_7
REMARK                            x       y       z     vdW  Elec       q    Type
REMARK                         _______ _______ _______ _____ _____    ______ ____
ROOT
ATOM      1  N   UNL     1      35.196 -22.326 -18.575  0.00  0.00    -0.276 NA
ATOM      2  C   UNL     1      33.831 -20.687 -19.873  0.00  0.00    -0.041 C 
ATOM      3  C   UNL     1      35.045 -20.439 -20.759  0.00  0.00    -0.014 C 
ATOM      4  C   UNL     1      33.934 -22.090 -19.279  0.00  0.00    +0.103 C 
ATOM      5  C   UNL     1      36.307 -20.549 -19.925  0.00  0.00    +0.045 C 
ATOM      6  C   UNL     1      36.239 -21.646 -18.899  0.00  0.00    +0.067 C 
ENDROOT
BRANCH   2   7
ATOM      7  N   UNL     1      32.603 -20.566 -20.656  0.00  0.00    +0.383 N 
ATOM      8  H   UNL     1      32.744 -19.891 -21.408  0.00  0.00    -0.089 HD
ATOM      9  H   UNL     1      31.845 -20.248 -20.052  0.00  0.00    -0.089 HD
ATOM     10  H   UNL     1      32.363 -21.474 -21.055  0.00  0.00    -0.089 HD
ENDBRANCH   2   7
TORSDOF 1
ENDMDL
MODEL 3
REMARK VINA RESULT:      -4.3      3.682      4.828
REMARK  Name = 445281
REMARK  1 active torsions:
REMARK  status: ('A' for Active; 'I' for Inactive)
REMARK    1  A    between atoms: C_2  and  N_7
REMARK                            x       y       z     vdW  Elec       q    Type
REMARK                         _______ _______ _______ _____ _____    ______ ____
ROOT
ATOM      1  N   UNL     1      34.770 -16.456 -24.424  0.00  0.00    -0.276 NA
ATOM      2  C   UNL     1      34.719 -17.614 -22.212  0.00  0.00    -0.041 C 
ATOM      3  C   UNL     1      35.223 -18.873 -22.905  0.00  0.00    -0.014 C 
ATOM      4  C   UNL     1      35.169 -16.396 -23.016  0.00  0.00    +0.103 C 
ATOM      5  C   UNL     1      34.645 -18.943 -24.305  0.00  0.00    +0.045 C 
ATOM      6  C   UNL     1      34.568 -17.600 -24.977  0.00  0.00    +0.067 C 
ENDROOT
BRANCH   2   7
ATOM      7  N   UNL     1      35.252 -17.539 -20.854  0.00  0.00    +0.383 N 
ATOM      8  H   UNL     1      34.775 -18.221 -20.263  0.00  0.00    -0.089 HD
ATOM      9  H   UNL     1      35.102 -16.601 -20.481  0.00  0.00    -0.089 HD
ATOM     10  H   UNL     1      36.252 -17.743 -20.869  0.00  0.00    -0.089 HD
ENDBRANCH   2   7
TORSDOF 1
ENDMDL
MODEL 4
REMARK VINA RESULT:      -4.3      1.477      3.001
REMARK  Name = 445281
REMARK  1 active torsions:
REMARK  status: ('A' for Active; 'I' for Inactive)
REMARK    1  A    between atoms: C_2  and  N_7
REMARK                            x       y       z     vdW  Elec       q    Type
REMARK                         _______ _______ _______ _____ _____    ______ ____
ROOT
ATOM      1  N   UNL     1      35.198 -22.513 -18.472  0.00  0.00    -0.276 NA
ATOM      2  C   UNL     1      35.760 -20.782 -20.182  0.00  0.00    -0.041 C 
ATOM      3  C   UNL     1      34.313 -20.309 -20.120  0.00  0.00    -0.014 C 
ATOM      4  C   UNL     1      36.120 -21.440 -18.852  0.00  0.00    +0.103 C 
ATOM      5  C   UNL     1      33.405 -21.498 -19.876  0.00  0.00    +0.045 C 
ATOM      6  C   UNL     1      33.992 -22.500 -18.921  0.00  0.00    +0.067 C 
ENDROOT
BRANCH   2   7
ATOM      7  N   UNL     1      36.650 -19.651 -20.435  0.00  0.00    +0.383 N 
ATOM      8  H   UNL     1      36.217 -19.023 -21.113  0.00  0.00    -0.089 HD
ATOM      9  H   UNL     1      37.537 -19.993 -20.805  0.00  0.00    -0.089 HD
ATOM     10  H   UNL     1      36.816 -19.147 -19.563  0.00  0.00    -0.089 HD
ENDBRANCH   2   7
TORSDOF 1
ENDMDL
MODEL 5
REMARK VINA RESULT:      -4.3      9.240     10.021
REMARK  Name = 445281
REMARK  1 active torsions:
REMARK  status: ('A' for Active; 'I' for Inactive)
REMARK    1  A    between atoms: C_2  and  N_7
REMARK                            x       y       z     vdW  Elec       q    Type
REMARK                         _______ _______ _______ _____ _____    ______ ____
ROOT
ATOM      1  N   UNL     1      41.858 -16.923 -16.492  0.00  0.00    -0.276 NA
ATOM      2  C   UNL     1      41.843 -14.465 -16.053  0.00  0.00    -0.041 C 
ATOM      3  C   UNL     1      41.345 -14.255 -17.477  0.00  0.00    -0.014 C 
ATOM      4  C   UNL     1      41.424 -15.857 -15.586  0.00  0.00    +0.103 C 
ATOM      5  C   UNL     1      41.958 -15.304 -18.385  0.00  0.00    +0.045 C 
ATOM      6  C   UNL     1      42.063 -16.655 -17.734  0.00  0.00    +0.067 C 
ENDROOT
BRANCH   2   7
ATOM      7  N   UNL     1      41.277 -13.451 -15.167  0.00  0.00    +0.383 N 
ATOM      8  H   UNL     1      41.745 -12.559 -15.327  0.00  0.00    -0.089 HD
ATOM      9  H   UNL     1      41.410 -13.735 -14.196  0.00  0.00    -0.089 HD
ATOM     10  H   UNL     1      40.279 -13.350 -15.358  0.00  0.00    -0.089 HD
ENDBRANCH   2   7
TORSDOF 1
ENDMDL
MODEL 6
REMARK VINA RESULT:      -4.3     10.371     11.432
REMARK  Name = 445281
REMARK  1 active torsions:
REMARK  status: ('A' for Active; 'I' for Inactive)
REMARK    1  A    between atoms: C_2  and  N_7
REMARK                            x       y       z     vdW  Elec       q    Type
REMARK                         _______ _______ _______ _____ _____    ______ ____
ROOT
ATOM      1  N   UNL     1      31.428 -10.311 -22.125  0.00  0.00    -0.276 NA
ATOM      2  C   UNL     1      32.003  -8.803 -20.219  0.00  0.00    -0.041 C 
ATOM      3  C   UNL     1      32.123 -10.037 -19.333  0.00  0.00    -0.014 C 
ATOM      4  C   UNL     1      32.277  -9.209 -21.666  0.00  0.00    +0.103 C 
ATOM      5  C   UNL     1      31.107 -11.073 -19.774  0.00  0.00    +0.045 C 
ATOM      6  C   UNL     1      30.943 -11.138 -21.267  0.00  0.00    +0.067 C 
ENDROOT
BRANCH   2   7
ATOM      7  N   UNL     1      32.963  -7.785 -19.797  0.00  0.00    +0.383 N 
ATOM      8  H   UNL     1      32.799  -7.549 -18.818  0.00  0.00    -0.089 HD
ATOM      9  H   UNL     1      32.847  -6.950 -20.373  0.00  0.00    -0.089 HD
ATOM     10  H   UNL     1      33.911  -8.145 -19.907  0.00  0.00    -0.089 HD
ENDBRANCH   2   7
TORSDOF 1
ENDMDL
MODEL 7
REMARK VINA RESULT:      -4.3      1.609      2.869
REMARK  Name = 445281
REMARK  1 active torsions:
REMARK  status: ('A' for Active; 'I' for Inactive)
REMARK    1  A    between atoms: C_2  and  N_7
REMARK                            x       y       z     vdW  Elec       q    Type
REMARK                         _______ _______ _______ _____ _____    ______ ____
ROOT
ATOM      1  N   UNL     1      36.248 -20.384 -19.994  0.00  0.00    -0.276 NA
ATOM      2  C   UNL     1      34.812 -19.416 -21.794  0.00  0.00    -0.041 C 
ATOM      3  C   UNL     1      33.604 -19.637 -20.893  0.00  0.00    -0.014 C 
ATOM      4  C   UNL     1      36.056 -19.266 -20.920  0.00  0.00    +0.103 C 
ATOM      5  C   UNL     1      33.810 -20.898 -20.076  0.00  0.00    +0.045 C 
ATOM      6  C   UNL     1      35.230 -21.076 -19.616  0.00  0.00    +0.067 C 
ENDROOT
BRANCH   2   7
ATOM      7  N   UNL     1      34.624 -18.214 -22.603  0.00  0.00    +0.383 N 
ATOM      8  H   UNL     1      35.101 -18.328 -23.498  0.00  0.00    -0.089 HD
ATOM      9  H   UNL     1      35.012 -17.409 -22.111  0.00  0.00    -0.089 HD
ATOM     10  H   UNL     1      33.628 -18.066 -22.765  0.00  0.00    -0.089 HD
ENDBRANCH   2   7
TORSDOF 1
ENDMDL
MODEL 8
REMARK VINA RESULT:      -4.2      8.949      9.334
REMARK  Name = 445281
REMARK  1 active torsions:
REMARK  status: ('A' for Active; 'I' for Inactive)
REMARK    1  A    between atoms: C_2  and  N_7
REMARK                            x       y       z     vdW  Elec       q    Type
REMARK                         _______ _______ _______ _____ _____    ______ ____
ROOT
ATOM      1  N   UNL     1      38.474 -23.705 -11.949  0.00  0.00    -0.276 NA
ATOM      2  C   UNL     1      37.106 -25.704 -12.557  0.00  0.00    -0.041 C 
ATOM      3  C   UNL     1      35.990 -24.759 -12.987  0.00  0.00    -0.014 C 
ATOM      4  C   UNL     1      38.442 -24.974 -12.679  0.00  0.00    +0.103 C 
ATOM      5  C   UNL     1      35.990 -23.539 -12.087  0.00  0.00    +0.045 C 
ATOM      6  C   UNL     1      37.374 -23.077 -11.722  0.00  0.00    +0.067 C 
ENDROOT
BRANCH   2   7
ATOM      7  N   UNL     1      37.110 -26.896 -13.403  0.00  0.00    +0.383 N 
ATOM      8  H   UNL     1      37.474 -27.687 -12.872  0.00  0.00    -0.089 HD
ATOM      9  H   UNL     1      37.700 -26.731 -14.218  0.00  0.00    -0.089 HD
ATOM     10  H   UNL     1      36.157 -27.100 -13.707  0.00  0.00    -0.089 HD
ENDBRANCH   2   7
TORSDOF 1
ENDMDL
MODEL 9
REMARK VINA RESULT:      -4.2      1.231      3.199
REMARK  Name = 445281
REMARK  1 active torsions:
REMARK  status: ('A' for Active; 'I' for Inactive)
REMARK    1  A    between atoms: C_2  and  N_7
REMARK                            x       y       z     vdW  Elec       q    Type
REMARK                         _______ _______ _______ _____ _____    ______ ____
ROOT
ATOM      1  N   UNL     1      32.882 -21.600 -19.574  0.00  0.00    -0.276 NA
ATOM      2  C   UNL     1      34.338 -19.793 -20.495  0.00  0.00    -0.041 C 
ATOM      3  C   UNL     1      35.496 -20.783 -20.496  0.00  0.00    -0.014 C 
ATOM      4  C   UNL     1      33.027 -20.570 -20.604  0.00  0.00    +0.103 C 
ATOM      5  C   UNL     1      35.358 -21.721 -19.313  0.00  0.00    +0.045 C 
ATOM      6  C   UNL     1      33.932 -22.112 -19.036  0.00  0.00    +0.067 C 
ENDROOT
BRANCH   2   7
ATOM      7  N   UNL     1      34.465 -18.869 -21.619  0.00  0.00    +0.383 N 
ATOM      8  H   UNL     1      35.406 -18.474 -21.631  0.00  0.00    -0.089 HD
ATOM      9  H   UNL     1      33.782 -18.117 -21.520  0.00  0.00    -0.089 HD
ATOM     10  H   UNL     1      34.295 -19.369 -22.492  0.00  0.00    -0.089 HD
ENDBRANCH   2   7
TORSDOF 1
ENDMDL
