MODEL 1
REMARK VINA RESULT:      -8.8      0.000      0.000
REMARK  Name = 4507
REMARK  7 active torsions:
REMARK  status: ('A' for Active; 'I' for Inactive)
REMARK    1  A    between atoms: C_2  and  C_10
REMARK    2  A    between atoms: C_3  and  C_20
REMARK    3  A    between atoms: C_4  and  C_25
REMARK    4  A    between atoms: C_13  and  N_18
REMARK    5  A    between atoms: C_20  and  O_21
REMARK    6  A    between atoms: O_21  and  C_22
REMARK    7  A    between atoms: C_25  and  O_26
REMARK                            x       y       z     vdW  Elec       q    Type
REMARK                         _______ _______ _______ _____ _____    ______ ____
ROOT
ATOM      1  N   UNL     1      32.879 -23.627 -15.364  0.00  0.00    -0.334 N 
ATOM      2  C   UNL     1      35.631 -23.507 -14.702  0.00  0.00    +0.011 C 
ATOM      3  C   UNL     1      35.071 -23.068 -16.059  0.00  0.00    +0.071 C 
ATOM      4  C   UNL     1      34.537 -23.861 -13.690  0.00  0.00    +0.085 C 
ATOM      5  C   UNL     1      33.750 -23.157 -16.333  0.00  0.00    +0.098 C 
ATOM      6  C   UNL     1      33.238 -23.932 -14.061  0.00  0.00    +0.028 C 
ATOM      7  C   UNL     1      33.103 -22.790 -17.643  0.00  0.00    +0.026 C 
ATOM      8  C   UNL     1      32.094 -24.319 -13.161  0.00  0.00    +0.047 C 
ATOM      9  H   UNL     1      31.936 -23.754 -15.619  0.00  0.00    +0.147 HD
ENDROOT
BRANCH   2  10
ATOM     10  C   UNL     1      36.556 -24.677 -14.884  0.00  0.00    +0.002 C 
ATOM     11  C   UNL     1      37.918 -24.517 -14.664  0.00  0.00    +0.024 C 
ATOM     12  C   UNL     1      36.038 -25.908 -15.273  0.00  0.00    +0.000 C 
ATOM     13  C   UNL     1      38.777 -25.604 -14.834  0.00  0.00    +0.143 C 
ATOM     14  C   UNL     1      36.897 -26.993 -15.443  0.00  0.00    +0.002 C 
ATOM     15  C   UNL     1      38.266 -26.842 -15.224  0.00  0.00    +0.024 C 
BRANCH  13  18
ATOM     16  O   UNL     1      40.554 -24.629 -13.744  0.00  0.00    -0.126 OA
ATOM     17  O   UNL     1      40.970 -26.138 -15.289  0.00  0.00    -0.126 OA
ATOM     18  N   UNL     1      40.171 -25.449 -14.611  0.00  0.00    +0.058 N 
ENDBRANCH  13  18
ENDBRANCH   2  10
BRANCH   3  20
ATOM     19  O   UNL     1      37.124 -22.064 -16.686  0.00  0.00    -0.245 OA
ATOM     20  C   UNL     1      36.032 -22.489 -17.012  0.00  0.00    +0.339 C 
BRANCH  20  21
ATOM     21  O   UNL     1      35.482 -22.527 -18.250  0.00  0.00    -0.446 OA
BRANCH  21  22
ATOM     22  C   UNL     1      36.098 -21.668 -19.215  0.00  0.00    +0.209 C 
ATOM     23  C   UNL     1      35.021 -20.921 -19.970  0.00  0.00    +0.051 C 
ENDBRANCH  21  22
ENDBRANCH  20  21
ENDBRANCH   3  20
BRANCH   4  25
ATOM     24  O   UNL     1      34.614 -25.016 -11.623  0.00  0.00    -0.245 OA
ATOM     25  C   UNL     1      34.967 -24.067 -12.298  0.00  0.00    +0.342 C 
BRANCH  25  26
ATOM     26  O   UNL     1      35.786 -23.047 -11.948  0.00  0.00    -0.441 OA
ATOM     27  C   UNL     1      36.978 -23.436 -11.258  0.00  0.00    +0.256 C 
ENDBRANCH  25  26
ENDBRANCH   4  25
TORSDOF 7
ENDMDL
MODEL 2
REMARK VINA RESULT:      -8.7      2.778      5.889
REMARK  Name = 4507
REMARK  7 active torsions:
REMARK  status: ('A' for Active; 'I' for Inactive)
REMARK    1  A    between atoms: C_2  and  C_10
REMARK    2  A    between atoms: C_3  and  C_20
REMARK    3  A    between atoms: C_4  and  C_25
REMARK    4  A    between atoms: C_13  and  N_18
REMARK    5  A    between atoms: C_20  and  O_21
REMARK    6  A    between atoms: O_21  and  C_22
REMARK    7  A    between atoms: C_25  and  O_26
REMARK                            x       y       z     vdW  Elec       q    Type
REMARK                         _______ _______ _______ _____ _____    ______ ____
ROOT
ATOM      1  N   UNL     1      36.873 -22.221 -16.687  0.00  0.00    -0.334 N 
ATOM      2  C   UNL     1      34.515 -23.790 -16.723  0.00  0.00    +0.011 C 
ATOM      3  C   UNL     1      34.860 -22.762 -17.806  0.00  0.00    +0.071 C 
ATOM      4  C   UNL     1      35.648 -23.997 -15.713  0.00  0.00    +0.085 C 
ATOM      5  C   UNL     1      35.992 -22.026 -17.738  0.00  0.00    +0.098 C 
ATOM      6  C   UNL     1      36.744 -23.203 -15.718  0.00  0.00    +0.028 C 
ATOM      7  C   UNL     1      36.405 -20.966 -18.724  0.00  0.00    +0.026 C 
ATOM      8  C   UNL     1      37.887 -23.288 -14.743  0.00  0.00    +0.047 C 
ATOM      9  H   UNL     1      37.648 -21.616 -16.622  0.00  0.00    +0.147 HD
ENDROOT
BRANCH   2  10
ATOM     10  C   UNL     1      33.261 -23.378 -16.006  0.00  0.00    +0.002 C 
ATOM     11  C   UNL     1      32.030 -23.535 -16.630  0.00  0.00    +0.024 C 
ATOM     12  C   UNL     1      33.346 -22.843 -14.726  0.00  0.00    +0.000 C 
ATOM     13  C   UNL     1      30.865 -23.152 -15.964  0.00  0.00    +0.143 C 
ATOM     14  C   UNL     1      32.182 -22.459 -14.061  0.00  0.00    +0.002 C 
ATOM     15  C   UNL     1      30.941 -22.614 -14.680  0.00  0.00    +0.024 C 
BRANCH  13  18
ATOM     16  O   UNL     1      29.029 -24.422 -16.524  0.00  0.00    -0.126 OA
ATOM     17  O   UNL     1      29.105 -22.331 -17.200  0.00  0.00    -0.126 OA
ATOM     18  N   UNL     1      29.602 -23.310 -16.594  0.00  0.00    +0.058 N 
ENDBRANCH  13  18
ENDBRANCH   2  10
BRANCH   3  20
ATOM     19  O   UNL     1      33.731 -23.585 -19.721  0.00  0.00    -0.245 OA
ATOM     20  C   UNL     1      33.932 -22.669 -18.945  0.00  0.00    +0.339 C 
BRANCH  20  21
ATOM     21  O   UNL     1      33.382 -21.430 -18.949  0.00  0.00    -0.446 OA
BRANCH  21  22
ATOM     22  C   UNL     1      32.867 -20.999 -20.212  0.00  0.00    +0.209 C 
ATOM     23  C   UNL     1      33.682 -19.822 -20.702  0.00  0.00    +0.051 C 
ENDBRANCH  21  22
ENDBRANCH  20  21
ENDBRANCH   3  20
BRANCH   4  25
ATOM     24  O   UNL     1      35.239 -24.989 -13.601  0.00  0.00    -0.245 OA
ATOM     25  C   UNL     1      35.504 -25.126 -14.780  0.00  0.00    +0.342 C 
BRANCH  25  26
ATOM     26  O   UNL     1      35.711 -26.276 -15.466  0.00  0.00    -0.441 OA
ATOM     27  C   UNL     1      36.977 -26.902 -15.232  0.00  0.00    +0.256 C 
ENDBRANCH  25  26
ENDBRANCH   4  25
TORSDOF 7
ENDMDL
MODEL 3
REMARK VINA RESULT:      -8.3      2.560      5.296
REMARK  Name = 4507
REMARK  7 active torsions:
REMARK  status: ('A' for Active; 'I' for Inactive)
REMARK    1  A    between atoms: C_2  and  C_10
REMARK    2  A    between atoms: C_3  and  C_20
REMARK    3  A    between atoms: C_4  and  C_25
REMARK    4  A    between atoms: C_13  and  N_18
REMARK    5  A    between atoms: C_20  and  O_21
REMARK    6  A    between atoms: O_21  and  C_22
REMARK    7  A    between atoms: C_25  and  O_26
REMARK                            x       y       z     vdW  Elec       q    Type
REMARK                         _______ _______ _______ _____ _____    ______ ____
ROOT
ATOM      1  N   UNL     1      33.411 -23.474 -13.079  0.00  0.00    -0.334 N 
ATOM      2  C   UNL     1      33.643 -24.336 -15.767  0.00  0.00    +0.011 C 
ATOM      3  C   UNL     1      34.706 -24.613 -14.698  0.00  0.00    +0.071 C 
ATOM      4  C   UNL     1      32.376 -23.692 -15.196  0.00  0.00    +0.085 C 
ATOM      5  C   UNL     1      34.557 -24.168 -13.430  0.00  0.00    +0.098 C 
ATOM      6  C   UNL     1      32.323 -23.271 -13.911  0.00  0.00    +0.028 C 
ATOM      7  C   UNL     1      35.555 -24.351 -12.317  0.00  0.00    +0.026 C 
ATOM      8  C   UNL     1      31.149 -22.583 -13.267  0.00  0.00    +0.047 C 
ATOM      9  H   UNL     1      33.367 -23.095 -12.170  0.00  0.00    +0.147 HD
ENDROOT
BRANCH   2  10
ATOM     10  C   UNL     1      34.217 -23.465 -16.847  0.00  0.00    +0.002 C 
ATOM     11  C   UNL     1      35.364 -22.722 -16.594  0.00  0.00    +0.024 C 
ATOM     12  C   UNL     1      33.594 -23.410 -18.089  0.00  0.00    +0.000 C 
ATOM     13  C   UNL     1      35.897 -21.912 -17.598  0.00  0.00    +0.143 C 
ATOM     14  C   UNL     1      34.127 -22.600 -19.091  0.00  0.00    +0.002 C 
ATOM     15  C   UNL     1      35.278 -21.852 -18.846  0.00  0.00    +0.024 C 
BRANCH  13  18
ATOM     16  O   UNL     1      37.357 -20.214 -18.130  0.00  0.00    -0.126 OA
ATOM     17  O   UNL     1      37.776 -21.441 -16.355  0.00  0.00    -0.126 OA
ATOM     18  N   UNL     1      37.069 -21.151 -17.348  0.00  0.00    +0.058 N 
ENDBRANCH  13  18
ENDBRANCH   2  10
BRANCH   3  20
ATOM     19  O   UNL     1      35.741 -26.510 -15.672  0.00  0.00    -0.245 OA
ATOM     20  C   UNL     1      35.855 -25.437 -15.109  0.00  0.00    +0.339 C 
BRANCH  20  21
ATOM     21  O   UNL     1      36.993 -24.792 -14.755  0.00  0.00    -0.446 OA
BRANCH  21  22
ATOM     22  C   UNL     1      38.165 -25.612 -14.706  0.00  0.00    +0.209 C 
ATOM     23  C   UNL     1      39.000 -25.208 -13.511  0.00  0.00    +0.051 C 
ENDBRANCH  21  22
ENDBRANCH  20  21
ENDBRANCH   3  20
BRANCH   4  25
ATOM     24  O   UNL     1      30.986 -22.637 -16.799  0.00  0.00    -0.245 OA
ATOM     25  C   UNL     1      31.216 -23.605 -16.098  0.00  0.00    +0.342 C 
BRANCH  25  26
ATOM     26  O   UNL     1      30.505 -24.752 -15.993  0.00  0.00    -0.441 OA
ATOM     27  C   UNL     1      29.112 -24.580 -15.715  0.00  0.00    +0.256 C 
ENDBRANCH  25  26
ENDBRANCH   4  25
TORSDOF 7
ENDMDL
MODEL 4
REMARK VINA RESULT:      -8.1      2.566      5.903
REMARK  Name = 4507
REMARK  7 active torsions:
REMARK  status: ('A' for Active; 'I' for Inactive)
REMARK    1  A    between atoms: C_2  and  C_10
REMARK    2  A    between atoms: C_3  and  C_20
REMARK    3  A    between atoms: C_4  and  C_25
REMARK    4  A    between atoms: C_13  and  N_18
REMARK    5  A    between atoms: C_20  and  O_21
REMARK    6  A    between atoms: O_21  and  C_22
REMARK    7  A    between atoms: C_25  and  O_26
REMARK                            x       y       z     vdW  Elec       q    Type
REMARK                         _______ _______ _______ _____ _____    ______ ____
ROOT
ATOM      1  N   UNL     1      33.661 -23.676 -13.032  0.00  0.00    -0.334 N 
ATOM      2  C   UNL     1      34.046 -24.256 -15.778  0.00  0.00    +0.011 C 
ATOM      3  C   UNL     1      35.041 -24.660 -14.684  0.00  0.00    +0.071 C 
ATOM      4  C   UNL     1      32.754 -23.656 -15.218  0.00  0.00    +0.085 C 
ATOM      5  C   UNL     1      34.819 -24.348 -13.386  0.00  0.00    +0.098 C 
ATOM      6  C   UNL     1      32.627 -23.370 -13.902  0.00  0.00    +0.028 C 
ATOM      7  C   UNL     1      35.746 -24.663 -12.242  0.00  0.00    +0.026 C 
ATOM      8  C   UNL     1      31.423 -22.735 -13.259  0.00  0.00    +0.047 C 
ATOM      9  H   UNL     1      33.565 -23.394 -12.093  0.00  0.00    +0.147 HD
ENDROOT
BRANCH   2  10
ATOM     10  C   UNL     1      34.693 -23.285 -16.724  0.00  0.00    +0.002 C 
ATOM     11  C   UNL     1      33.994 -22.844 -17.841  0.00  0.00    +0.024 C 
ATOM     12  C   UNL     1      35.986 -22.839 -16.472  0.00  0.00    +0.000 C 
ATOM     13  C   UNL     1      34.596 -21.943 -18.720  0.00  0.00    +0.143 C 
ATOM     14  C   UNL     1      36.587 -21.938 -17.351  0.00  0.00    +0.002 C 
ATOM     15  C   UNL     1      35.892 -21.490 -18.474  0.00  0.00    +0.024 C 
BRANCH  13  18
ATOM     16  O   UNL     1      32.744 -21.945 -20.086  0.00  0.00    -0.126 OA
ATOM     17  O   UNL     1      34.434 -20.641 -20.612  0.00  0.00    -0.126 OA
ATOM     18  N   UNL     1      33.889 -21.486 -19.863  0.00  0.00    +0.058 N 
ENDBRANCH  13  18
ENDBRANCH   2  10
BRANCH   3  20
ATOM     19  O   UNL     1      36.110 -26.507 -15.715  0.00  0.00    -0.245 OA
ATOM     20  C   UNL     1      36.204 -25.455 -15.111  0.00  0.00    +0.339 C 
BRANCH  20  21
ATOM     21  O   UNL     1      37.330 -24.810 -14.718  0.00  0.00    -0.446 OA
BRANCH  21  22
ATOM     22  C   UNL     1      38.518 -25.608 -14.719  0.00  0.00    +0.209 C 
ATOM     23  C   UNL     1      39.301 -25.330 -13.455  0.00  0.00    +0.051 C 
ENDBRANCH  21  22
ENDBRANCH  20  21
ENDBRANCH   3  20
BRANCH   4  25
ATOM     24  O   UNL     1      31.514 -22.443 -16.833  0.00  0.00    -0.245 OA
ATOM     25  C   UNL     1      31.651 -23.456 -16.173  0.00  0.00    +0.342 C 
BRANCH  25  26
ATOM     26  O   UNL     1      30.872 -24.563 -16.164  0.00  0.00    -0.441 OA
ATOM     27  C   UNL     1      29.472 -24.320 -15.990  0.00  0.00    +0.256 C 
ENDBRANCH  25  26
ENDBRANCH   4  25
TORSDOF 7
ENDMDL
MODEL 5
REMARK VINA RESULT:      -8.0     13.047     17.363
REMARK  Name = 4507
REMARK  7 active torsions:
REMARK  status: ('A' for Active; 'I' for Inactive)
REMARK    1  A    between atoms: C_2  and  C_10
REMARK    2  A    between atoms: C_3  and  C_20
REMARK    3  A    between atoms: C_4  and  C_25
REMARK    4  A    between atoms: C_13  and  N_18
REMARK    5  A    between atoms: C_20  and  O_21
REMARK    6  A    between atoms: O_21  and  C_22
REMARK    7  A    between atoms: C_25  and  O_26
REMARK                            x       y       z     vdW  Elec       q    Type
REMARK                         _______ _______ _______ _____ _____    ______ ____
ROOT
ATOM      1  N   UNL     1      32.151  -8.044 -20.325  0.00  0.00    -0.334 N 
ATOM      2  C   UNL     1      31.760  -9.294 -22.836  0.00  0.00    +0.011 C 
ATOM      3  C   UNL     1      31.728 -10.052 -21.504  0.00  0.00    +0.071 C 
ATOM      4  C   UNL     1      31.861  -7.777 -22.659  0.00  0.00    +0.085 C 
ATOM      5  C   UNL     1      31.934  -9.412 -20.330  0.00  0.00    +0.098 C 
ATOM      6  C   UNL     1      32.075  -7.227 -21.441  0.00  0.00    +0.028 C 
ATOM      7  C   UNL     1      31.962 -10.065 -18.974  0.00  0.00    +0.026 C 
ATOM      8  C   UNL     1      32.240  -5.756 -21.165  0.00  0.00    +0.047 C 
ATOM      9  H   UNL     1      32.375  -7.620 -19.465  0.00  0.00    +0.147 HD
ENDROOT
BRANCH   2  10
ATOM     10  C   UNL     1      32.902  -9.788 -23.678  0.00  0.00    +0.002 C 
ATOM     11  C   UNL     1      32.750 -10.944 -24.434  0.00  0.00    +0.024 C 
ATOM     12  C   UNL     1      34.100  -9.082 -23.691  0.00  0.00    +0.000 C 
ATOM     13  C   UNL     1      33.812 -11.401 -25.215  0.00  0.00    +0.143 C 
ATOM     14  C   UNL     1      35.161  -9.540 -24.472  0.00  0.00    +0.002 C 
ATOM     15  C   UNL     1      35.017 -10.699 -25.234  0.00  0.00    +0.024 C 
BRANCH  13  18
ATOM     16  O   UNL     1      33.296 -13.635 -25.421  0.00  0.00    -0.126 OA
ATOM     17  O   UNL     1      33.912 -12.530 -27.219  0.00  0.00    -0.126 OA
ATOM     18  N   UNL     1      33.665 -12.582 -25.991  0.00  0.00    +0.058 N 
ENDBRANCH  13  18
ENDBRANCH   2  10
BRANCH   3  20
ATOM     19  O   UNL     1      30.273 -11.906 -21.755  0.00  0.00    -0.245 OA
ATOM     20  C   UNL     1      31.400 -11.485 -21.568  0.00  0.00    +0.339 C 
BRANCH  20  21
ATOM     21  O   UNL     1      32.540 -12.194 -21.389  0.00  0.00    -0.446 OA
BRANCH  21  22
ATOM     22  C   UNL     1      32.484 -13.555 -21.827  0.00  0.00    +0.209 C 
ATOM     23  C   UNL     1      32.807 -14.463 -20.661  0.00  0.00    +0.051 C 
ENDBRANCH  21  22
ENDBRANCH  20  21
ENDBRANCH   3  20
BRANCH   4  25
ATOM     24  O   UNL     1      30.635  -6.963 -24.516  0.00  0.00    -0.245 OA
ATOM     25  C   UNL     1      31.663  -6.956 -23.865  0.00  0.00    +0.342 C 
BRANCH  25  26
ATOM     26  O   UNL     1      32.789  -6.237 -24.082  0.00  0.00    -0.441 OA
ATOM     27  C   UNL     1      32.809  -5.495 -25.306  0.00  0.00    +0.256 C 
ENDBRANCH  25  26
ENDBRANCH   4  25
TORSDOF 7
ENDMDL
MODEL 6
REMARK VINA RESULT:      -7.8      1.909      2.790
REMARK  Name = 4507
REMARK  7 active torsions:
REMARK  status: ('A' for Active; 'I' for Inactive)
REMARK    1  A    between atoms: C_2  and  C_10
REMARK    2  A    between atoms: C_3  and  C_20
REMARK    3  A    between atoms: C_4  and  C_25
REMARK    4  A    between atoms: C_13  and  N_18
REMARK    5  A    between atoms: C_20  and  O_21
REMARK    6  A    between atoms: O_21  and  C_22
REMARK    7  A    between atoms: C_25  and  O_26
REMARK                            x       y       z     vdW  Elec       q    Type
REMARK                         _______ _______ _______ _____ _____    ______ ____
ROOT
ATOM      1  N   UNL     1      32.667 -23.474 -17.670  0.00  0.00    -0.334 N 
ATOM      2  C   UNL     1      34.457 -22.899 -15.552  0.00  0.00    +0.011 C 
ATOM      3  C   UNL     1      34.820 -22.729 -17.031  0.00  0.00    +0.071 C 
ATOM      4  C   UNL     1      32.983 -23.253 -15.335  0.00  0.00    +0.085 C 
ATOM      5  C   UNL     1      33.935 -23.030 -18.008  0.00  0.00    +0.098 C 
ATOM      6  C   UNL     1      32.173 -23.547 -16.378  0.00  0.00    +0.028 C 
ATOM      7  C   UNL     1      34.202 -22.937 -19.487  0.00  0.00    +0.026 C 
ATOM      8  C   UNL     1      30.727 -23.954 -16.272  0.00  0.00    +0.047 C 
ATOM      9  H   UNL     1      32.072 -23.760 -18.402  0.00  0.00    +0.147 HD
ENDROOT
BRANCH   2  10
ATOM     10  C   UNL     1      35.331 -23.949 -14.927  0.00  0.00    +0.002 C 
ATOM     11  C   UNL     1      36.091 -23.634 -13.807  0.00  0.00    +0.024 C 
ATOM     12  C   UNL     1      35.372 -25.225 -15.478  0.00  0.00    +0.000 C 
ATOM     13  C   UNL     1      36.903 -24.610 -13.228  0.00  0.00    +0.143 C 
ATOM     14  C   UNL     1      36.185 -26.200 -14.899  0.00  0.00    +0.002 C 
ATOM     15  C   UNL     1      36.949 -25.892 -13.774  0.00  0.00    +0.024 C 
BRANCH  13  18
ATOM     16  O   UNL     1      38.863 -23.911 -12.245  0.00  0.00    -0.126 OA
ATOM     17  O   UNL     1      37.162 -24.419 -10.948  0.00  0.00    -0.126 OA
ATOM     18  N   UNL     1      37.682 -24.297 -12.083  0.00  0.00    +0.058 N 
ENDBRANCH  13  18
ENDBRANCH   2  10
BRANCH   3  20
ATOM     19  O   UNL     1      37.184 -22.629 -16.885  0.00  0.00    -0.245 OA
ATOM     20  C   UNL     1      36.147 -22.164 -17.323  0.00  0.00    +0.339 C 
BRANCH  20  21
ATOM     21  O   UNL     1      35.986 -21.089 -18.131  0.00  0.00    -0.446 OA
BRANCH  21  22
ATOM     22  C   UNL     1      36.924 -20.992 -19.208  0.00  0.00    +0.209 C 
ATOM     23  C   UNL     1      36.333 -20.130 -20.302  0.00  0.00    +0.051 C 
ENDBRANCH  21  22
ENDBRANCH  20  21
ENDBRANCH   3  20
BRANCH   4  25
ATOM     24  O   UNL     1      32.005 -22.209 -13.446  0.00  0.00    -0.245 OA
ATOM     25  C   UNL     1      32.489 -23.206 -13.949  0.00  0.00    +0.342 C 
BRANCH  25  26
ATOM     26  O   UNL     1      32.672 -24.425 -13.389  0.00  0.00    -0.441 OA
ATOM     27  C   UNL     1      31.490 -25.224 -13.274  0.00  0.00    +0.256 C 
ENDBRANCH  25  26
ENDBRANCH   4  25
TORSDOF 7
ENDMDL
MODEL 7
REMARK VINA RESULT:      -7.5     12.108     16.102
REMARK  Name = 4507
REMARK  7 active torsions:
REMARK  status: ('A' for Active; 'I' for Inactive)
REMARK    1  A    between atoms: C_2  and  C_10
REMARK    2  A    between atoms: C_3  and  C_20
REMARK    3  A    between atoms: C_4  and  C_25
REMARK    4  A    between atoms: C_13  and  N_18
REMARK    5  A    between atoms: C_20  and  O_21
REMARK    6  A    between atoms: O_21  and  C_22
REMARK    7  A    between atoms: C_25  and  O_26
REMARK                            x       y       z     vdW  Elec       q    Type
REMARK                         _______ _______ _______ _____ _____    ______ ____
ROOT
ATOM      1  N   UNL     1      35.206  -9.672 -24.985  0.00  0.00    -0.334 N 
ATOM      2  C   UNL     1      32.842 -11.044 -24.240  0.00  0.00    +0.011 C 
ATOM      3  C   UNL     1      33.275  -9.713 -23.617  0.00  0.00    +0.071 C 
ATOM      4  C   UNL     1      33.728 -11.470 -25.415  0.00  0.00    +0.085 C 
ATOM      5  C   UNL     1      34.421  -9.102 -23.996  0.00  0.00    +0.098 C 
ATOM      6  C   UNL     1      34.863 -10.799 -25.715  0.00  0.00    +0.028 C 
ATOM      7  C   UNL     1      34.957  -7.817 -23.423  0.00  0.00    +0.026 C 
ATOM      8  C   UNL     1      35.827 -11.163 -26.812  0.00  0.00    +0.047 C 
ATOM      9  H   UNL     1      36.072  -9.247 -25.184  0.00  0.00    +0.147 HD
ENDROOT
BRANCH   2  10
ATOM     10  C   UNL     1      32.830 -12.120 -23.192  0.00  0.00    +0.002 C 
ATOM     11  C   UNL     1      33.769 -13.143 -23.247  0.00  0.00    +0.024 C 
ATOM     12  C   UNL     1      31.879 -12.081 -22.178  0.00  0.00    +0.000 C 
ATOM     13  C   UNL     1      33.757 -14.143 -22.273  0.00  0.00    +0.143 C 
ATOM     14  C   UNL     1      31.868 -13.080 -21.206  0.00  0.00    +0.002 C 
ATOM     15  C   UNL     1      32.806 -14.111 -21.253  0.00  0.00    +0.024 C 
BRANCH  13  18
ATOM     16  O   UNL     1      34.953 -15.836 -21.272  0.00  0.00    -0.126 OA
ATOM     17  O   UNL     1      35.284 -15.437 -23.409  0.00  0.00    -0.126 OA
ATOM     18  N   UNL     1      34.713 -15.192 -22.320  0.00  0.00    +0.058 N 
ENDBRANCH  13  18
ENDBRANCH   2  10
BRANCH   3  20
ATOM     19  O   UNL     1      32.594  -9.033 -21.451  0.00  0.00    -0.245 OA
ATOM     20  C   UNL     1      32.353  -9.110 -22.641  0.00  0.00    +0.339 C 
BRANCH  20  21
ATOM     21  O   UNL     1      31.249  -8.685 -23.302  0.00  0.00    -0.446 OA
BRANCH  21  22
ATOM     22  C   UNL     1      30.966  -7.288 -23.176  0.00  0.00    +0.209 C 
ATOM     23  C   UNL     1      31.539  -6.559 -24.372  0.00  0.00    +0.051 C 
ENDBRANCH  21  22
ENDBRANCH  20  21
ENDBRANCH   3  20
BRANCH   4  25
ATOM     24  O   UNL     1      32.491 -12.488 -27.161  0.00  0.00    -0.245 OA
ATOM     25  C   UNL     1      33.254 -12.607 -26.221  0.00  0.00    +0.342 C 
BRANCH  25  26
ATOM     26  O   UNL     1      33.810 -13.740 -25.730  0.00  0.00    -0.441 OA
ATOM     27  C   UNL     1      33.250 -14.958 -26.233  0.00  0.00    +0.256 C 
ENDBRANCH  25  26
ENDBRANCH   4  25
TORSDOF 7
ENDMDL
MODEL 8
REMARK VINA RESULT:      -7.5      2.588      5.372
REMARK  Name = 4507
REMARK  7 active torsions:
REMARK  status: ('A' for Active; 'I' for Inactive)
REMARK    1  A    between atoms: C_2  and  C_10
REMARK    2  A    between atoms: C_3  and  C_20
REMARK    3  A    between atoms: C_4  and  C_25
REMARK    4  A    between atoms: C_13  and  N_18
REMARK    5  A    between atoms: C_20  and  O_21
REMARK    6  A    between atoms: O_21  and  C_22
REMARK    7  A    between atoms: C_25  and  O_26
REMARK                            x       y       z     vdW  Elec       q    Type
REMARK                         _______ _______ _______ _____ _____    ______ ____
ROOT
ATOM      1  N   UNL     1      36.823 -22.062 -16.579  0.00  0.00    -0.334 N 
ATOM      2  C   UNL     1      34.577 -23.766 -16.857  0.00  0.00    +0.011 C 
ATOM      3  C   UNL     1      34.981 -22.727 -17.909  0.00  0.00    +0.071 C 
ATOM      4  C   UNL     1      35.599 -23.899 -15.725  0.00  0.00    +0.085 C 
ATOM      5  C   UNL     1      36.056 -21.926 -17.725  0.00  0.00    +0.098 C 
ATOM      6  C   UNL     1      36.642 -23.043 -15.618  0.00  0.00    +0.028 C 
ATOM      7  C   UNL     1      36.516 -20.851 -18.673  0.00  0.00    +0.026 C 
ATOM      8  C   UNL     1      37.671 -23.055 -14.520  0.00  0.00    +0.047 C 
ATOM      9  H   UNL     1      37.550 -21.413 -16.437  0.00  0.00    +0.147 HD
ENDROOT
BRANCH   2  10
ATOM     10  C   UNL     1      33.228 -23.422 -16.291  0.00  0.00    +0.002 C 
ATOM     11  C   UNL     1      33.024 -23.481 -14.918  0.00  0.00    +0.024 C 
ATOM     12  C   UNL     1      32.199 -23.048 -17.147  0.00  0.00    +0.000 C 
ATOM     13  C   UNL     1      31.771 -23.162 -14.392  0.00  0.00    +0.143 C 
ATOM     14  C   UNL     1      30.947 -22.730 -16.621  0.00  0.00    +0.002 C 
ATOM     15  C   UNL     1      30.733 -22.786 -15.245  0.00  0.00    +0.024 C 
BRANCH  13  18
ATOM     16  O   UNL     1      30.608 -23.918 -12.556  0.00  0.00    -0.126 OA
ATOM     17  O   UNL     1      32.314 -22.568 -12.235  0.00  0.00    -0.126 OA
ATOM     18  N   UNL     1      31.554 -23.219 -12.990  0.00  0.00    +0.058 N 
ENDBRANCH  13  18
ENDBRANCH   2  10
BRANCH   3  20
ATOM     19  O   UNL     1      34.127 -23.625 -19.929  0.00  0.00    -0.245 OA
ATOM     20  C   UNL     1      34.184 -22.696 -19.146  0.00  0.00    +0.339 C 
BRANCH  20  21
ATOM     21  O   UNL     1      33.564 -21.493 -19.225  0.00  0.00    -0.446 OA
BRANCH  21  22
ATOM     22  C   UNL     1      33.683 -20.831 -20.487  0.00  0.00    +0.209 C 
ATOM     23  C   UNL     1      32.633 -19.745 -20.576  0.00  0.00    +0.051 C 
ENDBRANCH  21  22
ENDBRANCH  20  21
ENDBRANCH   3  20
BRANCH   4  25
ATOM     24  O   UNL     1      35.121 -24.890 -13.626  0.00  0.00    -0.245 OA
ATOM     25  C   UNL     1      35.415 -25.028 -14.799  0.00  0.00    +0.342 C 
BRANCH  25  26
ATOM     26  O   UNL     1      35.626 -26.179 -15.480  0.00  0.00    -0.441 OA
ATOM     27  C   UNL     1      36.904 -26.787 -15.264  0.00  0.00    +0.256 C 
ENDBRANCH  25  26
ENDBRANCH   4  25
TORSDOF 7
ENDMDL
MODEL 9
REMARK VINA RESULT:      -7.4     15.115     18.632
REMARK  Name = 4507
REMARK  7 active torsions:
REMARK  status: ('A' for Active; 'I' for Inactive)
REMARK    1  A    between atoms: C_2  and  C_10
REMARK    2  A    between atoms: C_3  and  C_20
REMARK    3  A    between atoms: C_4  and  C_25
REMARK    4  A    between atoms: C_13  and  N_18
REMARK    5  A    between atoms: C_20  and  O_21
REMARK    6  A    between atoms: O_21  and  C_22
REMARK    7  A    between atoms: C_25  and  O_26
REMARK                            x       y       z     vdW  Elec       q    Type
REMARK                         _______ _______ _______ _____ _____    ______ ____
ROOT
ATOM      1  N   UNL     1      31.620 -11.268 -21.221  0.00  0.00    -0.334 N 
ATOM      2  C   UNL     1      32.971  -9.090 -22.429  0.00  0.00    +0.011 C 
ATOM      3  C   UNL     1      32.326  -9.016 -21.041  0.00  0.00    +0.071 C 
ATOM      4  C   UNL     1      32.952 -10.502 -23.022  0.00  0.00    +0.085 C 
ATOM      5  C   UNL     1      31.679 -10.080 -20.511  0.00  0.00    +0.098 C 
ATOM      6  C   UNL     1      32.269 -11.504 -22.422  0.00  0.00    +0.028 C 
ATOM      7  C   UNL     1      30.980 -10.102 -19.178  0.00  0.00    +0.026 C 
ATOM      8  C   UNL     1      32.144 -12.910 -22.946  0.00  0.00    +0.047 C 
ATOM      9  H   UNL     1      31.076 -11.998 -20.846  0.00  0.00    +0.147 HD
ENDROOT
BRANCH   2  10
ATOM     10  C   UNL     1      32.285  -8.134 -23.364  0.00  0.00    +0.002 C 
ATOM     11  C   UNL     1      33.026  -7.147 -24.002  0.00  0.00    +0.024 C 
ATOM     12  C   UNL     1      30.916  -8.247 -23.578  0.00  0.00    +0.000 C 
ATOM     13  C   UNL     1      32.388  -6.260 -24.870  0.00  0.00    +0.143 C 
ATOM     14  C   UNL     1      30.280  -7.359 -24.445  0.00  0.00    +0.002 C 
ATOM     15  C   UNL     1      31.015  -6.366 -25.091  0.00  0.00    +0.024 C 
BRANCH  13  18
ATOM     16  O   UNL     1      34.236  -5.555 -26.049  0.00  0.00    -0.126 OA
ATOM     17  O   UNL     1      32.676  -4.083 -25.563  0.00  0.00    -0.126 OA
ATOM     18  N   UNL     1      33.138  -5.248 -25.527  0.00  0.00    +0.058 N 
ENDBRANCH  13  18
ENDBRANCH   2  10
BRANCH   3  20
ATOM     19  O   UNL     1      33.490  -7.511 -19.628  0.00  0.00    -0.245 OA
ATOM     20  C   UNL     1      32.504  -7.758 -20.297  0.00  0.00    +0.339 C 
BRANCH  20  21
ATOM     21  O   UNL     1      31.412  -6.982 -20.501  0.00  0.00    -0.446 OA
BRANCH  21  22
ATOM     22  C   UNL     1      31.683  -5.680 -21.029  0.00  0.00    +0.209 C 
ATOM     23  C   UNL     1      30.418  -5.125 -21.647  0.00  0.00    +0.051 C 
ENDBRANCH  21  22
ENDBRANCH  20  21
ENDBRANCH   3  20
BRANCH   4  25
ATOM     24  O   UNL     1      33.357 -11.368 -25.190  0.00  0.00    -0.245 OA
ATOM     25  C   UNL     1      33.750 -10.718 -24.240  0.00  0.00    +0.342 C 
BRANCH  25  26
ATOM     26  O   UNL     1      34.936 -10.081 -24.091  0.00  0.00    -0.441 OA
ATOM     27  C   UNL     1      35.679  -9.893 -25.300  0.00  0.00    +0.256 C 
ENDBRANCH  25  26
ENDBRANCH   4  25
TORSDOF 7
ENDMDL
