MODEL 1
REMARK VINA RESULT:      -8.8      0.000      0.000
REMARK  Name = 5284604
REMARK  2 active torsions:
REMARK  status: ('A' for Active; 'I' for Inactive)
REMARK    1  A    between atoms: C_5  and  O_22
REMARK    2  A    between atoms: C_19  and  O_24
REMARK                            x       y       z     vdW  Elec       q    Type
REMARK                         _______ _______ _______ _____ _____    ______ ____
ROOT
ATOM      1  O   UNL     1      31.491 -10.911 -22.519  0.00  0.00    -0.469 OA
ATOM      2  O   UNL     1      32.029 -10.884 -19.867  0.00  0.00    -0.292 OA
ATOM      3  N   UNL     1      31.896  -5.941 -23.986  0.00  0.00    +0.389 N 
ATOM      4  C   UNL     1      31.665  -8.502 -22.637  0.00  0.00    +0.084 C 
ATOM      5  C   UNL     1      32.174  -7.246 -21.916  0.00  0.00    +0.079 C 
ATOM      6  C   UNL     1      32.912  -6.385 -22.997  0.00  0.00    -0.028 C 
ATOM      7  C   UNL     1      31.178  -9.685 -21.785  0.00  0.00    +0.228 C 
ATOM      8  C   UNL     1      30.645  -8.097 -23.728  0.00  0.00    -0.013 C 
ATOM      9  C   UNL     1      32.807  -9.208 -23.284  0.00  0.00    +0.016 C 
ATOM     10  C   UNL     1      33.034  -7.597 -20.687  0.00  0.00    +0.033 C 
ATOM     11  C   UNL     1      34.141  -7.137 -23.620  0.00  0.00    +0.008 C 
ATOM     12  C   UNL     1      31.210  -7.032 -24.686  0.00  0.00    -0.077 C 
ATOM     13  C   UNL     1      33.941  -8.617 -23.811  0.00  0.00    -0.025 C 
ATOM     14  C   UNL     1      32.270  -8.512 -19.732  0.00  0.00    +0.071 C 
ATOM     15  C   UNL     1      31.868  -9.796 -20.421  0.00  0.00    +0.191 C 
ATOM     16  C   UNL     1      32.612 -10.573 -23.241  0.00  0.00    +0.168 C 
ATOM     17  C   UNL     1      32.390  -4.934 -24.919  0.00  0.00    -0.100 C 
ATOM     18  C   UNL     1      34.873  -9.469 -24.402  0.00  0.00    -0.001 C 
ATOM     19  C   UNL     1      33.512 -11.430 -23.831  0.00  0.00    +0.167 C 
ATOM     20  C   UNL     1      34.649 -10.863 -24.427  0.00  0.00    +0.039 C 
ATOM     21  H   UNL     1      31.187  -5.489 -23.409  0.00  0.00    -0.080 HD
ENDROOT
BRANCH   5  22
ATOM     22  O   UNL     1      31.052  -6.499 -21.417  0.00  0.00    -0.388 OA
ATOM     23  H   UNL     1      30.469  -7.089 -20.914  0.00  0.00    +0.210 HD
ENDBRANCH   5  22
BRANCH  19  24
ATOM     24  O   UNL     1      33.333 -12.773 -23.815  0.00  0.00    -0.503 OA
ATOM     25  H   UNL     1      33.939 -13.331 -24.260  0.00  0.00    +0.292 HD
ENDBRANCH  19  24
TORSDOF 2
ENDMDL
MODEL 2
REMARK VINA RESULT:      -6.1     16.565     18.777
REMARK  Name = 5284604
REMARK  2 active torsions:
REMARK  status: ('A' for Active; 'I' for Inactive)
REMARK    1  A    between atoms: C_5  and  O_22
REMARK    2  A    between atoms: C_19  and  O_24
REMARK                            x       y       z     vdW  Elec       q    Type
REMARK                         _______ _______ _______ _____ _____    ______ ____
ROOT
ATOM      1  O   UNL     1      38.637 -23.825 -14.189  0.00  0.00    -0.469 OA
ATOM      2  O   UNL     1      39.269 -26.442 -14.460  0.00  0.00    -0.292 OA
ATOM      3  N   UNL     1      33.583 -23.569 -15.378  0.00  0.00    +0.389 N 
ATOM      4  C   UNL     1      36.378 -24.232 -14.948  0.00  0.00    +0.084 C 
ATOM      5  C   UNL     1      35.315 -25.312 -15.193  0.00  0.00    +0.079 C 
ATOM      6  C   UNL     1      33.980 -24.762 -14.586  0.00  0.00    -0.028 C 
ATOM      7  C   UNL     1      37.856 -24.606 -15.147  0.00  0.00    +0.228 C 
ATOM      8  C   UNL     1      35.987 -22.938 -15.701  0.00  0.00    -0.013 C 
ATOM      9  C   UNL     1      36.465 -23.934 -13.491  0.00  0.00    +0.016 C 
ATOM     10  C   UNL     1      35.748 -26.682 -14.641  0.00  0.00    +0.033 C 
ATOM     11  C   UNL     1      34.088 -24.509 -13.040  0.00  0.00    +0.008 C 
ATOM     12  C   UNL     1      34.560 -22.474 -15.359  0.00  0.00    -0.077 C 
ATOM     13  C   UNL     1      35.424 -23.984 -12.583  0.00  0.00    -0.025 C 
ATOM     14  C   UNL     1      37.101 -27.097 -15.216  0.00  0.00    +0.071 C 
ATOM     15  C   UNL     1      38.167 -26.082 -14.875  0.00  0.00    +0.191 C 
ATOM     16  C   UNL     1      37.767 -23.645 -13.139  0.00  0.00    +0.168 C 
ATOM     17  C   UNL     1      32.237 -23.091 -15.082  0.00  0.00    -0.100 C 
ATOM     18  C   UNL     1      35.723 -23.631 -11.267  0.00  0.00    -0.001 C 
ATOM     19  C   UNL     1      38.082 -23.281 -11.850  0.00  0.00    +0.167 C 
ATOM     20  C   UNL     1      37.040 -23.265 -10.910  0.00  0.00    +0.039 C 
ATOM     21  H   UNL     1      33.572 -23.916 -16.337  0.00  0.00    -0.080 HD
ENDROOT
BRANCH   5  22
ATOM     22  O   UNL     1      35.139 -25.491 -16.609  0.00  0.00    -0.388 OA
ATOM     23  H   UNL     1      35.172 -24.628 -17.051  0.00  0.00    +0.210 HD
ENDBRANCH   5  22
BRANCH  19  24
ATOM     24  O   UNL     1      39.351 -22.978 -11.485  0.00  0.00    -0.503 OA
ATOM     25  H   UNL     1      40.064 -23.506 -11.787  0.00  0.00    +0.292 HD
ENDBRANCH  19  24
TORSDOF 2
ENDMDL
MODEL 3
REMARK VINA RESULT:      -5.9      2.446      5.382
REMARK  Name = 5284604
REMARK  2 active torsions:
REMARK  status: ('A' for Active; 'I' for Inactive)
REMARK    1  A    between atoms: C_5  and  O_22
REMARK    2  A    between atoms: C_19  and  O_24
REMARK                            x       y       z     vdW  Elec       q    Type
REMARK                         _______ _______ _______ _____ _____    ______ ____
ROOT
ATOM      1  O   UNL     1      31.593  -5.922 -25.145  0.00  0.00    -0.469 OA
ATOM      2  O   UNL     1      34.172  -5.356 -25.738  0.00  0.00    -0.292 OA
ATOM      3  N   UNL     1      31.863  -9.820 -21.718  0.00  0.00    +0.389 N 
ATOM      4  C   UNL     1      32.262  -7.764 -23.729  0.00  0.00    +0.084 C 
ATOM      5  C   UNL     1      33.437  -8.398 -22.971  0.00  0.00    +0.079 C 
ATOM      6  C   UNL     1      32.896  -8.765 -21.548  0.00  0.00    -0.028 C 
ATOM      7  C   UNL     1      32.560  -7.014 -25.038  0.00  0.00    +0.228 C 
ATOM      8  C   UNL     1      31.124  -8.800 -23.885  0.00  0.00    -0.013 C 
ATOM      9  C   UNL     1      31.746  -6.592 -22.967  0.00  0.00    +0.016 C 
ATOM     10  C   UNL     1      34.677  -7.486 -22.963  0.00  0.00    +0.033 C 
ATOM     11  C   UNL     1      32.409  -7.503 -20.750  0.00  0.00    +0.008 C 
ATOM     12  C   UNL     1      30.714  -9.420 -22.537  0.00  0.00    -0.077 C 
ATOM     13  C   UNL     1      31.732  -6.453 -21.592  0.00  0.00    -0.025 C 
ATOM     14  C   UNL     1      35.080  -7.103 -24.386  0.00  0.00    +0.071 C 
ATOM     15  C   UNL     1      33.954  -6.380 -25.089  0.00  0.00    +0.191 C 
ATOM     16  C   UNL     1      31.320  -5.607 -23.834  0.00  0.00    +0.168 C 
ATOM     17  C   UNL     1      31.440 -10.434 -20.464  0.00  0.00    -0.100 C 
ATOM     18  C   UNL     1      31.168  -5.282 -21.087  0.00  0.00    -0.001 C 
ATOM     19  C   UNL     1      30.747  -4.451 -23.357  0.00  0.00    +0.167 C 
ATOM     20  C   UNL     1      30.664  -4.298 -21.965  0.00  0.00    +0.039 C 
ATOM     21  H   UNL     1      32.349 -10.541 -22.253  0.00  0.00    -0.080 HD
ENDROOT
BRANCH   5  22
ATOM     22  O   UNL     1      33.835  -9.607 -23.640  0.00  0.00    -0.388 OA
ATOM     23  H   UNL     1      34.510  -9.400 -24.305  0.00  0.00    +0.210 HD
ENDBRANCH   5  22
BRANCH  19  24
ATOM     24  O   UNL     1      30.307  -3.477 -24.191  0.00  0.00    -0.503 OA
ATOM     25  H   UNL     1      30.697  -2.626 -24.162  0.00  0.00    +0.292 HD
ENDBRANCH  19  24
TORSDOF 2
ENDMDL
