MODEL 1
REMARK VINA RESULT:      -7.4      0.000      0.000
REMARK  Name = 5288606
REMARK  0 active torsions:
REMARK  status: ('A' for Active; 'I' for Inactive)
REMARK                            x       y       z     vdW  Elec       q    Type
REMARK                         _______ _______ _______ _____ _____    ______ ____
ROOT
ATOM      1  I   UNL     1      34.852 -16.550 -22.851  0.00  0.00    -0.043 I 
ATOM      2  N   UNL     1      33.157 -22.233 -19.557  0.00  0.00    +0.387 N 
ATOM      3  C   UNL     1      35.568 -21.830 -19.335  0.00  0.00    +0.003 C 
ATOM      4  C   UNL     1      35.392 -20.570 -20.143  0.00  0.00    -0.030 C 
ATOM      5  C   UNL     1      34.282 -22.257 -18.624  0.00  0.00    -0.077 C 
ATOM      6  C   UNL     1      34.105 -20.130 -20.496  0.00  0.00    -0.047 C 
ATOM      7  C   UNL     1      32.883 -20.860 -19.996  0.00  0.00    -0.055 C 
ATOM      8  C   UNL     1      36.515 -19.865 -20.596  0.00  0.00    -0.004 C 
ATOM      9  C   UNL     1      33.960 -18.968 -21.266  0.00  0.00    -0.001 C 
ATOM     10  C   UNL     1      36.359 -18.716 -21.371  0.00  0.00    +0.005 C 
ATOM     11  C   UNL     1      35.082 -18.267 -21.704  0.00  0.00    +0.030 C 
ATOM     12  H   UNL     1      32.330 -22.609 -19.093  0.00  0.00    -0.084 HD
ATOM     13  H   UNL     1      33.392 -22.800 -20.371  0.00  0.00    -0.084 HD
ENDROOT
TORSDOF 0
ENDMDL
MODEL 2
REMARK VINA RESULT:      -6.8      1.340      2.408
REMARK  Name = 5288606
REMARK  0 active torsions:
REMARK  status: ('A' for Active; 'I' for Inactive)
REMARK                            x       y       z     vdW  Elec       q    Type
REMARK                         _______ _______ _______ _____ _____    ______ ____
ROOT
ATOM      1  I   UNL     1      35.416 -17.896 -22.932  0.00  0.00    -0.043 I 
ATOM      2  N   UNL     1      35.490 -22.295 -17.769  0.00  0.00    +0.387 N 
ATOM      3  C   UNL     1      33.206 -22.069 -18.636  0.00  0.00    +0.003 C 
ATOM      4  C   UNL     1      33.734 -21.104 -19.667  0.00  0.00    -0.030 C 
ATOM      5  C   UNL     1      34.280 -23.032 -18.127  0.00  0.00    -0.077 C 
ATOM      6  C   UNL     1      35.117 -20.889 -19.791  0.00  0.00    -0.047 C 
ATOM      7  C   UNL     1      36.093 -21.686 -18.960  0.00  0.00    -0.055 C 
ATOM      8  C   UNL     1      32.844 -20.372 -20.464  0.00  0.00    -0.004 C 
ATOM      9  C   UNL     1      35.592 -19.973 -20.739  0.00  0.00    -0.001 C 
ATOM     10  C   UNL     1      33.327 -19.455 -21.397  0.00  0.00    +0.005 C 
ATOM     11  C   UNL     1      34.699 -19.257 -21.535  0.00  0.00    +0.030 C 
ATOM     12  H   UNL     1      36.160 -22.937 -17.344  0.00  0.00    -0.084 HD
ATOM     13  H   UNL     1      35.244 -21.557 -17.109  0.00  0.00    -0.084 HD
ENDROOT
TORSDOF 0
ENDMDL
MODEL 3
REMARK VINA RESULT:      -6.7      4.751      6.685
REMARK  Name = 5288606
REMARK  0 active torsions:
REMARK  status: ('A' for Active; 'I' for Inactive)
REMARK                            x       y       z     vdW  Elec       q    Type
REMARK                         _______ _______ _______ _____ _____    ______ ____
ROOT
ATOM      1  I   UNL     1      36.004 -18.966 -21.256  0.00  0.00    -0.043 I 
ATOM      2  N   UNL     1      33.772 -13.412 -24.449  0.00  0.00    +0.387 N 
ATOM      3  C   UNL     1      33.525 -15.367 -25.911  0.00  0.00    +0.003 C 
ATOM      4  C   UNL     1      34.086 -16.219 -24.801  0.00  0.00    -0.030 C 
ATOM      5  C   UNL     1      32.880 -14.079 -25.395  0.00  0.00    -0.077 C 
ATOM      6  C   UNL     1      34.329 -15.661 -23.534  0.00  0.00    -0.047 C 
ATOM      7  C   UNL     1      33.948 -14.230 -23.243  0.00  0.00    -0.055 C 
ATOM      8  C   UNL     1      34.424 -17.557 -25.045  0.00  0.00    -0.004 C 
ATOM      9  C   UNL     1      34.871 -16.460 -22.520  0.00  0.00    -0.001 C 
ATOM     10  C   UNL     1      34.973 -18.341 -24.031  0.00  0.00    +0.005 C 
ATOM     11  C   UNL     1      35.195 -17.793 -22.769  0.00  0.00    +0.030 C 
ATOM     12  H   UNL     1      33.370 -12.511 -24.188  0.00  0.00    -0.084 HD
ATOM     13  H   UNL     1      34.681 -13.276 -24.892  0.00  0.00    -0.084 HD
ENDROOT
TORSDOF 0
ENDMDL
MODEL 4
REMARK VINA RESULT:      -6.6      3.108      4.680
REMARK  Name = 5288606
REMARK  0 active torsions:
REMARK  status: ('A' for Active; 'I' for Inactive)
REMARK                            x       y       z     vdW  Elec       q    Type
REMARK                         _______ _______ _______ _____ _____    ______ ____
ROOT
ATOM      1  I   UNL     1      33.831 -22.962 -18.158  0.00  0.00    -0.043 I 
ATOM      2  N   UNL     1      36.691 -18.387 -22.271  0.00  0.00    +0.387 N 
ATOM      3  C   UNL     1      34.262 -18.041 -22.203  0.00  0.00    +0.003 C 
ATOM      4  C   UNL     1      34.166 -19.187 -21.228  0.00  0.00    -0.030 C 
ATOM      5  C   UNL     1      35.639 -17.375 -22.193  0.00  0.00    -0.077 C 
ATOM      6  C   UNL     1      35.332 -19.781 -20.716  0.00  0.00    -0.047 C 
ATOM      7  C   UNL     1      36.690 -19.223 -21.064  0.00  0.00    -0.055 C 
ATOM      8  C   UNL     1      32.912 -19.703 -20.874  0.00  0.00    -0.004 C 
ATOM      9  C   UNL     1      35.226 -20.858 -19.827  0.00  0.00    -0.001 C 
ATOM     10  C   UNL     1      32.818 -20.783 -19.996  0.00  0.00    +0.005 C 
ATOM     11  C   UNL     1      33.974 -21.359 -19.472  0.00  0.00    +0.030 C 
ATOM     12  H   UNL     1      37.596 -17.924 -22.358  0.00  0.00    -0.084 HD
ATOM     13  H   UNL     1      36.519 -18.980 -23.084  0.00  0.00    -0.084 HD
ENDROOT
TORSDOF 0
ENDMDL
MODEL 5
REMARK VINA RESULT:      -6.6      3.054      4.201
REMARK  Name = 5288606
REMARK  0 active torsions:
REMARK  status: ('A' for Active; 'I' for Inactive)
REMARK                            x       y       z     vdW  Elec       q    Type
REMARK                         _______ _______ _______ _____ _____    ______ ____
ROOT
ATOM      1  I   UNL     1      33.480 -23.147 -17.820  0.00  0.00    -0.043 I 
ATOM      2  N   UNL     1      34.513 -17.929 -22.030  0.00  0.00    +0.387 N 
ATOM      3  C   UNL     1      36.663 -18.945 -21.422  0.00  0.00    +0.003 C 
ATOM      4  C   UNL     1      35.907 -19.953 -20.593  0.00  0.00    -0.030 C 
ATOM      5  C   UNL     1      35.812 -18.354 -22.548  0.00  0.00    -0.077 C 
ATOM      6  C   UNL     1      34.503 -19.990 -20.631  0.00  0.00    -0.047 C 
ATOM      7  C   UNL     1      33.739 -19.087 -21.569  0.00  0.00    -0.055 C 
ATOM      8  C   UNL     1      36.601 -20.816 -19.734  0.00  0.00    -0.004 C 
ATOM      9  C   UNL     1      33.815 -20.918 -19.839  0.00  0.00    -0.001 C 
ATOM     10  C   UNL     1      35.905 -21.728 -18.941  0.00  0.00    +0.005 C 
ATOM     11  C   UNL     1      34.514 -21.780 -18.995  0.00  0.00    +0.030 C 
ATOM     12  H   UNL     1      33.997 -17.453 -22.770  0.00  0.00    -0.084 HD
ATOM     13  H   UNL     1      34.663 -17.297 -21.243  0.00  0.00    -0.084 HD
ENDROOT
TORSDOF 0
ENDMDL
MODEL 6
REMARK VINA RESULT:      -6.6      3.378      4.701
REMARK  Name = 5288606
REMARK  0 active torsions:
REMARK  status: ('A' for Active; 'I' for Inactive)
REMARK                            x       y       z     vdW  Elec       q    Type
REMARK                         _______ _______ _______ _____ _____    ______ ____
ROOT
ATOM      1  I   UNL     1      33.000 -14.199 -26.151  0.00  0.00    -0.043 I 
ATOM      2  N   UNL     1      35.141 -17.618 -20.697  0.00  0.00    +0.387 N 
ATOM      3  C   UNL     1      35.450 -18.986 -22.710  0.00  0.00    +0.003 C 
ATOM      4  C   UNL     1      34.896 -17.845 -23.524  0.00  0.00    -0.030 C 
ATOM      5  C   UNL     1      36.059 -18.523 -21.386  0.00  0.00    -0.077 C 
ATOM      6  C   UNL     1      34.625 -16.607 -22.915  0.00  0.00    -0.047 C 
ATOM      7  C   UNL     1      34.970 -16.378 -21.464  0.00  0.00    -0.055 C 
ATOM      8  C   UNL     1      34.592 -18.031 -24.879  0.00  0.00    -0.004 C 
ATOM      9  C   UNL     1      34.090 -15.563 -23.679  0.00  0.00    -0.001 C 
ATOM     10  C   UNL     1      34.049 -16.988 -25.629  0.00  0.00    +0.005 C 
ATOM     11  C   UNL     1      33.800 -15.754 -25.030  0.00  0.00    +0.030 C 
ATOM     12  H   UNL     1      35.520 -17.394 -19.776  0.00  0.00    -0.084 HD
ATOM     13  H   UNL     1      34.235 -18.076 -20.603  0.00  0.00    -0.084 HD
ENDROOT
TORSDOF 0
ENDMDL
MODEL 7
REMARK VINA RESULT:      -6.5      3.801      5.630
REMARK  Name = 5288606
REMARK  0 active torsions:
REMARK  status: ('A' for Active; 'I' for Inactive)
REMARK                            x       y       z     vdW  Elec       q    Type
REMARK                         _______ _______ _______ _____ _____    ______ ____
ROOT
ATOM      1  I   UNL     1      35.375 -20.598 -20.354  0.00  0.00    -0.043 I 
ATOM      2  N   UNL     1      34.581 -14.244 -22.594  0.00  0.00    +0.387 N 
ATOM      3  C   UNL     1      34.349 -15.819 -24.461  0.00  0.00    +0.003 C 
ATOM      4  C   UNL     1      34.565 -16.947 -23.485  0.00  0.00    -0.030 C 
ATOM      5  C   UNL     1      33.802 -14.557 -23.790  0.00  0.00    -0.077 C 
ATOM      6  C   UNL     1      34.638 -16.686 -22.106  0.00  0.00    -0.047 C 
ATOM      7  C   UNL     1      34.410 -15.290 -21.579  0.00  0.00    -0.055 C 
ATOM      8  C   UNL     1      34.755 -18.254 -23.954  0.00  0.00    -0.004 C 
ATOM      9  C   UNL     1      34.860 -17.742 -21.214  0.00  0.00    -0.001 C 
ATOM     10  C   UNL     1      34.987 -19.297 -23.058  0.00  0.00    +0.005 C 
ATOM     11  C   UNL     1      35.038 -19.041 -21.689  0.00  0.00    +0.030 C 
ATOM     12  H   UNL     1      34.265 -13.352 -22.213  0.00  0.00    -0.084 HD
ATOM     13  H   UNL     1      35.568 -14.188 -22.848  0.00  0.00    -0.084 HD
ENDROOT
TORSDOF 0
ENDMDL
MODEL 8
REMARK VINA RESULT:      -6.4      4.802      6.824
REMARK  Name = 5288606
REMARK  0 active torsions:
REMARK  status: ('A' for Active; 'I' for Inactive)
REMARK                            x       y       z     vdW  Elec       q    Type
REMARK                         _______ _______ _______ _____ _____    ______ ____
ROOT
ATOM      1  I   UNL     1      35.630 -18.885 -21.348  0.00  0.00    -0.043 I 
ATOM      2  N   UNL     1      32.896 -14.214 -25.438  0.00  0.00    +0.387 N 
ATOM      3  C   UNL     1      33.440 -13.203 -23.268  0.00  0.00    +0.003 C 
ATOM      4  C   UNL     1      33.981 -14.539 -22.826  0.00  0.00    -0.030 C 
ATOM      5  C   UNL     1      33.464 -13.033 -24.789  0.00  0.00    -0.077 C 
ATOM      6  C   UNL     1      34.084 -15.600 -23.743  0.00  0.00    -0.047 C 
ATOM      7  C   UNL     1      33.741 -15.389 -25.197  0.00  0.00    -0.055 C 
ATOM      8  C   UNL     1      34.327 -14.747 -21.484  0.00  0.00    -0.004 C 
ATOM      9  C   UNL     1      34.568 -16.841 -23.311  0.00  0.00    -0.001 C 
ATOM     10  C   UNL     1      34.798 -15.990 -21.063  0.00  0.00    +0.005 C 
ATOM     11  C   UNL     1      34.920 -17.036 -21.976  0.00  0.00    +0.030 C 
ATOM     12  H   UNL     1      32.833 -14.045 -26.442  0.00  0.00    -0.084 HD
ATOM     13  H   UNL     1      31.968 -14.388 -25.051  0.00  0.00    -0.084 HD
ENDROOT
TORSDOF 0
ENDMDL
MODEL 9
REMARK VINA RESULT:      -6.4      4.553      5.970
REMARK  Name = 5288606
REMARK  0 active torsions:
REMARK  status: ('A' for Active; 'I' for Inactive)
REMARK                            x       y       z     vdW  Elec       q    Type
REMARK                         _______ _______ _______ _____ _____    ______ ____
ROOT
ATOM      1  I   UNL     1      31.378 -11.661 -21.731  0.00  0.00    -0.043 I 
ATOM      2  N   UNL     1      35.467 -16.621 -23.898  0.00  0.00    +0.387 N 
ATOM      3  C   UNL     1      34.829 -17.030 -21.564  0.00  0.00    +0.003 C 
ATOM      4  C   UNL     1      33.994 -15.776 -21.613  0.00  0.00    -0.030 C 
ATOM      5  C   UNL     1      35.046 -17.648 -22.946  0.00  0.00    -0.077 C 
ATOM      6  C   UNL     1      33.822 -15.088 -22.827  0.00  0.00    -0.047 C 
ATOM      7  C   UNL     1      34.394 -15.643 -24.108  0.00  0.00    -0.055 C 
ATOM      8  C   UNL     1      33.434 -15.258 -20.438  0.00  0.00    -0.004 C 
ATOM      9  C   UNL     1      33.060 -13.913 -22.853  0.00  0.00    -0.001 C 
ATOM     10  C   UNL     1      32.687 -14.081 -20.473  0.00  0.00    +0.005 C 
ATOM     11  C   UNL     1      32.499 -13.410 -21.680  0.00  0.00    +0.030 C 
ATOM     12  H   UNL     1      35.698 -17.064 -24.788  0.00  0.00    -0.084 HD
ATOM     13  H   UNL     1      36.285 -16.140 -23.523  0.00  0.00    -0.084 HD
ENDROOT
TORSDOF 0
ENDMDL
