MODEL 1
REMARK VINA RESULT:     -11.7      0.000      0.000
REMARK  Name = 153241
REMARK  8 active torsions:
REMARK  status: ('A' for Active; 'I' for Inactive)
REMARK    1  A    between atoms: N_2  and  C_9
REMARK    2  A    between atoms: N_3  and  C_24
REMARK    3  A    between atoms: C_7  and  C_13
REMARK    4  A    between atoms: C_13  and  N_15
REMARK    5  A    between atoms: C_16  and  O_18
REMARK    6  A    between atoms: O_18  and  C_20
REMARK    7  A    between atoms: C_25  and  C_32
REMARK    8  A    between atoms: C_26  and  O_35
REMARK                            x       y       z     vdW  Elec       q    Type
REMARK                         _______ _______ _______ _____ _____    ______ ____
ROOT
ATOM      1  O   UNL     1      34.379 -15.307 -20.888  0.00  0.00    -0.252 OA
ATOM      2  N   UNL     1      34.175 -17.063 -22.427  0.00  0.00    -0.268 N 
ATOM      3  N   UNL     1      33.459 -14.946 -23.007  0.00  0.00    -0.268 N 
ATOM      4  C   UNL     1      34.039 -15.722 -21.991  0.00  0.00    +0.308 C 
ATOM      5  H   UNL     1      33.857 -17.250 -23.339  0.00  0.00    +0.156 HD
ATOM      6  H   UNL     1      33.238 -15.420 -23.841  0.00  0.00    +0.156 HD
ENDROOT
BRANCH   2   9
ATOM      7  C   UNL     1      34.380 -20.193 -20.494  0.00  0.00    -0.001 C 
ATOM      8  C   UNL     1      33.847 -19.109 -21.183  0.00  0.00    +0.012 C 
ATOM      9  C   UNL     1      34.701 -18.154 -21.733  0.00  0.00    +0.051 C 
ATOM     10  C   UNL     1      35.755 -20.335 -20.349  0.00  0.00    -0.003 C 
ATOM     11  C   UNL     1      36.083 -18.290 -21.593  0.00  0.00    +0.015 C 
ATOM     12  C   UNL     1      36.609 -19.380 -20.901  0.00  0.00    +0.001 C 
BRANCH   7  13
ATOM     13  C   UNL     1      33.461 -21.220 -19.900  0.00  0.00    +0.119 C 
BRANCH  13  15
ATOM     14  O   UNL     1      32.322 -22.839 -17.774  0.00  0.00    -0.226 OA
ATOM     15  N   UNL     1      34.155 -22.105 -18.992  0.00  0.00    -0.267 N 
ATOM     16  C   UNL     1      33.525 -22.838 -18.008  0.00  0.00    +0.402 C 
ATOM     17  H   UNL     1      35.132 -22.188 -19.080  0.00  0.00    +0.153 HD
BRANCH  16  18
ATOM     18  O   UNL     1      34.447 -23.578 -17.314  0.00  0.00    -0.436 OA
BRANCH  18  20
ATOM     19  O   UNL     1      36.733 -24.321 -15.463  0.00  0.00    -0.350 OA
ATOM     20  C   UNL     1      34.769 -23.112 -16.007  0.00  0.00    +0.202 C 
ATOM     21  C   UNL     1      34.418 -24.164 -14.983  0.00  0.00    +0.078 C 
ATOM     22  C   UNL     1      36.275 -23.021 -15.874  0.00  0.00    +0.186 C 
ATOM     23  C   UNL     1      35.598 -25.110 -15.083  0.00  0.00    +0.146 C 
ENDBRANCH  18  20
ENDBRANCH  16  18
ENDBRANCH  13  15
ENDBRANCH   7  13
ENDBRANCH   2   9
BRANCH   3  24
ATOM     24  C   UNL     1      33.151 -13.565 -22.980  0.00  0.00    +0.055 C 
ATOM     25  C   UNL     1      32.548 -10.861 -22.927  0.00  0.00    +0.070 C 
ATOM     26  C   UNL     1      31.891 -11.740 -22.065  0.00  0.00    +0.143 C 
ATOM     27  C   UNL     1      32.194 -13.101 -22.092  0.00  0.00    +0.052 C 
ATOM     28  C   UNL     1      33.813 -12.706 -23.842  0.00  0.00    +0.015 C 
ATOM     29  C   UNL     1      33.508 -11.345 -23.816  0.00  0.00    +0.007 C 
BRANCH  25  32
ATOM     30  O   UNL     1      32.883  -8.715 -21.968  0.00  0.00    -0.431 OA
ATOM     31  N   UNL     1      31.565  -7.336 -23.183  0.00  0.00    -0.203 NA
ATOM     32  C   UNL     1      32.248  -9.449 -22.916  0.00  0.00    +0.169 C 
ATOM     33  C   UNL     1      31.451  -8.620 -23.650  0.00  0.00    +0.140 C 
ATOM     34  C   UNL     1      32.420  -7.454 -22.193  0.00  0.00    +0.285 C 
ENDBRANCH  25  32
BRANCH  26  35
ATOM     35  O   UNL     1      30.948 -11.295 -21.187  0.00  0.00    -0.471 OA
ATOM     36  C   UNL     1      31.330 -11.207 -19.817  0.00  0.00    +0.252 C 
ENDBRANCH  26  35
ENDBRANCH   3  24
TORSDOF 8
ENDMDL
MODEL 2
REMARK VINA RESULT:     -11.6      0.820      1.695
REMARK  Name = 153241
REMARK  8 active torsions:
REMARK  status: ('A' for Active; 'I' for Inactive)
REMARK    1  A    between atoms: N_2  and  C_9
REMARK    2  A    between atoms: N_3  and  C_24
REMARK    3  A    between atoms: C_7  and  C_13
REMARK    4  A    between atoms: C_13  and  N_15
REMARK    5  A    between atoms: C_16  and  O_18
REMARK    6  A    between atoms: O_18  and  C_20
REMARK    7  A    between atoms: C_25  and  C_32
REMARK    8  A    between atoms: C_26  and  O_35
REMARK                            x       y       z     vdW  Elec       q    Type
REMARK                         _______ _______ _______ _____ _____    ______ ____
ROOT
ATOM      1  O   UNL     1      34.242 -15.665 -20.606  0.00  0.00    -0.252 OA
ATOM      2  N   UNL     1      34.292 -17.367 -22.216  0.00  0.00    -0.268 N 
ATOM      3  N   UNL     1      33.579 -15.252 -22.810  0.00  0.00    -0.268 N 
ATOM      4  C   UNL     1      34.056 -16.047 -21.756  0.00  0.00    +0.308 C 
ATOM      5  H   UNL     1      34.097 -17.529 -23.167  0.00  0.00    +0.156 HD
ATOM      6  H   UNL     1      33.481 -15.701 -23.680  0.00  0.00    +0.156 HD
ENDROOT
BRANCH   2   9
ATOM      7  C   UNL     1      34.353 -20.497 -20.273  0.00  0.00    -0.001 C 
ATOM      8  C   UNL     1      33.871 -19.404 -20.986  0.00  0.00    +0.012 C 
ATOM      9  C   UNL     1      34.767 -18.466 -21.499  0.00  0.00    +0.051 C 
ATOM     10  C   UNL     1      35.718 -20.665 -20.069  0.00  0.00    -0.003 C 
ATOM     11  C   UNL     1      36.138 -18.628 -21.298  0.00  0.00    +0.015 C 
ATOM     12  C   UNL     1      36.613 -19.727 -20.584  0.00  0.00    +0.001 C 
BRANCH   7  13
ATOM     13  C   UNL     1      33.390 -21.505 -19.719  0.00  0.00    +0.119 C 
BRANCH  13  15
ATOM     14  O   UNL     1      32.211 -22.806 -17.405  0.00  0.00    -0.226 OA
ATOM     15  N   UNL     1      34.029 -22.409 -18.790  0.00  0.00    -0.267 N 
ATOM     16  C   UNL     1      33.384 -22.982 -17.714  0.00  0.00    +0.402 C 
ATOM     17  H   UNL     1      34.978 -22.628 -18.934  0.00  0.00    +0.153 HD
BRANCH  16  18
ATOM     18  O   UNL     1      34.252 -23.788 -17.024  0.00  0.00    -0.436 OA
BRANCH  18  20
ATOM     19  O   UNL     1      36.795 -24.383 -15.480  0.00  0.00    -0.350 OA
ATOM     20  C   UNL     1      34.715 -23.286 -15.774  0.00  0.00    +0.202 C 
ATOM     21  C   UNL     1      34.556 -24.339 -14.705  0.00  0.00    +0.078 C 
ATOM     22  C   UNL     1      36.218 -23.115 -15.839  0.00  0.00    +0.186 C 
ATOM     23  C   UNL     1      35.762 -25.224 -14.949  0.00  0.00    +0.146 C 
ENDBRANCH  18  20
ENDBRANCH  16  18
ENDBRANCH  13  15
ENDBRANCH   7  13
ENDBRANCH   2   9
BRANCH   3  24
ATOM     24  C   UNL     1      33.222 -13.883 -22.775  0.00  0.00    +0.055 C 
ATOM     25  C   UNL     1      32.523 -11.203 -22.708  0.00  0.00    +0.070 C 
ATOM     26  C   UNL     1      33.525 -11.641 -23.573  0.00  0.00    +0.143 C 
ATOM     27  C   UNL     1      33.878 -12.991 -23.607  0.00  0.00    +0.052 C 
ATOM     28  C   UNL     1      32.224 -13.465 -21.910  0.00  0.00    +0.015 C 
ATOM     29  C   UNL     1      31.872 -12.116 -21.876  0.00  0.00    +0.007 C 
BRANCH  25  32
ATOM     30  O   UNL     1      32.285  -9.200 -21.454  0.00  0.00    -0.431 OA
ATOM     31  N   UNL     1      31.476  -7.694 -22.935  0.00  0.00    -0.203 NA
ATOM     32  C   UNL     1      32.143  -9.811 -22.657  0.00  0.00    +0.169 C 
ATOM     33  C   UNL     1      31.654  -8.905 -23.552  0.00  0.00    +0.140 C 
ATOM     34  C   UNL     1      31.864  -7.929 -21.702  0.00  0.00    +0.285 C 
ENDBRANCH  25  32
BRANCH  26  35
ATOM     35  O   UNL     1      34.177 -10.772 -24.396  0.00  0.00    -0.471 OA
ATOM     36  C   UNL     1      34.485 -11.232 -25.710  0.00  0.00    +0.252 C 
ENDBRANCH  26  35
ENDBRANCH   3  24
TORSDOF 8
ENDMDL
MODEL 3
REMARK VINA RESULT:     -11.3      3.366      5.185
REMARK  Name = 153241
REMARK  8 active torsions:
REMARK  status: ('A' for Active; 'I' for Inactive)
REMARK    1  A    between atoms: N_2  and  C_9
REMARK    2  A    between atoms: N_3  and  C_24
REMARK    3  A    between atoms: C_7  and  C_13
REMARK    4  A    between atoms: C_13  and  N_15
REMARK    5  A    between atoms: C_16  and  O_18
REMARK    6  A    between atoms: O_18  and  C_20
REMARK    7  A    between atoms: C_25  and  C_32
REMARK    8  A    between atoms: C_26  and  O_35
REMARK                            x       y       z     vdW  Elec       q    Type
REMARK                         _______ _______ _______ _____ _____    ______ ____
ROOT
ATOM      1  O   UNL     1      33.888 -18.941 -20.622  0.00  0.00    -0.252 OA
ATOM      2  N   UNL     1      35.544 -20.595 -20.734  0.00  0.00    -0.268 N 
ATOM      3  N   UNL     1      35.377 -19.029 -22.423  0.00  0.00    -0.268 N 
ATOM      4  C   UNL     1      34.835 -19.461 -21.203  0.00  0.00    +0.308 C 
ATOM      5  H   UNL     1      36.282 -20.904 -21.307  0.00  0.00    +0.156 HD
ATOM      6  H   UNL     1      36.138 -19.550 -22.767  0.00  0.00    +0.156 HD
ENDROOT
BRANCH   2   9
ATOM      7  C   UNL     1      36.106 -22.121 -17.428  0.00  0.00    -0.001 C 
ATOM      8  C   UNL     1      36.324 -21.384 -18.587  0.00  0.00    +0.012 C 
ATOM      9  C   UNL     1      35.334 -21.332 -19.568  0.00  0.00    +0.051 C 
ATOM     10  C   UNL     1      34.911 -22.805 -17.236  0.00  0.00    -0.003 C 
ATOM     11  C   UNL     1      34.131 -22.015 -19.382  0.00  0.00    +0.015 C 
ATOM     12  C   UNL     1      33.920 -22.751 -18.217  0.00  0.00    +0.001 C 
BRANCH   7  13
ATOM     13  C   UNL     1      37.172 -22.179 -16.374  0.00  0.00    +0.119 C 
BRANCH  13  15
ATOM     14  O   UNL     1      39.188 -23.980 -15.309  0.00  0.00    -0.226 OA
ATOM     15  N   UNL     1      36.978 -23.290 -15.470  0.00  0.00    -0.267 N 
ATOM     16  C   UNL     1      38.003 -24.094 -15.016  0.00  0.00    +0.402 C 
ATOM     17  H   UNL     1      36.064 -23.484 -15.162  0.00  0.00    +0.153 HD
BRANCH  16  18
ATOM     18  O   UNL     1      37.505 -25.056 -14.176  0.00  0.00    -0.436 OA
BRANCH  18  20
ATOM     19  O   UNL     1      36.305 -25.579 -11.439  0.00  0.00    -0.350 OA
ATOM     20  C   UNL     1      38.124 -25.155 -12.898  0.00  0.00    +0.202 C 
ATOM     21  C   UNL     1      37.851 -23.907 -12.095  0.00  0.00    +0.078 C 
ATOM     22  C   UNL     1      37.415 -26.221 -12.088  0.00  0.00    +0.186 C 
ATOM     23  C   UNL     1      36.446 -24.159 -11.583  0.00  0.00    +0.146 C 
ENDBRANCH  18  20
ENDBRANCH  16  18
ENDBRANCH  13  15
ENDBRANCH   7  13
ENDBRANCH   2   9
BRANCH   3  24
ATOM     24  C   UNL     1      34.963 -17.937 -23.222  0.00  0.00    +0.055 C 
ATOM     25  C   UNL     1      34.153 -15.797 -24.784  0.00  0.00    +0.070 C 
ATOM     26  C   UNL     1      34.483 -15.597 -23.444  0.00  0.00    +0.143 C 
ATOM     27  C   UNL     1      34.890 -16.674 -22.656  0.00  0.00    +0.052 C 
ATOM     28  C   UNL     1      34.640 -18.153 -24.551  0.00  0.00    +0.015 C 
ATOM     29  C   UNL     1      34.232 -17.075 -25.338  0.00  0.00    +0.007 C 
BRANCH  25  32
ATOM     30  O   UNL     1      33.572 -14.974 -26.935  0.00  0.00    -0.431 OA
ATOM     31  N   UNL     1      33.072 -12.794 -26.593  0.00  0.00    -0.203 NA
ATOM     32  C   UNL     1      33.728 -14.696 -25.616  0.00  0.00    +0.169 C 
ATOM     33  C   UNL     1      33.428 -13.382 -25.407  0.00  0.00    +0.140 C 
ATOM     34  C   UNL     1      33.175 -13.780 -27.456  0.00  0.00    +0.285 C 
ENDBRANCH  25  32
BRANCH  26  35
ATOM     35  O   UNL     1      34.414 -14.358 -22.877  0.00  0.00    -0.471 OA
ATOM     36  C   UNL     1      33.465 -14.178 -21.829  0.00  0.00    +0.252 C 
ENDBRANCH  26  35
ENDBRANCH   3  24
TORSDOF 8
ENDMDL
MODEL 4
REMARK VINA RESULT:     -11.1      2.526      3.871
REMARK  Name = 153241
REMARK  8 active torsions:
REMARK  status: ('A' for Active; 'I' for Inactive)
REMARK    1  A    between atoms: N_2  and  C_9
REMARK    2  A    between atoms: N_3  and  C_24
REMARK    3  A    between atoms: C_7  and  C_13
REMARK    4  A    between atoms: C_13  and  N_15
REMARK    5  A    between atoms: C_16  and  O_18
REMARK    6  A    between atoms: O_18  and  C_20
REMARK    7  A    between atoms: C_25  and  C_32
REMARK    8  A    between atoms: C_26  and  O_35
REMARK                            x       y       z     vdW  Elec       q    Type
REMARK                         _______ _______ _______ _____ _____    ______ ____
ROOT
ATOM      1  O   UNL     1      35.028 -16.873 -20.664  0.00  0.00    -0.252 OA
ATOM      2  N   UNL     1      33.744 -18.785 -21.094  0.00  0.00    -0.268 N 
ATOM      3  N   UNL     1      33.026 -16.729 -21.863  0.00  0.00    -0.268 N 
ATOM      4  C   UNL     1      34.036 -17.400 -21.157  0.00  0.00    +0.308 C 
ATOM      5  H   UNL     1      32.910 -19.066 -21.536  0.00  0.00    +0.156 HD
ATOM      6  H   UNL     1      32.289 -17.288 -22.200  0.00  0.00    +0.156 HD
ENDROOT
BRANCH   2   9
ATOM      7  C   UNL     1      34.572 -21.827 -19.189  0.00  0.00    -0.001 C 
ATOM      8  C   UNL     1      33.829 -20.815 -19.786  0.00  0.00    +0.012 C 
ATOM      9  C   UNL     1      34.482 -19.804 -20.491  0.00  0.00    +0.051 C 
ATOM     10  C   UNL     1      35.959 -21.842 -19.287  0.00  0.00    -0.003 C 
ATOM     11  C   UNL     1      35.873 -19.812 -20.595  0.00  0.00    +0.015 C 
ATOM     12  C   UNL     1      36.611 -20.831 -19.994  0.00  0.00    +0.001 C 
BRANCH   7  13
ATOM     13  C   UNL     1      33.871 -22.914 -18.429  0.00  0.00    +0.119 C 
BRANCH  13  15
ATOM     14  O   UNL     1      32.311 -23.574 -16.068  0.00  0.00    -0.226 OA
ATOM     15  N   UNL     1      32.491 -22.580 -18.157  0.00  0.00    -0.267 N 
ATOM     16  C   UNL     1      31.831 -22.939 -17.000  0.00  0.00    +0.402 C 
ATOM     17  H   UNL     1      31.995 -22.069 -18.836  0.00  0.00    +0.153 HD
BRANCH  16  18
ATOM     18  O   UNL     1      30.540 -22.480 -17.038  0.00  0.00    -0.436 OA
BRANCH  18  20
ATOM     19  O   UNL     1      27.838 -23.776 -17.515  0.00  0.00    -0.350 OA
ATOM     20  C   UNL     1      29.631 -23.089 -16.126  0.00  0.00    +0.202 C 
ATOM     21  C   UNL     1      28.456 -22.176 -15.880  0.00  0.00    +0.078 C 
ATOM     22  C   UNL     1      28.980 -24.279 -16.800  0.00  0.00    +0.186 C 
ATOM     23  C   UNL     1      27.600 -22.422 -17.107  0.00  0.00    +0.146 C 
ENDBRANCH  18  20
ENDBRANCH  16  18
ENDBRANCH  13  15
ENDBRANCH   7  13
ENDBRANCH   2   9
BRANCH   3  24
ATOM     24  C   UNL     1      32.934 -15.346 -22.149  0.00  0.00    +0.055 C 
ATOM     25  C   UNL     1      32.755 -12.639 -22.709  0.00  0.00    +0.070 C 
ATOM     26  C   UNL     1      33.159 -13.532 -23.702  0.00  0.00    +0.143 C 
ATOM     27  C   UNL     1      33.250 -14.895 -23.420  0.00  0.00    +0.052 C 
ATOM     28  C   UNL     1      32.531 -14.473 -21.152  0.00  0.00    +0.015 C 
ATOM     29  C   UNL     1      32.441 -13.110 -21.434  0.00  0.00    +0.007 C 
BRANCH  25  32
ATOM     30  O   UNL     1      31.543 -10.606 -22.511  0.00  0.00    -0.431 OA
ATOM     31  N   UNL     1      32.827  -9.073 -23.567  0.00  0.00    -0.203 NA
ATOM     32  C   UNL     1      32.655 -11.224 -22.981  0.00  0.00    +0.169 C 
ATOM     33  C   UNL     1      33.431 -10.301 -23.620  0.00  0.00    +0.140 C 
ATOM     34  C   UNL     1      31.719  -9.314 -22.903  0.00  0.00    +0.285 C 
ENDBRANCH  25  32
BRANCH  26  35
ATOM     35  O   UNL     1      33.473 -13.099 -24.956  0.00  0.00    -0.471 OA
ATOM     36  C   UNL     1      33.126 -13.955 -26.041  0.00  0.00    +0.252 C 
ENDBRANCH  26  35
ENDBRANCH   3  24
TORSDOF 8
ENDMDL
MODEL 5
REMARK VINA RESULT:     -10.7      1.645      2.382
REMARK  Name = 153241
REMARK  8 active torsions:
REMARK  status: ('A' for Active; 'I' for Inactive)
REMARK    1  A    between atoms: N_2  and  C_9
REMARK    2  A    between atoms: N_3  and  C_24
REMARK    3  A    between atoms: C_7  and  C_13
REMARK    4  A    between atoms: C_13  and  N_15
REMARK    5  A    between atoms: C_16  and  O_18
REMARK    6  A    between atoms: O_18  and  C_20
REMARK    7  A    between atoms: C_25  and  C_32
REMARK    8  A    between atoms: C_26  and  O_35
REMARK                            x       y       z     vdW  Elec       q    Type
REMARK                         _______ _______ _______ _____ _____    ______ ____
ROOT
ATOM      1  O   UNL     1      34.934 -15.968 -20.772  0.00  0.00    -0.252 OA
ATOM      2  N   UNL     1      34.161 -17.907 -21.837  0.00  0.00    -0.268 N 
ATOM      3  N   UNL     1      33.397 -15.841 -22.529  0.00  0.00    -0.268 N 
ATOM      4  C   UNL     1      34.236 -16.508 -21.624  0.00  0.00    +0.308 C 
ATOM      5  H   UNL     1      33.557 -18.197 -22.559  0.00  0.00    +0.156 HD
ATOM      6  H   UNL     1      32.897 -16.411 -23.157  0.00  0.00    +0.156 HD
ENDROOT
BRANCH   2   9
ATOM      7  C   UNL     1      34.841 -21.126 -20.180  0.00  0.00    -0.001 C 
ATOM      8  C   UNL     1      34.165 -20.115 -20.854  0.00  0.00    +0.012 C 
ATOM      9  C   UNL     1      34.830 -18.928 -21.161  0.00  0.00    +0.051 C 
ATOM     10  C   UNL     1      36.172 -20.968 -19.811  0.00  0.00    -0.003 C 
ATOM     11  C   UNL     1      36.166 -18.761 -20.795  0.00  0.00    +0.015 C 
ATOM     12  C   UNL     1      36.837 -19.781 -20.120  0.00  0.00    +0.001 C 
BRANCH   7  13
ATOM     13  C   UNL     1      34.125 -22.403 -19.848  0.00  0.00    +0.119 C 
BRANCH  13  15
ATOM     14  O   UNL     1      33.909 -23.822 -17.323  0.00  0.00    -0.226 OA
ATOM     15  N   UNL     1      33.140 -22.215 -18.809  0.00  0.00    -0.267 N 
ATOM     16  C   UNL     1      33.116 -22.941 -17.636  0.00  0.00    +0.402 C 
ATOM     17  H   UNL     1      32.445 -21.531 -18.946  0.00  0.00    +0.153 HD
BRANCH  16  18
ATOM     18  O   UNL     1      32.066 -22.534 -16.855  0.00  0.00    -0.436 OA
BRANCH  18  20
ATOM     19  O   UNL     1      29.773 -22.448 -14.869  0.00  0.00    -0.350 OA
ATOM     20  C   UNL     1      31.160 -23.552 -16.442  0.00  0.00    +0.202 C 
ATOM     21  C   UNL     1      31.522 -24.035 -15.059  0.00  0.00    +0.078 C 
ATOM     22  C   UNL     1      29.794 -22.936 -16.222  0.00  0.00    +0.186 C 
ATOM     23  C   UNL     1      30.921 -22.957 -14.179  0.00  0.00    +0.146 C 
ENDBRANCH  18  20
ENDBRANCH  16  18
ENDBRANCH  13  15
ENDBRANCH   7  13
ENDBRANCH   2   9
BRANCH   3  24
ATOM     24  C   UNL     1      33.180 -14.447 -22.651  0.00  0.00    +0.055 C 
ATOM     25  C   UNL     1      32.754 -11.720 -22.889  0.00  0.00    +0.070 C 
ATOM     26  C   UNL     1      32.076 -12.450 -21.913  0.00  0.00    +0.143 C 
ATOM     27  C   UNL     1      32.289 -13.823 -21.793  0.00  0.00    +0.052 C 
ATOM     28  C   UNL     1      33.862 -13.738 -23.626  0.00  0.00    +0.015 C 
ATOM     29  C   UNL     1      33.647 -12.365 -23.745  0.00  0.00    +0.007 C 
BRANCH  25  32
ATOM     30  O   UNL     1      31.262  -9.873 -22.936  0.00  0.00    -0.431 OA
ATOM     31  N   UNL     1      32.591  -8.077 -23.288  0.00  0.00    -0.203 NA
ATOM     32  C   UNL     1      32.547 -10.298 -23.030  0.00  0.00    +0.169 C 
ATOM     33  C   UNL     1      33.351  -9.217 -23.243  0.00  0.00    +0.140 C 
ATOM     34  C   UNL     1      31.370  -8.526 -23.101  0.00  0.00    +0.285 C 
ENDBRANCH  25  32
BRANCH  26  35
ATOM     35  O   UNL     1      31.197 -11.845 -21.063  0.00  0.00    -0.471 OA
ATOM     36  C   UNL     1      31.662 -11.565 -19.744  0.00  0.00    +0.252 C 
ENDBRANCH  26  35
ENDBRANCH   3  24
TORSDOF 8
ENDMDL
MODEL 6
REMARK VINA RESULT:     -10.7      3.546      5.584
REMARK  Name = 153241
REMARK  8 active torsions:
REMARK  status: ('A' for Active; 'I' for Inactive)
REMARK    1  A    between atoms: N_2  and  C_9
REMARK    2  A    between atoms: N_3  and  C_24
REMARK    3  A    between atoms: C_7  and  C_13
REMARK    4  A    between atoms: C_13  and  N_15
REMARK    5  A    between atoms: C_16  and  O_18
REMARK    6  A    between atoms: O_18  and  C_20
REMARK    7  A    between atoms: C_25  and  C_32
REMARK    8  A    between atoms: C_26  and  O_35
REMARK                            x       y       z     vdW  Elec       q    Type
REMARK                         _______ _______ _______ _____ _____    ______ ____
ROOT
ATOM      1  O   UNL     1      34.261 -19.035 -20.260  0.00  0.00    -0.252 OA
ATOM      2  N   UNL     1      35.776 -20.808 -20.492  0.00  0.00    -0.268 N 
ATOM      3  N   UNL     1      35.452 -19.344 -22.249  0.00  0.00    -0.268 N 
ATOM      4  C   UNL     1      35.075 -19.658 -20.934  0.00  0.00    +0.308 C 
ATOM      5  H   UNL     1      36.400 -21.204 -21.143  0.00  0.00    +0.156 HD
ATOM      6  H   UNL     1      36.120 -19.939 -22.661  0.00  0.00    +0.156 HD
ENDROOT
BRANCH   2   9
ATOM      7  C   UNL     1      34.580 -22.963 -17.754  0.00  0.00    -0.001 C 
ATOM      8  C   UNL     1      34.647 -22.325 -18.988  0.00  0.00    +0.012 C 
ATOM      9  C   UNL     1      35.701 -21.452 -19.257  0.00  0.00    +0.051 C 
ATOM     10  C   UNL     1      35.554 -22.741 -16.787  0.00  0.00    -0.003 C 
ATOM     11  C   UNL     1      36.682 -21.224 -18.291  0.00  0.00    +0.015 C 
ATOM     12  C   UNL     1      36.608 -21.869 -17.057  0.00  0.00    +0.001 C 
BRANCH   7  13
ATOM     13  C   UNL     1      33.445 -23.901 -17.463  0.00  0.00    +0.119 C 
BRANCH  13  15
ATOM     14  O   UNL     1      31.713 -24.152 -15.146  0.00  0.00    -0.226 OA
ATOM     15  N   UNL     1      32.214 -23.193 -17.198  0.00  0.00    -0.267 N 
ATOM     16  C   UNL     1      31.454 -23.380 -16.062  0.00  0.00    +0.402 C 
ATOM     17  H   UNL     1      31.899 -22.542 -17.866  0.00  0.00    +0.153 HD
BRANCH  16  18
ATOM     18  O   UNL     1      30.350 -22.569 -16.100  0.00  0.00    -0.436 OA
BRANCH  18  20
ATOM     19  O   UNL     1      27.910 -23.752 -17.461  0.00  0.00    -0.350 OA
ATOM     20  C   UNL     1      29.154 -23.112 -15.549  0.00  0.00    +0.202 C 
ATOM     21  C   UNL     1      28.015 -22.139 -15.728  0.00  0.00    +0.078 C 
ATOM     22  C   UNL     1      28.711 -24.288 -16.395  0.00  0.00    +0.186 C 
ATOM     23  C   UNL     1      27.617 -22.378 -17.172  0.00  0.00    +0.146 C 
ENDBRANCH  18  20
ENDBRANCH  16  18
ENDBRANCH  13  15
ENDBRANCH   7  13
ENDBRANCH   2   9
BRANCH   3  24
ATOM     24  C   UNL     1      34.990 -18.278 -23.056  0.00  0.00    +0.055 C 
ATOM     25  C   UNL     1      34.085 -16.190 -24.636  0.00  0.00    +0.070 C 
ATOM     26  C   UNL     1      34.578 -15.934 -23.357  0.00  0.00    +0.143 C 
ATOM     27  C   UNL     1      35.034 -16.985 -22.561  0.00  0.00    +0.052 C 
ATOM     28  C   UNL     1      34.503 -18.549 -24.324  0.00  0.00    +0.015 C 
ATOM     29  C   UNL     1      34.047 -17.498 -25.119  0.00  0.00    +0.007 C 
BRANCH  25  32
ATOM     30  O   UNL     1      33.948 -15.192 -26.787  0.00  0.00    -0.431 OA
ATOM     31  N   UNL     1      32.716 -13.321 -26.469  0.00  0.00    -0.203 NA
ATOM     32  C   UNL     1      33.608 -15.116 -25.476  0.00  0.00    +0.169 C 
ATOM     33  C   UNL     1      32.866 -13.988 -25.280  0.00  0.00    +0.140 C 
ATOM     34  C   UNL     1      33.374 -14.077 -27.318  0.00  0.00    +0.285 C 
ENDBRANCH  25  32
BRANCH  26  35
ATOM     35  O   UNL     1      34.627 -14.665 -22.860  0.00  0.00    -0.471 OA
ATOM     36  C   UNL     1      34.158 -14.475 -21.527  0.00  0.00    +0.252 C 
ENDBRANCH  26  35
ENDBRANCH   3  24
TORSDOF 8
ENDMDL
MODEL 7
REMARK VINA RESULT:     -10.6      2.141      3.198
REMARK  Name = 153241
REMARK  8 active torsions:
REMARK  status: ('A' for Active; 'I' for Inactive)
REMARK    1  A    between atoms: N_2  and  C_9
REMARK    2  A    between atoms: N_3  and  C_24
REMARK    3  A    between atoms: C_7  and  C_13
REMARK    4  A    between atoms: C_13  and  N_15
REMARK    5  A    between atoms: C_16  and  O_18
REMARK    6  A    between atoms: O_18  and  C_20
REMARK    7  A    between atoms: C_25  and  C_32
REMARK    8  A    between atoms: C_26  and  O_35
REMARK                            x       y       z     vdW  Elec       q    Type
REMARK                         _______ _______ _______ _____ _____    ______ ____
ROOT
ATOM      1  O   UNL     1      33.919 -14.463 -22.264  0.00  0.00    -0.252 OA
ATOM      2  N   UNL     1      34.219 -15.386 -24.397  0.00  0.00    -0.268 N 
ATOM      3  N   UNL     1      33.615 -13.167 -24.187  0.00  0.00    -0.268 N 
ATOM      4  C   UNL     1      33.916 -14.345 -23.485  0.00  0.00    +0.308 C 
ATOM      5  H   UNL     1      34.177 -15.145 -25.350  0.00  0.00    +0.156 HD
ATOM      6  H   UNL     1      33.655 -13.227 -25.169  0.00  0.00    +0.156 HD
ENDROOT
BRANCH   2   9
ATOM      7  C   UNL     1      35.642 -18.334 -22.706  0.00  0.00    -0.001 C 
ATOM      8  C   UNL     1      35.297 -17.013 -22.971  0.00  0.00    +0.012 C 
ATOM      9  C   UNL     1      34.571 -16.709 -24.122  0.00  0.00    +0.051 C 
ATOM     10  C   UNL     1      35.270 -19.353 -23.575  0.00  0.00    -0.003 C 
ATOM     11  C   UNL     1      34.193 -17.726 -25.000  0.00  0.00    +0.015 C 
ATOM     12  C   UNL     1      34.543 -19.048 -24.726  0.00  0.00    +0.001 C 
BRANCH   7  13
ATOM     13  C   UNL     1      36.425 -18.663 -21.469  0.00  0.00    +0.119 C 
BRANCH  13  15
ATOM     14  O   UNL     1      37.213 -21.166 -20.223  0.00  0.00    -0.226 OA
ATOM     15  N   UNL     1      35.662 -19.470 -20.545  0.00  0.00    -0.267 N 
ATOM     16  C   UNL     1      36.122 -20.652 -20.002  0.00  0.00    +0.402 C 
ATOM     17  H   UNL     1      34.764 -19.160 -20.290  0.00  0.00    +0.153 HD
BRANCH  16  18
ATOM     18  O   UNL     1      35.174 -21.183 -19.166  0.00  0.00    -0.436 OA
BRANCH  18  20
ATOM     19  O   UNL     1      32.303 -21.732 -18.354  0.00  0.00    -0.350 OA
ATOM     20  C   UNL     1      34.176 -21.990 -19.783  0.00  0.00    +0.202 C 
ATOM     21  C   UNL     1      33.988 -23.266 -19.001  0.00  0.00    +0.078 C 
ATOM     22  C   UNL     1      32.829 -21.314 -19.625  0.00  0.00    +0.186 C 
ATOM     23  C   UNL     1      33.105 -22.811 -17.856  0.00  0.00    +0.146 C 
ENDBRANCH  18  20
ENDBRANCH  16  18
ENDBRANCH  13  15
ENDBRANCH   7  13
ENDBRANCH   2   9
BRANCH   3  24
ATOM     24  C   UNL     1      33.260 -11.904 -23.657  0.00  0.00    +0.055 C 
ATOM     25  C   UNL     1      32.565  -9.431 -22.619  0.00  0.00    +0.070 C 
ATOM     26  C   UNL     1      31.952 -10.587 -22.137  0.00  0.00    +0.143 C 
ATOM     27  C   UNL     1      32.301 -11.833 -22.660  0.00  0.00    +0.052 C 
ATOM     28  C   UNL     1      33.879 -10.765 -24.146  0.00  0.00    +0.015 C 
ATOM     29  C   UNL     1      33.529  -9.521 -23.623  0.00  0.00    +0.007 C 
BRANCH  25  32
ATOM     30  O   UNL     1      31.384  -7.384 -22.857  0.00  0.00    -0.431 OA
ATOM     31  N   UNL     1      31.891  -6.214 -20.989  0.00  0.00    -0.203 NA
ATOM     32  C   UNL     1      32.217  -8.132 -22.091  0.00  0.00    +0.169 C 
ATOM     33  C   UNL     1      32.526  -7.429 -20.964  0.00  0.00    +0.140 C 
ATOM     34  C   UNL     1      31.235  -6.245 -22.127  0.00  0.00    +0.285 C 
ENDBRANCH  25  32
BRANCH  26  35
ATOM     35  O   UNL     1      31.006 -10.529 -21.156  0.00  0.00    -0.471 OA
ATOM     36  C   UNL     1      31.418 -10.884 -19.839  0.00  0.00    +0.252 C 
ENDBRANCH  26  35
ENDBRANCH   3  24
TORSDOF 8
ENDMDL
MODEL 8
REMARK VINA RESULT:     -10.4      3.349      4.768
REMARK  Name = 153241
REMARK  8 active torsions:
REMARK  status: ('A' for Active; 'I' for Inactive)
REMARK    1  A    between atoms: N_2  and  C_9
REMARK    2  A    between atoms: N_3  and  C_24
REMARK    3  A    between atoms: C_7  and  C_13
REMARK    4  A    between atoms: C_13  and  N_15
REMARK    5  A    between atoms: C_16  and  O_18
REMARK    6  A    between atoms: O_18  and  C_20
REMARK    7  A    between atoms: C_25  and  C_32
REMARK    8  A    between atoms: C_26  and  O_35
REMARK                            x       y       z     vdW  Elec       q    Type
REMARK                         _______ _______ _______ _____ _____    ______ ____
ROOT
ATOM      1  O   UNL     1      35.010 -18.533 -20.325  0.00  0.00    -0.252 OA
ATOM      2  N   UNL     1      35.295 -20.817 -20.768  0.00  0.00    -0.268 N 
ATOM      3  N   UNL     1      34.852 -19.362 -22.506  0.00  0.00    -0.268 N 
ATOM      4  C   UNL     1      35.047 -19.467 -21.120  0.00  0.00    +0.308 C 
ATOM      5  H   UNL     1      35.295 -21.459 -21.514  0.00  0.00    +0.156 HD
ATOM      6  H   UNL     1      34.912 -20.202 -23.016  0.00  0.00    +0.156 HD
ENDROOT
BRANCH   2   9
ATOM      7  C   UNL     1      34.792 -22.594 -17.581  0.00  0.00    -0.001 C 
ATOM      8  C   UNL     1      34.538 -22.060 -18.839  0.00  0.00    +0.012 C 
ATOM      9  C   UNL     1      35.541 -21.356 -19.504  0.00  0.00    +0.051 C 
ATOM     10  C   UNL     1      36.035 -22.435 -16.980  0.00  0.00    -0.003 C 
ATOM     11  C   UNL     1      36.791 -21.191 -18.908  0.00  0.00    +0.015 C 
ATOM     12  C   UNL     1      37.038 -21.731 -17.646  0.00  0.00    +0.001 C 
BRANCH   7  13
ATOM     13  C   UNL     1      33.713 -23.351 -16.863  0.00  0.00    +0.119 C 
BRANCH  13  15
ATOM     14  O   UNL     1      32.477 -23.272 -14.236  0.00  0.00    -0.226 OA
ATOM     15  N   UNL     1      34.194 -23.951 -15.640  0.00  0.00    -0.267 N 
ATOM     16  C   UNL     1      33.535 -23.859 -14.432  0.00  0.00    +0.402 C 
ATOM     17  H   UNL     1      35.041 -24.452 -15.671  0.00  0.00    +0.153 HD
BRANCH  16  18
ATOM     18  O   UNL     1      34.238 -24.527 -13.464  0.00  0.00    -0.436 OA
BRANCH  18  20
ATOM     19  O   UNL     1      36.397 -25.657 -11.655  0.00  0.00    -0.350 OA
ATOM     20  C   UNL     1      35.615 -24.184 -13.339  0.00  0.00    +0.202 C 
ATOM     21  C   UNL     1      35.837 -23.393 -12.074  0.00  0.00    +0.078 C 
ATOM     22  C   UNL     1      36.415 -25.444 -13.077  0.00  0.00    +0.186 C 
ATOM     23  C   UNL     1      35.875 -24.482 -11.021  0.00  0.00    +0.146 C 
ENDBRANCH  18  20
ENDBRANCH  16  18
ENDBRANCH  13  15
ENDBRANCH   7  13
ENDBRANCH   2   9
BRANCH   3  24
ATOM     24  C   UNL     1      34.578 -18.197 -23.261  0.00  0.00    +0.055 C 
ATOM     25  C   UNL     1      34.043 -15.916 -24.739  0.00  0.00    +0.070 C 
ATOM     26  C   UNL     1      34.141 -15.840 -23.350  0.00  0.00    +0.143 C 
ATOM     27  C   UNL     1      34.410 -16.988 -22.605  0.00  0.00    +0.052 C 
ATOM     28  C   UNL     1      34.484 -18.289 -24.640  0.00  0.00    +0.015 C 
ATOM     29  C   UNL     1      34.214 -17.141 -25.384  0.00  0.00    +0.007 C 
BRANCH  25  32
ATOM     30  O   UNL     1      33.569 -14.945 -26.855  0.00  0.00    -0.431 OA
ATOM     31  N   UNL     1      33.360 -12.733 -26.432  0.00  0.00    -0.203 NA
ATOM     32  C   UNL     1      33.764 -14.738 -25.529  0.00  0.00    +0.169 C 
ATOM     33  C   UNL     1      33.640 -13.405 -25.270  0.00  0.00    +0.140 C 
ATOM     34  C   UNL     1      33.331 -13.692 -27.330  0.00  0.00    +0.285 C 
ENDBRANCH  25  32
BRANCH  26  35
ATOM     35  O   UNL     1      33.978 -14.655 -22.694  0.00  0.00    -0.471 OA
ATOM     36  C   UNL     1      34.261 -14.645 -21.297  0.00  0.00    +0.252 C 
ENDBRANCH  26  35
ENDBRANCH   3  24
TORSDOF 8
ENDMDL
MODEL 9
REMARK VINA RESULT:     -10.3      3.165     12.542
REMARK  Name = 153241
REMARK  8 active torsions:
REMARK  status: ('A' for Active; 'I' for Inactive)
REMARK    1  A    between atoms: N_2  and  C_9
REMARK    2  A    between atoms: N_3  and  C_24
REMARK    3  A    between atoms: C_7  and  C_13
REMARK    4  A    between atoms: C_13  and  N_15
REMARK    5  A    between atoms: C_16  and  O_18
REMARK    6  A    between atoms: O_18  and  C_20
REMARK    7  A    between atoms: C_25  and  C_32
REMARK    8  A    between atoms: C_26  and  O_35
REMARK                            x       y       z     vdW  Elec       q    Type
REMARK                         _______ _______ _______ _____ _____    ______ ____
ROOT
ATOM      1  O   UNL     1      36.679 -20.056 -19.456  0.00  0.00    -0.252 OA
ATOM      2  N   UNL     1      34.654 -20.253 -20.619  0.00  0.00    -0.268 N 
ATOM      3  N   UNL     1      35.056 -21.602 -18.788  0.00  0.00    -0.268 N 
ATOM      4  C   UNL     1      35.581 -20.584 -19.600  0.00  0.00    +0.308 C 
ATOM      5  H   UNL     1      33.811 -20.762 -20.611  0.00  0.00    +0.156 HD
ATOM      6  H   UNL     1      34.159 -21.927 -19.029  0.00  0.00    +0.156 HD
ENDROOT
BRANCH   2   9
ATOM      7  C   UNL     1      34.881 -17.000 -22.333  0.00  0.00    -0.001 C 
ATOM      8  C   UNL     1      34.758 -17.942 -21.317  0.00  0.00    +0.012 C 
ATOM      9  C   UNL     1      34.777 -19.300 -21.632  0.00  0.00    +0.051 C 
ATOM     10  C   UNL     1      35.024 -17.398 -23.657  0.00  0.00    -0.003 C 
ATOM     11  C   UNL     1      34.920 -19.709 -22.958  0.00  0.00    +0.015 C 
ATOM     12  C   UNL     1      35.044 -18.758 -23.970  0.00  0.00    +0.001 C 
BRANCH   7  13
ATOM     13  C   UNL     1      34.859 -15.538 -21.996  0.00  0.00    +0.119 C 
BRANCH  13  15
ATOM     14  O   UNL     1      32.442 -14.069 -22.659  0.00  0.00    -0.226 OA
ATOM     15  N   UNL     1      34.612 -14.718 -23.160  0.00  0.00    -0.267 N 
ATOM     16  C   UNL     1      33.425 -14.055 -23.391  0.00  0.00    +0.402 C 
ATOM     17  H   UNL     1      35.332 -14.630 -23.827  0.00  0.00    +0.153 HD
BRANCH  16  18
ATOM     18  O   UNL     1      33.497 -13.366 -24.574  0.00  0.00    -0.436 OA
BRANCH  18  20
ATOM     19  O   UNL     1      33.783 -14.772 -27.247  0.00  0.00    -0.350 OA
ATOM     20  C   UNL     1      32.519 -13.698 -25.554  0.00  0.00    +0.202 C 
ATOM     21  C   UNL     1      32.632 -12.765 -26.734  0.00  0.00    +0.078 C 
ATOM     22  C   UNL     1      32.872 -15.038 -26.167  0.00  0.00    +0.186 C 
ATOM     23  C   UNL     1      33.797 -13.360 -27.500  0.00  0.00    +0.146 C 
ENDBRANCH  18  20
ENDBRANCH  16  18
ENDBRANCH  13  15
ENDBRANCH   7  13
ENDBRANCH   2   9
BRANCH   3  24
ATOM     24  C   UNL     1      35.658 -22.218 -17.665  0.00  0.00    +0.055 C 
ATOM     25  C   UNL     1      36.836 -23.425 -15.468  0.00  0.00    +0.070 C 
ATOM     26  C   UNL     1      35.481 -23.623 -15.729  0.00  0.00    +0.143 C 
ATOM     27  C   UNL     1      34.887 -23.015 -16.836  0.00  0.00    +0.052 C 
ATOM     28  C   UNL     1      37.006 -22.011 -17.420  0.00  0.00    +0.015 C 
ATOM     29  C   UNL     1      37.598 -22.619 -16.313  0.00  0.00    +0.007 C 
BRANCH  25  32
ATOM     30  O   UNL     1      37.508 -23.302 -13.193  0.00  0.00    -0.431 OA
ATOM     31  N   UNL     1      38.502 -25.292 -12.784  0.00  0.00    -0.203 NA
ATOM     32  C   UNL     1      37.470 -24.045 -14.327  0.00  0.00    +0.169 C 
ATOM     33  C   UNL     1      38.070 -25.246 -14.084  0.00  0.00    +0.140 C 
ATOM     34  C   UNL     1      38.143 -24.120 -12.310  0.00  0.00    +0.285 C 
ENDBRANCH  25  32
BRANCH  26  35
ATOM     35  O   UNL     1      34.712 -24.406 -14.919  0.00  0.00    -0.471 OA
ATOM     36  C   UNL     1      33.516 -23.825 -14.404  0.00  0.00    +0.252 C 
ENDBRANCH  26  35
ENDBRANCH   3  24
TORSDOF 8
ENDMDL
