MODEL 1
REMARK VINA RESULT:      -8.3      0.000      0.000
REMARK  Name = 5095
REMARK  7 active torsions:
REMARK  status: ('A' for Active; 'I' for Inactive)
REMARK    1  A    between atoms: C_3  and  C_12
REMARK    2  A    between atoms: C_12  and  C_13
REMARK    3  A    between atoms: C_13  and  N_14
REMARK    4  A    between atoms: N_14  and  C_16
REMARK    5  A    between atoms: N_14  and  C_19
REMARK    6  A    between atoms: C_16  and  C_17
REMARK    7  A    between atoms: C_19  and  C_20
REMARK                            x       y       z     vdW  Elec       q    Type
REMARK                         _______ _______ _______ _____ _____    ______ ____
ROOT
ATOM      1  O   UNL     1      33.375 -14.995 -27.030  0.00  0.00    -0.274 OA
ATOM      2  N   UNL     1      32.846 -14.126 -24.911  0.00  0.00    -0.284 N 
ATOM      3  C   UNL     1      34.226 -16.248 -22.379  0.00  0.00    -0.027 C 
ATOM      4  C   UNL     1      33.846 -15.674 -23.577  0.00  0.00    -0.004 C 
ATOM      5  C   UNL     1      34.114 -16.118 -24.981  0.00  0.00    +0.113 C 
ATOM      6  C   UNL     1      33.098 -14.500 -23.595  0.00  0.00    +0.046 C 
ATOM      7  C   UNL     1      33.836 -15.614 -21.196  0.00  0.00    -0.005 C 
ATOM      8  C   UNL     1      33.414 -15.035 -25.811  0.00  0.00    +0.231 C 
ATOM      9  C   UNL     1      32.701 -13.854 -22.443  0.00  0.00    +0.014 C 
ATOM     10  C   UNL     1      33.079 -14.427 -21.227  0.00  0.00    +0.001 C 
ATOM     11  H   UNL     1      32.334 -13.328 -25.174  0.00  0.00    +0.155 HD
ENDROOT
BRANCH   3  12
ATOM     12  C   UNL     1      35.027 -17.502 -22.337  0.00  0.00    +0.003 C 
BRANCH  12  13
ATOM     13  C   UNL     1      35.620 -17.764 -20.944  0.00  0.00    -0.073 C 
BRANCH  13  14
ATOM     14  N   UNL     1      35.385 -19.136 -20.507  0.00  0.00    +0.387 N 
ATOM     15  H   UNL     1      35.030 -19.112 -19.552  0.00  0.00    -0.080 HD
BRANCH  14  16
ATOM     16  C   UNL     1      36.633 -19.902 -20.520  0.00  0.00    -0.077 C 
BRANCH  16  17
ATOM     17  C   UNL     1      36.382 -21.332 -20.051  0.00  0.00    -0.023 C 
ATOM     18  C   UNL     1      36.498 -21.447 -18.538  0.00  0.00    -0.002 C 
ENDBRANCH  16  17
ENDBRANCH  14  16
BRANCH  14  19
ATOM     19  C   UNL     1      34.384 -19.783 -21.357  0.00  0.00    -0.077 C 
BRANCH  19  20
ATOM     20  C   UNL     1      33.026 -19.799 -20.658  0.00  0.00    -0.023 C 
ATOM     21  C   UNL     1      32.926 -20.952 -19.671  0.00  0.00    -0.002 C 
ENDBRANCH  19  20
ENDBRANCH  14  19
ENDBRANCH  13  14
ENDBRANCH  12  13
ENDBRANCH   3  12
TORSDOF 7
ENDMDL
MODEL 2
REMARK VINA RESULT:      -8.3      3.022      6.826
REMARK  Name = 5095
REMARK  7 active torsions:
REMARK  status: ('A' for Active; 'I' for Inactive)
REMARK    1  A    between atoms: C_3  and  C_12
REMARK    2  A    between atoms: C_12  and  C_13
REMARK    3  A    between atoms: C_13  and  N_14
REMARK    4  A    between atoms: N_14  and  C_16
REMARK    5  A    between atoms: N_14  and  C_19
REMARK    6  A    between atoms: C_16  and  C_17
REMARK    7  A    between atoms: C_19  and  C_20
REMARK                            x       y       z     vdW  Elec       q    Type
REMARK                         _______ _______ _______ _____ _____    ______ ____
ROOT
ATOM      1  O   UNL     1      32.597 -22.674 -18.619  0.00  0.00    -0.274 OA
ATOM      2  N   UNL     1      34.822 -22.094 -19.106  0.00  0.00    -0.284 N 
ATOM      3  C   UNL     1      34.872 -19.035 -20.965  0.00  0.00    -0.027 C 
ATOM      4  C   UNL     1      34.494 -20.161 -20.259  0.00  0.00    -0.004 C 
ATOM      5  C   UNL     1      33.128 -20.643 -19.884  0.00  0.00    +0.113 C 
ATOM      6  C   UNL     1      35.450 -21.050 -19.777  0.00  0.00    +0.046 C 
ATOM      7  C   UNL     1      36.237 -18.822 -21.176  0.00  0.00    -0.005 C 
ATOM      8  C   UNL     1      33.432 -21.936 -19.118  0.00  0.00    +0.231 C 
ATOM      9  C   UNL     1      36.804 -20.864 -19.971  0.00  0.00    +0.014 C 
ATOM     10  C   UNL     1      37.195 -19.729 -20.684  0.00  0.00    +0.001 C 
ATOM     11  H   UNL     1      35.294 -22.844 -18.679  0.00  0.00    +0.155 HD
ENDROOT
BRANCH   3  12
ATOM     12  C   UNL     1      33.866 -18.069 -21.488  0.00  0.00    +0.003 C 
BRANCH  12  13
ATOM     13  C   UNL     1      34.399 -16.629 -21.504  0.00  0.00    -0.073 C 
BRANCH  13  14
ATOM     14  N   UNL     1      34.125 -15.967 -22.774  0.00  0.00    +0.387 N 
ATOM     15  H   UNL     1      33.206 -16.266 -23.100  0.00  0.00    -0.080 HD
BRANCH  14  16
ATOM     16  C   UNL     1      35.120 -16.348 -23.778  0.00  0.00    -0.077 C 
BRANCH  16  17
ATOM     17  C   UNL     1      34.432 -16.894 -25.026  0.00  0.00    -0.023 C 
ATOM     18  C   UNL     1      34.442 -18.415 -25.043  0.00  0.00    -0.002 C 
ENDBRANCH  16  17
ENDBRANCH  14  16
BRANCH  14  19
ATOM     19  C   UNL     1      34.106 -14.514 -22.604  0.00  0.00    -0.077 C 
BRANCH  19  20
ATOM     20  C   UNL     1      32.670 -14.017 -22.452  0.00  0.00    -0.023 C 
ATOM     21  C   UNL     1      32.412 -13.491 -21.048  0.00  0.00    -0.002 C 
ENDBRANCH  19  20
ENDBRANCH  14  19
ENDBRANCH  13  14
ENDBRANCH  12  13
ENDBRANCH   3  12
TORSDOF 7
ENDMDL
MODEL 3
REMARK VINA RESULT:      -8.3      3.115      7.295
REMARK  Name = 5095
REMARK  7 active torsions:
REMARK  status: ('A' for Active; 'I' for Inactive)
REMARK    1  A    between atoms: C_3  and  C_12
REMARK    2  A    between atoms: C_12  and  C_13
REMARK    3  A    between atoms: C_13  and  N_14
REMARK    4  A    between atoms: N_14  and  C_16
REMARK    5  A    between atoms: N_14  and  C_19
REMARK    6  A    between atoms: C_16  and  C_17
REMARK    7  A    between atoms: C_19  and  C_20
REMARK                            x       y       z     vdW  Elec       q    Type
REMARK                         _______ _______ _______ _____ _____    ______ ____
ROOT
ATOM      1  O   UNL     1      34.901 -17.218 -25.966  0.00  0.00    -0.274 OA
ATOM      2  N   UNL     1      35.132 -17.099 -23.629  0.00  0.00    -0.284 N 
ATOM      3  C   UNL     1      33.241 -14.324 -22.389  0.00  0.00    -0.027 C 
ATOM      4  C   UNL     1      33.842 -15.279 -23.187  0.00  0.00    -0.004 C 
ATOM      5  C   UNL     1      33.778 -15.467 -24.670  0.00  0.00    +0.113 C 
ATOM      6  C   UNL     1      34.649 -16.265 -22.626  0.00  0.00    +0.046 C 
ATOM      7  C   UNL     1      33.472 -14.381 -21.011  0.00  0.00    -0.005 C 
ATOM      8  C   UNL     1      34.664 -16.700 -24.886  0.00  0.00    +0.231 C 
ATOM      9  C   UNL     1      34.893 -16.345 -21.271  0.00  0.00    +0.014 C 
ATOM     10  C   UNL     1      34.291 -15.383 -20.457  0.00  0.00    +0.001 C 
ATOM     11  H   UNL     1      35.725 -17.869 -23.475  0.00  0.00    +0.155 HD
ENDROOT
BRANCH   3  12
ATOM     12  C   UNL     1      32.373 -13.262 -22.966  0.00  0.00    +0.003 C 
BRANCH  12  13
ATOM     13  C   UNL     1      33.184 -12.057 -23.467  0.00  0.00    -0.073 C 
BRANCH  13  14
ATOM     14  N   UNL     1      32.823 -10.833 -22.760  0.00  0.00    +0.387 N 
ATOM     15  H   UNL     1      33.495 -10.689 -22.006  0.00  0.00    -0.080 HD
BRANCH  14  16
ATOM     16  C   UNL     1      31.487 -10.952 -22.174  0.00  0.00    -0.077 C 
BRANCH  16  17
ATOM     17  C   UNL     1      31.466 -10.343 -20.774  0.00  0.00    -0.023 C 
ATOM     18  C   UNL     1      31.575 -11.417 -19.702  0.00  0.00    -0.002 C 
ENDBRANCH  16  17
ENDBRANCH  14  16
BRANCH  14  19
ATOM     19  C   UNL     1      32.882  -9.682 -23.660  0.00  0.00    -0.077 C 
BRANCH  19  20
ATOM     20  C   UNL     1      34.335  -9.313 -23.955  0.00  0.00    -0.023 C 
ATOM     21  C   UNL     1      34.641  -7.885 -23.532  0.00  0.00    -0.002 C 
ENDBRANCH  19  20
ENDBRANCH  14  19
ENDBRANCH  13  14
ENDBRANCH  12  13
ENDBRANCH   3  12
TORSDOF 7
ENDMDL
MODEL 4
REMARK VINA RESULT:      -8.1      3.156      7.225
REMARK  Name = 5095
REMARK  7 active torsions:
REMARK  status: ('A' for Active; 'I' for Inactive)
REMARK    1  A    between atoms: C_3  and  C_12
REMARK    2  A    between atoms: C_12  and  C_13
REMARK    3  A    between atoms: C_13  and  N_14
REMARK    4  A    between atoms: N_14  and  C_16
REMARK    5  A    between atoms: N_14  and  C_19
REMARK    6  A    between atoms: C_16  and  C_17
REMARK    7  A    between atoms: C_19  and  C_20
REMARK                            x       y       z     vdW  Elec       q    Type
REMARK                         _______ _______ _______ _____ _____    ______ ____
ROOT
ATOM      1  O   UNL     1      34.954 -17.127 -25.933  0.00  0.00    -0.274 OA
ATOM      2  N   UNL     1      35.159 -16.996 -23.594  0.00  0.00    -0.284 N 
ATOM      3  C   UNL     1      33.174 -14.275 -22.380  0.00  0.00    -0.027 C 
ATOM      4  C   UNL     1      33.810 -15.214 -23.169  0.00  0.00    -0.004 C 
ATOM      5  C   UNL     1      33.767 -15.407 -24.652  0.00  0.00    +0.113 C 
ATOM      6  C   UNL     1      34.642 -16.173 -22.599  0.00  0.00    +0.046 C 
ATOM      7  C   UNL     1      33.393 -14.322 -21.000  0.00  0.00    -0.005 C 
ATOM      8  C   UNL     1      34.692 -16.613 -24.857  0.00  0.00    +0.231 C 
ATOM      9  C   UNL     1      34.875 -16.243 -21.240  0.00  0.00    +0.014 C 
ATOM     10  C   UNL     1      34.236 -15.298 -20.435  0.00  0.00    +0.001 C 
ATOM     11  H   UNL     1      35.773 -17.747 -23.432  0.00  0.00    +0.155 HD
ENDROOT
BRANCH   3  12
ATOM     12  C   UNL     1      32.279 -13.241 -22.969  0.00  0.00    +0.003 C 
BRANCH  12  13
ATOM     13  C   UNL     1      32.965 -11.870 -23.070  0.00  0.00    -0.073 C 
BRANCH  13  14
ATOM     14  N   UNL     1      32.005 -10.777 -22.958  0.00  0.00    +0.387 N 
ATOM     15  H   UNL     1      31.452 -10.749 -23.815  0.00  0.00    -0.080 HD
BRANCH  14  16
ATOM     16  C   UNL     1      32.698  -9.496 -22.811  0.00  0.00    -0.077 C 
BRANCH  16  17
ATOM     17  C   UNL     1      33.931  -9.454 -23.711  0.00  0.00    -0.023 C 
ATOM     18  C   UNL     1      34.642  -8.112 -23.613  0.00  0.00    -0.002 C 
ENDBRANCH  16  17
ENDBRANCH  14  16
BRANCH  14  19
ATOM     19  C   UNL     1      31.102 -10.998 -21.829  0.00  0.00    -0.077 C 
BRANCH  19  20
ATOM     20  C   UNL     1      31.624 -10.283 -20.585  0.00  0.00    -0.023 C 
ATOM     21  C   UNL     1      31.546 -11.178 -19.358  0.00  0.00    -0.002 C 
ENDBRANCH  19  20
ENDBRANCH  14  19
ENDBRANCH  13  14
ENDBRANCH  12  13
ENDBRANCH   3  12
TORSDOF 7
ENDMDL
MODEL 5
REMARK VINA RESULT:      -8.1      1.327      2.300
REMARK  Name = 5095
REMARK  7 active torsions:
REMARK  status: ('A' for Active; 'I' for Inactive)
REMARK    1  A    between atoms: C_3  and  C_12
REMARK    2  A    between atoms: C_12  and  C_13
REMARK    3  A    between atoms: C_13  and  N_14
REMARK    4  A    between atoms: N_14  and  C_16
REMARK    5  A    between atoms: N_14  and  C_19
REMARK    6  A    between atoms: C_16  and  C_17
REMARK    7  A    between atoms: C_19  and  C_20
REMARK                            x       y       z     vdW  Elec       q    Type
REMARK                         _______ _______ _______ _____ _____    ______ ____
ROOT
ATOM      1  O   UNL     1      33.688 -15.191 -26.479  0.00  0.00    -0.274 OA
ATOM      2  N   UNL     1      32.672 -13.911 -24.789  0.00  0.00    -0.284 N 
ATOM      3  C   UNL     1      33.840 -15.026 -21.593  0.00  0.00    -0.027 C 
ATOM      4  C   UNL     1      33.611 -14.858 -22.945  0.00  0.00    -0.004 C 
ATOM      5  C   UNL     1      34.185 -15.595 -24.113  0.00  0.00    +0.113 C 
ATOM      6  C   UNL     1      32.729 -13.881 -23.399  0.00  0.00    +0.046 C 
ATOM      7  C   UNL     1      33.161 -14.187 -20.704  0.00  0.00    -0.005 C 
ATOM      8  C   UNL     1      33.510 -14.906 -25.305  0.00  0.00    +0.231 C 
ATOM      9  C   UNL     1      32.047 -13.039 -22.544  0.00  0.00    +0.014 C 
ATOM     10  C   UNL     1      32.271 -13.202 -21.176  0.00  0.00    +0.001 C 
ATOM     11  H   UNL     1      32.115 -13.312 -25.336  0.00  0.00    +0.155 HD
ENDROOT
BRANCH   3  12
ATOM     12  C   UNL     1      34.779 -16.063 -21.085  0.00  0.00    +0.003 C 
BRANCH  12  13
ATOM     13  C   UNL     1      34.235 -17.486 -21.285  0.00  0.00    -0.073 C 
BRANCH  13  14
ATOM     14  N   UNL     1      35.310 -18.451 -21.487  0.00  0.00    +0.387 N 
ATOM     15  H   UNL     1      36.096 -18.183 -20.895  0.00  0.00    -0.080 HD
BRANCH  14  16
ATOM     16  C   UNL     1      35.756 -18.440 -22.882  0.00  0.00    -0.077 C 
BRANCH  16  17
ATOM     17  C   UNL     1      34.916 -19.404 -23.714  0.00  0.00    -0.023 C 
ATOM     18  C   UNL     1      34.373 -18.728 -24.965  0.00  0.00    -0.002 C 
ENDBRANCH  16  17
ENDBRANCH  14  16
BRANCH  14  19
ATOM     19  C   UNL     1      34.876 -19.794 -21.104  0.00  0.00    -0.077 C 
BRANCH  19  20
ATOM     20  C   UNL     1      33.424 -19.766 -20.631  0.00  0.00    -0.023 C 
ATOM     21  C   UNL     1      33.098 -20.979 -19.772  0.00  0.00    -0.002 C 
ENDBRANCH  19  20
ENDBRANCH  14  19
ENDBRANCH  13  14
ENDBRANCH  12  13
ENDBRANCH   3  12
TORSDOF 7
ENDMDL
MODEL 6
REMARK VINA RESULT:      -8.0      1.344      2.245
REMARK  Name = 5095
REMARK  7 active torsions:
REMARK  status: ('A' for Active; 'I' for Inactive)
REMARK    1  A    between atoms: C_3  and  C_12
REMARK    2  A    between atoms: C_12  and  C_13
REMARK    3  A    between atoms: C_13  and  N_14
REMARK    4  A    between atoms: N_14  and  C_16
REMARK    5  A    between atoms: N_14  and  C_19
REMARK    6  A    between atoms: C_16  and  C_17
REMARK    7  A    between atoms: C_19  and  C_20
REMARK                            x       y       z     vdW  Elec       q    Type
REMARK                         _______ _______ _______ _____ _____    ______ ____
ROOT
ATOM      1  O   UNL     1      33.593 -15.137 -26.677  0.00  0.00    -0.274 OA
ATOM      2  N   UNL     1      32.694 -13.856 -24.923  0.00  0.00    -0.284 N 
ATOM      3  C   UNL     1      33.773 -15.211 -21.790  0.00  0.00    -0.027 C 
ATOM      4  C   UNL     1      33.555 -14.962 -23.131  0.00  0.00    -0.004 C 
ATOM      5  C   UNL     1      34.061 -15.691 -24.336  0.00  0.00    +0.113 C 
ATOM      6  C   UNL     1      32.758 -13.894 -23.534  0.00  0.00    +0.046 C 
ATOM      7  C   UNL     1      33.170 -14.359 -20.859  0.00  0.00    -0.005 C 
ATOM      8  C   UNL     1      33.443 -14.893 -25.491  0.00  0.00    +0.231 C 
ATOM      9  C   UNL     1      32.152 -13.038 -22.637  0.00  0.00    +0.014 C 
ATOM     10  C   UNL     1      32.366 -13.282 -21.279  0.00  0.00    +0.001 C 
ATOM     11  H   UNL     1      32.189 -13.187 -25.439  0.00  0.00    +0.155 HD
ENDROOT
BRANCH   3  12
ATOM     12  C   UNL     1      34.623 -16.346 -21.337  0.00  0.00    +0.003 C 
BRANCH  12  13
ATOM     13  C   UNL     1      33.801 -17.617 -21.074  0.00  0.00    -0.073 C 
BRANCH  13  14
ATOM     14  N   UNL     1      34.334 -18.764 -21.801  0.00  0.00    +0.387 N 
ATOM     15  H   UNL     1      33.655 -19.035 -22.512  0.00  0.00    -0.080 HD
BRANCH  14  16
ATOM     16  C   UNL     1      34.536 -19.897 -20.897  0.00  0.00    -0.077 C 
BRANCH  16  17
ATOM     17  C   UNL     1      33.203 -20.345 -20.302  0.00  0.00    -0.023 C 
ATOM     18  C   UNL     1      33.385 -21.535 -19.370  0.00  0.00    -0.002 C 
ENDBRANCH  16  17
ENDBRANCH  14  16
BRANCH  14  19
ATOM     19  C   UNL     1      35.589 -18.414 -22.465  0.00  0.00    -0.077 C 
BRANCH  19  20
ATOM     20  C   UNL     1      35.684 -19.112 -23.820  0.00  0.00    -0.023 C 
ATOM     21  C   UNL     1      34.372 -19.016 -24.585  0.00  0.00    -0.002 C 
ENDBRANCH  19  20
ENDBRANCH  14  19
ENDBRANCH  13  14
ENDBRANCH  12  13
ENDBRANCH   3  12
TORSDOF 7
ENDMDL
MODEL 7
REMARK VINA RESULT:      -8.0      2.374      3.655
REMARK  Name = 5095
REMARK  7 active torsions:
REMARK  status: ('A' for Active; 'I' for Inactive)
REMARK    1  A    between atoms: C_3  and  C_12
REMARK    2  A    between atoms: C_12  and  C_13
REMARK    3  A    between atoms: C_13  and  N_14
REMARK    4  A    between atoms: N_14  and  C_16
REMARK    5  A    between atoms: N_14  and  C_19
REMARK    6  A    between atoms: C_16  and  C_17
REMARK    7  A    between atoms: C_19  and  C_20
REMARK                            x       y       z     vdW  Elec       q    Type
REMARK                         _______ _______ _______ _____ _____    ______ ____
ROOT
ATOM      1  O   UNL     1      31.175 -11.706 -20.171  0.00  0.00    -0.274 OA
ATOM      2  N   UNL     1      31.745 -12.369 -22.354  0.00  0.00    -0.284 N 
ATOM      3  C   UNL     1      33.890 -15.231 -22.204  0.00  0.00    -0.027 C 
ATOM      4  C   UNL     1      33.075 -14.158 -21.900  0.00  0.00    -0.004 C 
ATOM      5  C   UNL     1      32.636 -13.634 -20.569  0.00  0.00    +0.113 C 
ATOM      6  C   UNL     1      32.523 -13.378 -22.912  0.00  0.00    +0.046 C 
ATOM      7  C   UNL     1      34.140 -15.503 -23.552  0.00  0.00    -0.005 C 
ATOM      8  C   UNL     1      31.754 -12.441 -20.956  0.00  0.00    +0.231 C 
ATOM      9  C   UNL     1      32.752 -13.625 -24.250  0.00  0.00    +0.014 C 
ATOM     10  C   UNL     1      33.576 -14.707 -24.567  0.00  0.00    +0.001 C 
ATOM     11  H   UNL     1      31.255 -11.692 -22.873  0.00  0.00    +0.155 HD
ENDROOT
BRANCH   3  12
ATOM     12  C   UNL     1      34.490 -16.079 -21.137  0.00  0.00    +0.003 C 
BRANCH  12  13
ATOM     13  C   UNL     1      34.129 -17.563 -21.306  0.00  0.00    -0.073 C 
BRANCH  13  14
ATOM     14  N   UNL     1      35.319 -18.395 -21.446  0.00  0.00    +0.387 N 
ATOM     15  H   UNL     1      36.061 -17.991 -20.873  0.00  0.00    -0.080 HD
BRANCH  14  16
ATOM     16  C   UNL     1      35.769 -18.419 -22.839  0.00  0.00    -0.077 C 
BRANCH  16  17
ATOM     17  C   UNL     1      34.862 -19.318 -23.674  0.00  0.00    -0.023 C 
ATOM     18  C   UNL     1      34.463 -18.644 -24.978  0.00  0.00    -0.002 C 
ENDBRANCH  16  17
ENDBRANCH  14  16
BRANCH  14  19
ATOM     19  C   UNL     1      35.056 -19.754 -20.974  0.00  0.00    -0.077 C 
BRANCH  19  20
ATOM     20  C   UNL     1      33.584 -19.909 -20.599  0.00  0.00    -0.023 C 
ATOM     21  C   UNL     1      33.363 -21.127 -19.714  0.00  0.00    -0.002 C 
ENDBRANCH  19  20
ENDBRANCH  14  19
ENDBRANCH  13  14
ENDBRANCH  12  13
ENDBRANCH   3  12
TORSDOF 7
ENDMDL
MODEL 8
REMARK VINA RESULT:      -8.0      2.837      6.953
REMARK  Name = 5095
REMARK  7 active torsions:
REMARK  status: ('A' for Active; 'I' for Inactive)
REMARK    1  A    between atoms: C_3  and  C_12
REMARK    2  A    between atoms: C_12  and  C_13
REMARK    3  A    between atoms: C_13  and  N_14
REMARK    4  A    between atoms: N_14  and  C_16
REMARK    5  A    between atoms: N_14  and  C_19
REMARK    6  A    between atoms: C_16  and  C_17
REMARK    7  A    between atoms: C_19  and  C_20
REMARK                            x       y       z     vdW  Elec       q    Type
REMARK                         _______ _______ _______ _____ _____    ______ ____
ROOT
ATOM      1  O   UNL     1      36.074 -19.461 -20.317  0.00  0.00    -0.274 OA
ATOM      2  N   UNL     1      35.341 -19.388 -22.550  0.00  0.00    -0.284 N 
ATOM      3  C   UNL     1      34.515 -16.015 -23.419  0.00  0.00    -0.027 C 
ATOM      4  C   UNL     1      34.912 -17.165 -22.763  0.00  0.00    -0.004 C 
ATOM      5  C   UNL     1      35.395 -17.348 -21.359  0.00  0.00    +0.113 C 
ATOM      6  C   UNL     1      34.900 -18.394 -23.416  0.00  0.00    +0.046 C 
ATOM      7  C   UNL     1      34.104 -16.130 -24.750  0.00  0.00    -0.005 C 
ATOM      8  C   UNL     1      35.660 -18.858 -21.294  0.00  0.00    +0.231 C 
ATOM      9  C   UNL     1      34.500 -18.535 -24.729  0.00  0.00    +0.014 C 
ATOM     10  C   UNL     1      34.096 -17.379 -25.400  0.00  0.00    +0.001 C 
ATOM     11  H   UNL     1      35.418 -20.340 -22.787  0.00  0.00    +0.155 HD
ENDROOT
BRANCH   3  12
ATOM     12  C   UNL     1      34.521 -14.690 -22.741  0.00  0.00    +0.003 C 
BRANCH  12  13
ATOM     13  C   UNL     1      33.116 -14.264 -22.287  0.00  0.00    -0.073 C 
BRANCH  13  14
ATOM     14  N   UNL     1      32.608 -13.152 -23.082  0.00  0.00    +0.387 N 
ATOM     15  H   UNL     1      31.962 -13.524 -23.778  0.00  0.00    -0.080 HD
BRANCH  14  16
ATOM     16  C   UNL     1      33.702 -12.475 -23.780  0.00  0.00    -0.077 C 
BRANCH  16  17
ATOM     17  C   UNL     1      33.418 -10.979 -23.886  0.00  0.00    -0.023 C 
ATOM     18  C   UNL     1      34.617 -10.227 -24.446  0.00  0.00    -0.002 C 
ENDBRANCH  16  17
ENDBRANCH  14  16
BRANCH  14  19
ATOM     19  C   UNL     1      31.882 -12.204 -22.236  0.00  0.00    -0.077 C 
BRANCH  19  20
ATOM     20  C   UNL     1      31.946 -12.642 -20.774  0.00  0.00    -0.023 C 
ATOM     21  C   UNL     1      31.587 -11.499 -19.837  0.00  0.00    -0.002 C 
ENDBRANCH  19  20
ENDBRANCH  14  19
ENDBRANCH  13  14
ENDBRANCH  12  13
ENDBRANCH   3  12
TORSDOF 7
ENDMDL
MODEL 9
REMARK VINA RESULT:      -7.9      3.291      6.817
REMARK  Name = 5095
REMARK  7 active torsions:
REMARK  status: ('A' for Active; 'I' for Inactive)
REMARK    1  A    between atoms: C_3  and  C_12
REMARK    2  A    between atoms: C_12  and  C_13
REMARK    3  A    between atoms: C_13  and  N_14
REMARK    4  A    between atoms: N_14  and  C_16
REMARK    5  A    between atoms: N_14  and  C_19
REMARK    6  A    between atoms: C_16  and  C_17
REMARK    7  A    between atoms: C_19  and  C_20
REMARK                            x       y       z     vdW  Elec       q    Type
REMARK                         _______ _______ _______ _____ _____    ______ ____
ROOT
ATOM      1  O   UNL     1      37.193 -22.330 -17.672  0.00  0.00    -0.274 OA
ATOM      2  N   UNL     1      34.989 -22.103 -18.458  0.00  0.00    -0.284 N 
ATOM      3  C   UNL     1      34.893 -19.600 -21.016  0.00  0.00    -0.027 C 
ATOM      4  C   UNL     1      35.283 -20.481 -20.025  0.00  0.00    -0.004 C 
ATOM      5  C   UNL     1      36.637 -20.723 -19.438  0.00  0.00    +0.113 C 
ATOM      6  C   UNL     1      34.353 -21.317 -19.414  0.00  0.00    +0.046 C 
ATOM      7  C   UNL     1      33.543 -19.578 -21.379  0.00  0.00    -0.005 C 
ATOM      8  C   UNL     1      36.358 -21.818 -18.400  0.00  0.00    +0.231 C 
ATOM      9  C   UNL     1      33.016 -21.316 -19.753  0.00  0.00    +0.014 C 
ATOM     10  C   UNL     1      32.612 -20.429 -20.753  0.00  0.00    +0.001 C 
ATOM     11  H   UNL     1      34.535 -22.771 -17.896  0.00  0.00    +0.155 HD
ENDROOT
BRANCH   3  12
ATOM     12  C   UNL     1      35.870 -18.698 -21.685  0.00  0.00    +0.003 C 
BRANCH  12  13
ATOM     13  C   UNL     1      35.452 -17.222 -21.595  0.00  0.00    -0.073 C 
BRANCH  13  14
ATOM     14  N   UNL     1      34.568 -16.844 -22.692  0.00  0.00    +0.387 N 
ATOM     15  H   UNL     1      33.887 -17.591 -22.825  0.00  0.00    -0.080 HD
BRANCH  14  16
ATOM     16  C   UNL     1      35.328 -16.683 -23.933  0.00  0.00    -0.077 C 
BRANCH  16  17
ATOM     17  C   UNL     1      34.546 -17.257 -25.112  0.00  0.00    -0.023 C 
ATOM     18  C   UNL     1      34.277 -18.743 -24.926  0.00  0.00    -0.002 C 
ENDBRANCH  16  17
ENDBRANCH  14  16
BRANCH  14  19
ATOM     19  C   UNL     1      33.849 -15.611 -22.373  0.00  0.00    -0.077 C 
BRANCH  19  20
ATOM     20  C   UNL     1      33.336 -15.654 -20.935  0.00  0.00    -0.023 C 
ATOM     21  C   UNL     1      32.690 -14.335 -20.538  0.00  0.00    -0.002 C 
ENDBRANCH  19  20
ENDBRANCH  14  19
ENDBRANCH  13  14
ENDBRANCH  12  13
ENDBRANCH   3  12
TORSDOF 7
ENDMDL
