MODEL 1
REMARK VINA RESULT:      -6.5      0.000      0.000
REMARK  Name = 7191874
REMARK  5 active torsions:
REMARK  status: ('A' for Active; 'I' for Inactive)
REMARK    1  A    between atoms: C_3  and  O_8
REMARK    2  A    between atoms: C_4  and  O_10
REMARK    3  A    between atoms: C_5  and  C_14
REMARK    4  A    between atoms: C_7  and  O_12
REMARK    5  A    between atoms: C_14  and  O_15
REMARK                            x       y       z     vdW  Elec       q    Type
REMARK                         _______ _______ _______ _____ _____    ______ ____
ROOT
ATOM      1  F   UNL     1      35.748 -23.236 -12.971  0.00  0.00    -0.229 F 
ATOM      2  O   UNL     1      39.194 -24.287 -12.890  0.00  0.00    -0.326 OA
ATOM      3  C   UNL     1      38.264 -24.964 -15.032  0.00  0.00    +0.170 C 
ATOM      4  C   UNL     1      36.881 -24.500 -14.580  0.00  0.00    +0.177 C 
ATOM      5  C   UNL     1      39.095 -25.380 -13.813  0.00  0.00    +0.176 C 
ATOM      6  C   UNL     1      36.988 -23.425 -13.505  0.00  0.00    +0.246 C 
ATOM      7  C   UNL     1      37.929 -23.862 -12.384  0.00  0.00    +0.268 C 
ENDROOT
BRANCH   3   8
ATOM      8  O   UNL     1      38.932 -23.896 -15.707  0.00  0.00    -0.379 OA
ATOM      9  H   UNL     1      39.718 -23.635 -15.200  0.00  0.00    +0.211 HD
ENDBRANCH   3   8
BRANCH   4  10
ATOM     10  O   UNL     1      36.163 -23.995 -15.701  0.00  0.00    -0.379 OA
ATOM     11  H   UNL     1      35.567 -23.287 -15.411  0.00  0.00    +0.211 HD
ENDBRANCH   4  10
BRANCH   7  12
ATOM     12  O   UNL     1      38.112 -22.787 -11.462  0.00  0.00    -0.358 OA
ATOM     13  H   UNL     1      38.202 -23.143 -10.565  0.00  0.00    +0.213 HD
ENDBRANCH   7  12
BRANCH   5  14
ATOM     14  C   UNL     1      40.514 -25.787 -14.190  0.00  0.00    +0.169 C 
BRANCH  14  15
ATOM     15  O   UNL     1      40.532 -26.148 -15.560  0.00  0.00    -0.379 OA
ATOM     16  H   UNL     1      39.679 -25.925 -15.963  0.00  0.00    +0.211 HD
ENDBRANCH  14  15
ENDBRANCH   5  14
TORSDOF 5
ENDMDL
MODEL 2
REMARK VINA RESULT:      -6.3      1.987      2.381
REMARK  Name = 7191874
REMARK  5 active torsions:
REMARK  status: ('A' for Active; 'I' for Inactive)
REMARK    1  A    between atoms: C_3  and  O_8
REMARK    2  A    between atoms: C_4  and  O_10
REMARK    3  A    between atoms: C_5  and  C_14
REMARK    4  A    between atoms: C_7  and  O_12
REMARK    5  A    between atoms: C_14  and  O_15
REMARK                            x       y       z     vdW  Elec       q    Type
REMARK                         _______ _______ _______ _____ _____    ______ ____
ROOT
ATOM      1  F   UNL     1      35.284 -22.944 -15.096  0.00  0.00    -0.229 F 
ATOM      2  O   UNL     1      38.740 -23.894 -15.467  0.00  0.00    -0.326 OA
ATOM      3  C   UNL     1      37.543 -25.801 -14.552  0.00  0.00    +0.170 C 
ATOM      4  C   UNL     1      36.281 -24.951 -14.426  0.00  0.00    +0.177 C 
ATOM      5  C   UNL     1      38.783 -24.905 -14.453  0.00  0.00    +0.176 C 
ATOM      6  C   UNL     1      36.296 -23.798 -15.423  0.00  0.00    +0.246 C 
ATOM      7  C   UNL     1      37.612 -23.027 -15.351  0.00  0.00    +0.268 C 
ENDROOT
BRANCH   3   8
ATOM      8  O   UNL     1      37.551 -26.466 -15.817  0.00  0.00    -0.379 OA
ATOM      9  H   UNL     1      36.637 -26.602 -16.116  0.00  0.00    +0.211 HD
ENDBRANCH   3   8
BRANCH   4  10
ATOM     10  O   UNL     1      35.137 -25.769 -14.648  0.00  0.00    -0.379 OA
ATOM     11  H   UNL     1      34.601 -25.803 -13.840  0.00  0.00    +0.211 HD
ENDBRANCH   4  10
BRANCH   7  12
ATOM     12  O   UNL     1      37.650 -22.040 -16.381  0.00  0.00    -0.358 OA
ATOM     13  H   UNL     1      38.352 -21.399 -16.189  0.00  0.00    +0.213 HD
ENDBRANCH   7  12
BRANCH   5  14
ATOM     14  C   UNL     1      40.078 -25.685 -14.643  0.00  0.00    +0.169 C 
BRANCH  14  15
ATOM     15  O   UNL     1      40.319 -25.831 -16.031  0.00  0.00    -0.379 OA
ATOM     16  H   UNL     1      40.598 -26.741 -16.216  0.00  0.00    +0.211 HD
ENDBRANCH  14  15
ENDBRANCH   5  14
TORSDOF 5
ENDMDL
MODEL 3
REMARK VINA RESULT:      -6.1     10.247     11.258
REMARK  Name = 7191874
REMARK  5 active torsions:
REMARK  status: ('A' for Active; 'I' for Inactive)
REMARK    1  A    between atoms: C_3  and  O_8
REMARK    2  A    between atoms: C_4  and  O_10
REMARK    3  A    between atoms: C_5  and  C_14
REMARK    4  A    between atoms: C_7  and  O_12
REMARK    5  A    between atoms: C_14  and  O_15
REMARK                            x       y       z     vdW  Elec       q    Type
REMARK                         _______ _______ _______ _____ _____    ______ ____
ROOT
ATOM      1  F   UNL     1      34.208 -14.826 -22.963  0.00  0.00    -0.229 F 
ATOM      2  O   UNL     1      35.117 -17.455 -20.671  0.00  0.00    -0.326 OA
ATOM      3  C   UNL     1      35.272 -18.352 -22.925  0.00  0.00    +0.170 C 
ATOM      4  C   UNL     1      34.691 -17.054 -23.483  0.00  0.00    +0.177 C 
ATOM      5  C   UNL     1      34.766 -18.573 -21.495  0.00  0.00    +0.176 C 
ATOM      6  C   UNL     1      34.956 -15.886 -22.542  0.00  0.00    +0.246 C 
ATOM      7  C   UNL     1      34.538 -16.226 -21.112  0.00  0.00    +0.268 C 
ENDROOT
BRANCH   3   8
ATOM      8  O   UNL     1      36.699 -18.269 -22.904  0.00  0.00    -0.379 OA
ATOM      9  H   UNL     1      37.076 -19.129 -23.149  0.00  0.00    +0.211 HD
ENDBRANCH   3   8
BRANCH   4  10
ATOM     10  O   UNL     1      35.266 -16.790 -24.758  0.00  0.00    -0.379 OA
ATOM     11  H   UNL     1      36.226 -16.682 -24.664  0.00  0.00    +0.211 HD
ENDBRANCH   4  10
BRANCH   7  12
ATOM     12  O   UNL     1      34.918 -15.167 -20.234  0.00  0.00    -0.358 OA
ATOM     13  H   UNL     1      34.536 -14.333 -20.549  0.00  0.00    +0.213 HD
ENDBRANCH   7  12
BRANCH   5  14
ATOM     14  C   UNL     1      35.367 -19.817 -20.853  0.00  0.00    +0.169 C 
BRANCH  14  15
ATOM     15  O   UNL     1      36.580 -19.456 -20.216  0.00  0.00    -0.379 OA
ATOM     16  H   UNL     1      36.535 -18.528 -19.939  0.00  0.00    +0.211 HD
ENDBRANCH  14  15
ENDBRANCH   5  14
TORSDOF 5
ENDMDL
MODEL 4
REMARK VINA RESULT:      -6.0      2.033      3.154
REMARK  Name = 7191874
REMARK  5 active torsions:
REMARK  status: ('A' for Active; 'I' for Inactive)
REMARK    1  A    between atoms: C_3  and  O_8
REMARK    2  A    between atoms: C_4  and  O_10
REMARK    3  A    between atoms: C_5  and  C_14
REMARK    4  A    between atoms: C_7  and  O_12
REMARK    5  A    between atoms: C_14  and  O_15
REMARK                            x       y       z     vdW  Elec       q    Type
REMARK                         _______ _______ _______ _____ _____    ______ ____
ROOT
ATOM      1  F   UNL     1      34.115 -23.588 -13.700  0.00  0.00    -0.229 F 
ATOM      2  O   UNL     1      37.267 -24.879 -14.878  0.00  0.00    -0.326 OA
ATOM      3  C   UNL     1      37.132 -25.321 -12.492  0.00  0.00    +0.170 C 
ATOM      4  C   UNL     1      35.831 -24.525 -12.416  0.00  0.00    +0.177 C 
ATOM      5  C   UNL     1      37.994 -24.796 -13.646  0.00  0.00    +0.176 C 
ATOM      6  C   UNL     1      35.120 -24.507 -13.764  0.00  0.00    +0.246 C 
ATOM      7  C   UNL     1      36.075 -24.093 -14.882  0.00  0.00    +0.268 C 
ENDROOT
BRANCH   3   8
ATOM      8  O   UNL     1      36.839 -26.701 -12.722  0.00  0.00    -0.379 OA
ATOM      9  H   UNL     1      37.647 -27.161 -13.001  0.00  0.00    +0.211 HD
ENDBRANCH   3   8
BRANCH   4  10
ATOM     10  O   UNL     1      34.983 -25.101 -11.428  0.00  0.00    -0.379 OA
ATOM     11  H   UNL     1      34.848 -24.466 -10.707  0.00  0.00    +0.211 HD
ENDBRANCH   4  10
BRANCH   7  12
ATOM     12  O   UNL     1      35.419 -24.212 -16.144  0.00  0.00    -0.358 OA
ATOM     13  H   UNL     1      35.429 -25.140 -16.428  0.00  0.00    +0.213 HD
ENDBRANCH   7  12
BRANCH   5  14
ATOM     14  C   UNL     1      39.278 -25.597 -13.821  0.00  0.00    +0.169 C 
BRANCH  14  15
ATOM     15  O   UNL     1      39.010 -26.703 -14.665  0.00  0.00    -0.379 OA
ATOM     16  H   UNL     1      38.407 -26.429 -15.373  0.00  0.00    +0.211 HD
ENDBRANCH  14  15
ENDBRANCH   5  14
TORSDOF 5
ENDMDL
MODEL 5
REMARK VINA RESULT:      -6.0      1.962      2.358
REMARK  Name = 7191874
REMARK  5 active torsions:
REMARK  status: ('A' for Active; 'I' for Inactive)
REMARK    1  A    between atoms: C_3  and  O_8
REMARK    2  A    between atoms: C_4  and  O_10
REMARK    3  A    between atoms: C_5  and  C_14
REMARK    4  A    between atoms: C_7  and  O_12
REMARK    5  A    between atoms: C_14  and  O_15
REMARK                            x       y       z     vdW  Elec       q    Type
REMARK                         _______ _______ _______ _____ _____    ______ ____
ROOT
ATOM      1  F   UNL     1      36.414 -23.584 -10.422  0.00  0.00    -0.229 F 
ATOM      2  O   UNL     1      38.517 -24.302 -13.259  0.00  0.00    -0.326 OA
ATOM      3  C   UNL     1      36.426 -25.503 -13.565  0.00  0.00    +0.170 C 
ATOM      4  C   UNL     1      35.970 -25.068 -12.174  0.00  0.00    +0.177 C 
ATOM      5  C   UNL     1      37.956 -25.573 -13.611  0.00  0.00    +0.176 C 
ATOM      6  C   UNL     1      36.664 -23.781 -11.748  0.00  0.00    +0.246 C 
ATOM      7  C   UNL     1      38.177 -23.883 -11.937  0.00  0.00    +0.268 C 
ENDROOT
BRANCH   3   8
ATOM      8  O   UNL     1      35.976 -24.555 -14.536  0.00  0.00    -0.379 OA
ATOM      9  H   UNL     1      35.570 -25.024 -15.283  0.00  0.00    +0.211 HD
ENDBRANCH   3   8
BRANCH   4  10
ATOM     10  O   UNL     1      34.559 -24.880 -12.178  0.00  0.00    -0.379 OA
ATOM     11  H   UNL     1      34.276 -24.568 -13.052  0.00  0.00    +0.211 HD
ENDBRANCH   4  10
BRANCH   7  12
ATOM     12  O   UNL     1      38.785 -22.623 -11.655  0.00  0.00    -0.358 OA
ATOM     13  H   UNL     1      38.104 -21.992 -11.374  0.00  0.00    +0.213 HD
ENDBRANCH   7  12
BRANCH   5  14
ATOM     14  C   UNL     1      38.479 -25.933 -14.996  0.00  0.00    +0.169 C 
BRANCH  14  15
ATOM     15  O   UNL     1      37.446 -26.581 -15.716  0.00  0.00    -0.379 OA
ATOM     16  H   UNL     1      37.499 -27.538 -15.566  0.00  0.00    +0.211 HD
ENDBRANCH  14  15
ENDBRANCH   5  14
TORSDOF 5
ENDMDL
MODEL 6
REMARK VINA RESULT:      -5.9      2.002      3.738
REMARK  Name = 7191874
REMARK  5 active torsions:
REMARK  status: ('A' for Active; 'I' for Inactive)
REMARK    1  A    between atoms: C_3  and  O_8
REMARK    2  A    between atoms: C_4  and  O_10
REMARK    3  A    between atoms: C_5  and  C_14
REMARK    4  A    between atoms: C_7  and  O_12
REMARK    5  A    between atoms: C_14  and  O_15
REMARK                            x       y       z     vdW  Elec       q    Type
REMARK                         _______ _______ _______ _____ _____    ______ ____
ROOT
ATOM      1  F   UNL     1      36.154 -26.938 -15.697  0.00  0.00    -0.229 F 
ATOM      2  O   UNL     1      36.235 -23.796 -13.933  0.00  0.00    -0.326 OA
ATOM      3  C   UNL     1      38.152 -25.102 -13.206  0.00  0.00    +0.170 C 
ATOM      4  C   UNL     1      37.649 -26.295 -14.018  0.00  0.00    +0.177 C 
ATOM      5  C   UNL     1      36.966 -24.229 -12.779  0.00  0.00    +0.176 C 
ATOM      6  C   UNL     1      36.767 -25.838 -15.173  0.00  0.00    +0.246 C 
ATOM      7  C   UNL     1      35.684 -24.874 -14.689  0.00  0.00    +0.268 C 
ENDROOT
BRANCH   3   8
ATOM      8  O   UNL     1      39.042 -24.318 -14.004  0.00  0.00    -0.379 OA
ATOM      9  H   UNL     1      39.237 -24.791 -14.830  0.00  0.00    +0.211 HD
ENDBRANCH   3   8
BRANCH   4  10
ATOM     10  O   UNL     1      38.763 -27.027 -14.518  0.00  0.00    -0.379 OA
ATOM     11  H   UNL     1      39.131 -27.580 -13.811  0.00  0.00    +0.211 HD
ENDBRANCH   4  10
BRANCH   7  12
ATOM     12  O   UNL     1      34.959 -24.364 -15.807  0.00  0.00    -0.358 OA
ATOM     13  H   UNL     1      34.606 -25.102 -16.328  0.00  0.00    +0.213 HD
ENDBRANCH   7  12
BRANCH   5  14
ATOM     14  C   UNL     1      37.407 -22.981 -12.025  0.00  0.00    +0.169 C 
BRANCH  14  15
ATOM     15  O   UNL     1      38.739 -23.169 -11.579  0.00  0.00    -0.379 OA
ATOM     16  H   UNL     1      38.767 -23.906 -10.949  0.00  0.00    +0.211 HD
ENDBRANCH  14  15
ENDBRANCH   5  14
TORSDOF 5
ENDMDL
MODEL 7
REMARK VINA RESULT:      -5.9      2.501      4.264
REMARK  Name = 7191874
REMARK  5 active torsions:
REMARK  status: ('A' for Active; 'I' for Inactive)
REMARK    1  A    between atoms: C_3  and  O_8
REMARK    2  A    between atoms: C_4  and  O_10
REMARK    3  A    between atoms: C_5  and  C_14
REMARK    4  A    between atoms: C_7  and  O_12
REMARK    5  A    between atoms: C_14  and  O_15
REMARK                            x       y       z     vdW  Elec       q    Type
REMARK                         _______ _______ _______ _____ _____    ______ ____
ROOT
ATOM      1  F   UNL     1      37.028 -27.432 -13.262  0.00  0.00    -0.229 F 
ATOM      2  O   UNL     1      36.188 -24.933 -15.720  0.00  0.00    -0.326 OA
ATOM      3  C   UNL     1      36.492 -23.803 -13.589  0.00  0.00    +0.170 C 
ATOM      4  C   UNL     1      36.653 -25.153 -12.894  0.00  0.00    +0.177 C 
ATOM      5  C   UNL     1      35.613 -23.963 -14.835  0.00  0.00    +0.176 C 
ATOM      6  C   UNL     1      37.144 -26.216 -13.869  0.00  0.00    +0.246 C 
ATOM      7  C   UNL     1      36.295 -26.232 -15.138  0.00  0.00    +0.268 C 
ENDROOT
BRANCH   3   8
ATOM      8  O   UNL     1      37.774 -23.311 -13.986  0.00  0.00    -0.379 OA
ATOM      9  H   UNL     1      38.038 -23.732 -14.820  0.00  0.00    +0.211 HD
ENDBRANCH   3   8
BRANCH   4  10
ATOM     10  O   UNL     1      37.572 -25.021 -11.815  0.00  0.00    -0.379 OA
ATOM     11  H   UNL     1      38.438 -25.368 -12.084  0.00  0.00    +0.211 HD
ENDBRANCH   4  10
BRANCH   7  12
ATOM     12  O   UNL     1      36.857 -27.143 -16.082  0.00  0.00    -0.358 OA
ATOM     13  H   UNL     1      37.813 -26.993 -16.147  0.00  0.00    +0.213 HD
ENDBRANCH   7  12
BRANCH   5  14
ATOM     14  C   UNL     1      35.472 -22.663 -15.616  0.00  0.00    +0.169 C 
BRANCH  14  15
ATOM     15  O   UNL     1      36.365 -22.696 -16.715  0.00  0.00    -0.379 OA
ATOM     16  H   UNL     1      36.005 -23.271 -17.407  0.00  0.00    +0.211 HD
ENDBRANCH  14  15
ENDBRANCH   5  14
TORSDOF 5
ENDMDL
MODEL 8
REMARK VINA RESULT:      -5.7     12.343     13.499
REMARK  Name = 7191874
REMARK  5 active torsions:
REMARK  status: ('A' for Active; 'I' for Inactive)
REMARK    1  A    between atoms: C_3  and  O_8
REMARK    2  A    between atoms: C_4  and  O_10
REMARK    3  A    between atoms: C_5  and  C_14
REMARK    4  A    between atoms: C_7  and  O_12
REMARK    5  A    between atoms: C_14  and  O_15
REMARK                            x       y       z     vdW  Elec       q    Type
REMARK                         _______ _______ _______ _____ _____    ______ ____
ROOT
ATOM      1  F   UNL     1      32.587 -14.542 -19.978  0.00  0.00    -0.229 F 
ATOM      2  O   UNL     1      34.855 -16.064 -22.328  0.00  0.00    -0.326 OA
ATOM      3  C   UNL     1      33.304 -14.679 -23.587  0.00  0.00    +0.170 C 
ATOM      4  C   UNL     1      32.513 -14.401 -22.311  0.00  0.00    +0.177 C 
ATOM      5  C   UNL     1      34.001 -16.040 -23.479  0.00  0.00    +0.176 C 
ATOM      6  C   UNL     1      33.394 -14.552 -21.077  0.00  0.00    +0.246 C 
ATOM      7  C   UNL     1      34.150 -15.879 -21.101  0.00  0.00    +0.268 C 
ENDROOT
BRANCH   3   8
ATOM      8  O   UNL     1      34.294 -13.664 -23.770  0.00  0.00    -0.379 OA
ATOM      9  H   UNL     1      34.904 -13.930 -24.476  0.00  0.00    +0.211 HD
ENDBRANCH   3   8
BRANCH   4  10
ATOM     10  O   UNL     1      31.976 -13.084 -22.366  0.00  0.00    -0.379 OA
ATOM     11  H   UNL     1      31.018 -13.130 -22.516  0.00  0.00    +0.211 HD
ENDBRANCH   4  10
BRANCH   7  12
ATOM     12  O   UNL     1      35.062 -15.934 -20.004  0.00  0.00    -0.358 OA
ATOM     13  H   UNL     1      34.999 -16.800 -19.574  0.00  0.00    +0.213 HD
ENDBRANCH   7  12
BRANCH   5  14
ATOM     14  C   UNL     1      34.868 -16.345 -24.695  0.00  0.00    +0.169 C 
BRANCH  14  15
ATOM     15  O   UNL     1      34.133 -16.032 -25.865  0.00  0.00    -0.379 OA
ATOM     16  H   UNL     1      33.438 -16.695 -25.996  0.00  0.00    +0.211 HD
ENDBRANCH  14  15
ENDBRANCH   5  14
TORSDOF 5
ENDMDL
MODEL 9
REMARK VINA RESULT:      -5.7      2.492      4.037
REMARK  Name = 7191874
REMARK  5 active torsions:
REMARK  status: ('A' for Active; 'I' for Inactive)
REMARK    1  A    between atoms: C_3  and  O_8
REMARK    2  A    between atoms: C_4  and  O_10
REMARK    3  A    between atoms: C_5  and  C_14
REMARK    4  A    between atoms: C_7  and  O_12
REMARK    5  A    between atoms: C_14  and  O_15
REMARK                            x       y       z     vdW  Elec       q    Type
REMARK                         _______ _______ _______ _____ _____    ______ ____
ROOT
ATOM      1  F   UNL     1      33.803 -24.377 -15.589  0.00  0.00    -0.229 F 
ATOM      2  O   UNL     1      36.838 -25.279 -13.868  0.00  0.00    -0.326 OA
ATOM      3  C   UNL     1      35.531 -23.875 -12.375  0.00  0.00    +0.170 C 
ATOM      4  C   UNL     1      34.517 -23.629 -13.492  0.00  0.00    +0.177 C 
ATOM      5  C   UNL     1      36.910 -24.155 -12.981  0.00  0.00    +0.176 C 
ATOM      6  C   UNL     1      34.531 -24.768 -14.504  0.00  0.00    +0.246 C 
ATOM      7  C   UNL     1      35.955 -25.071 -14.969  0.00  0.00    +0.268 C 
ENDROOT
BRANCH   3   8
ATOM      8  O   UNL     1      35.126 -25.005 -11.599  0.00  0.00    -0.379 OA
ATOM      9  H   UNL     1      34.342 -24.773 -11.075  0.00  0.00    +0.211 HD
ENDBRANCH   3   8
BRANCH   4  10
ATOM     10  O   UNL     1      33.217 -23.499 -12.927  0.00  0.00    -0.379 OA
ATOM     11  H   UNL     1      33.214 -22.772 -12.284  0.00  0.00    +0.211 HD
ENDBRANCH   4  10
BRANCH   7  12
ATOM     12  O   UNL     1      35.951 -26.222 -15.813  0.00  0.00    -0.358 OA
ATOM     13  H   UNL     1      35.593 -26.980 -15.325  0.00  0.00    +0.213 HD
ENDBRANCH   7  12
BRANCH   5  14
ATOM     14  C   UNL     1      37.954 -24.480 -11.920  0.00  0.00    +0.169 C 
BRANCH  14  15
ATOM     15  O   UNL     1      38.684 -23.301 -11.627  0.00  0.00    -0.379 OA
ATOM     16  H   UNL     1      38.932 -23.299 -10.690  0.00  0.00    +0.211 HD
ENDBRANCH  14  15
ENDBRANCH   5  14
TORSDOF 5
ENDMDL
