MODEL 1
REMARK VINA RESULT:      -9.0      0.000      0.000
REMARK  Name = 2789
REMARK  1 active torsions:
REMARK  status: ('A' for Active; 'I' for Inactive)
REMARK    1  A    between atoms: N_4  and  C_16
REMARK                            x       y       z     vdW  Elec       q    Type
REMARK                         _______ _______ _______ _____ _____    ______ ____
ROOT
ATOM      1 CL   UNL     1      35.784 -21.811 -18.951  0.00  0.00    -0.082 Cl
ATOM      2  O   UNL     1      34.398 -24.463 -12.165  0.00  0.00    -0.274 OA
ATOM      3  O   UNL     1      30.771 -24.258 -13.050  0.00  0.00    -0.274 OA
ATOM      4  N   UNL     1      34.672 -24.046 -14.456  0.00  0.00    -0.236 N 
ATOM      5  N   UNL     1      31.700 -24.027 -15.172  0.00  0.00    -0.255 N 
ATOM      6  C   UNL     1      34.125 -23.510 -15.684  0.00  0.00    +0.073 C 
ATOM      7  C   UNL     1      32.748 -23.532 -16.027  0.00  0.00    +0.068 C 
ATOM      8  C   UNL     1      32.810 -23.067 -13.209  0.00  0.00    +0.171 C 
ATOM      9  C   UNL     1      34.045 -23.917 -13.213  0.00  0.00    +0.242 C 
ATOM     10  C   UNL     1      31.666 -23.846 -13.789  0.00  0.00    +0.239 C 
ATOM     11  C   UNL     1      35.037 -22.949 -16.614  0.00  0.00    +0.028 C 
ATOM     12  C   UNL     1      32.373 -23.067 -17.311  0.00  0.00    +0.017 C 
ATOM     13  C   UNL     1      30.538 -24.658 -15.797  0.00  0.00    +0.120 C 
ATOM     14  C   UNL     1      34.633 -22.475 -17.860  0.00  0.00    +0.059 C 
ATOM     15  C   UNL     1      33.299 -22.546 -18.214  0.00  0.00    +0.013 C 
ENDROOT
BRANCH   4  16
ATOM     16  C   UNL     1      35.924 -24.764 -14.547  0.00  0.00    +0.058 C 
ATOM     17  C   UNL     1      37.094 -24.166 -14.094  0.00  0.00    +0.015 C 
ATOM     18  C   UNL     1      35.943 -26.044 -15.086  0.00  0.00    +0.015 C 
ATOM     19  C   UNL     1      38.301 -24.859 -14.182  0.00  0.00    +0.001 C 
ATOM     20  C   UNL     1      37.150 -26.738 -15.174  0.00  0.00    +0.001 C 
ATOM     21  C   UNL     1      38.329 -26.145 -14.722  0.00  0.00    +0.000 C 
ENDBRANCH   4  16
TORSDOF 1
ENDMDL
MODEL 2
REMARK VINA RESULT:      -8.6     11.872     14.147
REMARK  Name = 2789
REMARK  1 active torsions:
REMARK  status: ('A' for Active; 'I' for Inactive)
REMARK    1  A    between atoms: N_4  and  C_16
REMARK                            x       y       z     vdW  Elec       q    Type
REMARK                         _______ _______ _______ _____ _____    ______ ____
ROOT
ATOM      1 CL   UNL     1      31.266 -11.506 -20.512  0.00  0.00    -0.082 Cl
ATOM      2  O   UNL     1      33.632 -16.119 -25.814  0.00  0.00    -0.274 OA
ATOM      3  O   UNL     1      34.276 -13.076 -27.888  0.00  0.00    -0.274 OA
ATOM      4  N   UNL     1      33.340 -14.532 -24.115  0.00  0.00    -0.236 N 
ATOM      5  N   UNL     1      34.013 -12.074 -25.803  0.00  0.00    -0.255 N 
ATOM      6  C   UNL     1      33.029 -13.168 -23.743  0.00  0.00    +0.073 C 
ATOM      7  C   UNL     1      33.371 -12.027 -24.515  0.00  0.00    +0.068 C 
ATOM      8  C   UNL     1      32.692 -14.044 -26.421  0.00  0.00    +0.171 C 
ATOM      9  C   UNL     1      33.255 -15.012 -25.424  0.00  0.00    +0.242 C 
ATOM     10  C   UNL     1      33.739 -13.031 -26.780  0.00  0.00    +0.239 C 
ATOM     11  C   UNL     1      32.357 -12.965 -22.510  0.00  0.00    +0.028 C 
ATOM     12  C   UNL     1      33.096 -10.748 -23.973  0.00  0.00    +0.017 C 
ATOM     13  C   UNL     1      34.923 -10.987 -26.162  0.00  0.00    +0.120 C 
ATOM     14  C   UNL     1      32.077 -11.693 -22.017  0.00  0.00    +0.059 C 
ATOM     15  C   UNL     1      32.458 -10.582 -22.744  0.00  0.00    +0.013 C 
ENDROOT
BRANCH   4  16
ATOM     16  C   UNL     1      33.778 -15.420 -23.061  0.00  0.00    +0.058 C 
ATOM     17  C   UNL     1      34.997 -16.077 -23.177  0.00  0.00    +0.015 C 
ATOM     18  C   UNL     1      32.975 -15.607 -21.943  0.00  0.00    +0.015 C 
ATOM     19  C   UNL     1      35.419 -16.934 -22.161  0.00  0.00    +0.001 C 
ATOM     20  C   UNL     1      33.396 -16.464 -20.926  0.00  0.00    +0.001 C 
ATOM     21  C   UNL     1      34.618 -17.127 -21.035  0.00  0.00    +0.000 C 
ENDBRANCH   4  16
TORSDOF 1
ENDMDL
MODEL 3
REMARK VINA RESULT:      -8.6     11.872     14.149
REMARK  Name = 2789
REMARK  1 active torsions:
REMARK  status: ('A' for Active; 'I' for Inactive)
REMARK    1  A    between atoms: N_4  and  C_16
REMARK                            x       y       z     vdW  Elec       q    Type
REMARK                         _______ _______ _______ _____ _____    ______ ____
ROOT
ATOM      1 CL   UNL     1      31.267 -11.494 -20.518  0.00  0.00    -0.082 Cl
ATOM      2  O   UNL     1      33.620 -16.126 -25.810  0.00  0.00    -0.274 OA
ATOM      3  O   UNL     1      34.269 -13.089 -27.893  0.00  0.00    -0.274 OA
ATOM      4  N   UNL     1      33.333 -14.533 -24.115  0.00  0.00    -0.236 N 
ATOM      5  N   UNL     1      34.009 -12.082 -25.810  0.00  0.00    -0.255 N 
ATOM      6  C   UNL     1      33.025 -13.168 -23.746  0.00  0.00    +0.073 C 
ATOM      7  C   UNL     1      33.368 -12.030 -24.521  0.00  0.00    +0.068 C 
ATOM      8  C   UNL     1      32.684 -14.050 -26.421  0.00  0.00    +0.171 C 
ATOM      9  C   UNL     1      33.246 -15.017 -25.423  0.00  0.00    +0.242 C 
ATOM     10  C   UNL     1      33.734 -13.041 -26.784  0.00  0.00    +0.239 C 
ATOM     11  C   UNL     1      32.354 -12.960 -22.514  0.00  0.00    +0.028 C 
ATOM     12  C   UNL     1      33.096 -10.749 -23.983  0.00  0.00    +0.017 C 
ATOM     13  C   UNL     1      34.922 -10.997 -26.172  0.00  0.00    +0.120 C 
ATOM     14  C   UNL     1      32.076 -11.687 -22.023  0.00  0.00    +0.059 C 
ATOM     15  C   UNL     1      32.460 -10.578 -22.754  0.00  0.00    +0.013 C 
ENDROOT
BRANCH   4  16
ATOM     16  C   UNL     1      33.770 -15.420 -23.059  0.00  0.00    +0.058 C 
ATOM     17  C   UNL     1      32.968 -15.604 -21.940  0.00  0.00    +0.015 C 
ATOM     18  C   UNL     1      34.987 -16.079 -23.176  0.00  0.00    +0.015 C 
ATOM     19  C   UNL     1      33.390 -16.460 -20.922  0.00  0.00    +0.001 C 
ATOM     20  C   UNL     1      35.409 -16.935 -22.159  0.00  0.00    +0.001 C 
ATOM     21  C   UNL     1      34.610 -17.126 -21.032  0.00  0.00    +0.000 C 
ENDBRANCH   4  16
TORSDOF 1
ENDMDL
MODEL 4
REMARK VINA RESULT:      -8.2     15.246     17.737
REMARK  Name = 2789
REMARK  1 active torsions:
REMARK  status: ('A' for Active; 'I' for Inactive)
REMARK    1  A    between atoms: N_4  and  C_16
REMARK                            x       y       z     vdW  Elec       q    Type
REMARK                         _______ _______ _______ _____ _____    ______ ____
ROOT
ATOM      1 CL   UNL     1      31.185 -11.531 -19.730  0.00  0.00    -0.082 Cl
ATOM      2  O   UNL     1      34.812  -7.399 -24.707  0.00  0.00    -0.274 OA
ATOM      3  O   UNL     1      35.526 -10.586 -26.527  0.00  0.00    -0.274 OA
ATOM      4  N   UNL     1      33.356  -8.773 -23.487  0.00  0.00    -0.236 N 
ATOM      5  N   UNL     1      33.854 -11.329 -25.087  0.00  0.00    -0.255 N 
ATOM      6  C   UNL     1      33.001 -10.104 -23.043  0.00  0.00    +0.073 C 
ATOM      7  C   UNL     1      33.205 -11.285 -23.802  0.00  0.00    +0.068 C 
ATOM      8  C   UNL     1      35.470  -9.636 -24.360  0.00  0.00    +0.171 C 
ATOM      9  C   UNL     1      34.527  -8.483 -24.194  0.00  0.00    +0.242 C 
ATOM     10  C   UNL     1      34.958 -10.550 -25.434  0.00  0.00    +0.239 C 
ATOM     11  C   UNL     1      32.385 -10.224 -21.771  0.00  0.00    +0.028 C 
ATOM     12  C   UNL     1      32.709 -12.506 -23.284  0.00  0.00    +0.017 C 
ATOM     13  C   UNL     1      33.409 -12.334 -26.053  0.00  0.00    +0.120 C 
ATOM     14  C   UNL     1      31.932 -11.444 -21.277  0.00  0.00    +0.059 C 
ATOM     15  C   UNL     1      32.083 -12.586 -22.040  0.00  0.00    +0.013 C 
ENDROOT
BRANCH   4  16
ATOM     16  C   UNL     1      32.426  -7.706 -23.189  0.00  0.00    +0.058 C 
ATOM     17  C   UNL     1      31.326  -7.502 -24.012  0.00  0.00    +0.015 C 
ATOM     18  C   UNL     1      32.644  -6.897 -22.081  0.00  0.00    +0.015 C 
ATOM     19  C   UNL     1      30.430  -6.472 -23.723  0.00  0.00    +0.001 C 
ATOM     20  C   UNL     1      31.748  -5.868 -21.791  0.00  0.00    +0.001 C 
ATOM     21  C   UNL     1      30.641  -5.656 -22.612  0.00  0.00    +0.000 C 
ENDBRANCH   4  16
TORSDOF 1
ENDMDL
MODEL 5
REMARK VINA RESULT:      -8.0     11.249     13.504
REMARK  Name = 2789
REMARK  1 active torsions:
REMARK  status: ('A' for Active; 'I' for Inactive)
REMARK    1  A    between atoms: N_4  and  C_16
REMARK                            x       y       z     vdW  Elec       q    Type
REMARK                         _______ _______ _______ _____ _____    ______ ____
ROOT
ATOM      1 CL   UNL     1      31.650 -13.055 -20.014  0.00  0.00    -0.082 Cl
ATOM      2  O   UNL     1      34.035 -16.650 -26.047  0.00  0.00    -0.274 OA
ATOM      3  O   UNL     1      34.025 -13.334 -27.775  0.00  0.00    -0.274 OA
ATOM      4  N   UNL     1      33.715 -15.320 -24.142  0.00  0.00    -0.236 N 
ATOM      5  N   UNL     1      33.855 -12.619 -25.565  0.00  0.00    -0.255 N 
ATOM      6  C   UNL     1      33.261 -14.068 -23.576  0.00  0.00    +0.073 C 
ATOM      7  C   UNL     1      33.357 -12.811 -24.227  0.00  0.00    +0.068 C 
ATOM      8  C   UNL     1      32.759 -14.684 -26.300  0.00  0.00    +0.171 C 
ATOM      9  C   UNL     1      33.554 -15.661 -25.489  0.00  0.00    +0.242 C 
ATOM     10  C   UNL     1      33.611 -13.493 -26.625  0.00  0.00    +0.239 C 
ATOM     11  C   UNL     1      32.706 -14.105 -22.271  0.00  0.00    +0.028 C 
ATOM     12  C   UNL     1      32.969 -11.655 -23.508  0.00  0.00    +0.017 C 
ATOM     13  C   UNL     1      34.563 -11.375 -25.868  0.00  0.00    +0.120 C 
ATOM     14  C   UNL     1      32.309 -12.952 -21.599  0.00  0.00    +0.059 C 
ATOM     15  C   UNL     1      32.453 -11.723 -22.214  0.00  0.00    +0.013 C 
ENDROOT
BRANCH   4  16
ATOM     16  C   UNL     1      34.384 -16.245 -23.253  0.00  0.00    +0.058 C 
ATOM     17  C   UNL     1      35.050 -17.345 -23.778  0.00  0.00    +0.015 C 
ATOM     18  C   UNL     1      34.352 -16.022 -21.882  0.00  0.00    +0.015 C 
ATOM     19  C   UNL     1      35.694 -18.236 -22.920  0.00  0.00    +0.001 C 
ATOM     20  C   UNL     1      34.997 -16.911 -21.023  0.00  0.00    +0.001 C 
ATOM     21  C   UNL     1      35.668 -18.019 -21.542  0.00  0.00    +0.000 C 
ENDBRANCH   4  16
TORSDOF 1
ENDMDL
MODEL 6
REMARK VINA RESULT:      -7.6     14.846     17.326
REMARK  Name = 2789
REMARK  1 active torsions:
REMARK  status: ('A' for Active; 'I' for Inactive)
REMARK    1  A    between atoms: N_4  and  C_16
REMARK                            x       y       z     vdW  Elec       q    Type
REMARK                         _______ _______ _______ _____ _____    ______ ____
ROOT
ATOM      1 CL   UNL     1      31.640 -12.701 -20.336  0.00  0.00    -0.082 Cl
ATOM      2  O   UNL     1      35.015  -7.844 -24.810  0.00  0.00    -0.274 OA
ATOM      3  O   UNL     1      35.643 -10.718 -27.117  0.00  0.00    -0.274 OA
ATOM      4  N   UNL     1      33.622  -9.396 -23.740  0.00  0.00    -0.236 N 
ATOM      5  N   UNL     1      34.044 -11.682 -25.725  0.00  0.00    -0.255 N 
ATOM      6  C   UNL     1      33.290 -10.782 -23.483  0.00  0.00    +0.073 C 
ATOM      7  C   UNL     1      33.458 -11.835 -24.419  0.00  0.00    +0.068 C 
ATOM      8  C   UNL     1      35.692 -10.102 -24.833  0.00  0.00    +0.171 C 
ATOM      9  C   UNL     1      34.757  -8.995 -24.451  0.00  0.00    +0.242 C 
ATOM     10  C   UNL     1      35.129 -10.850 -26.005  0.00  0.00    +0.239 C 
ATOM     11  C   UNL     1      32.737 -11.095 -22.214  0.00  0.00    +0.028 C 
ATOM     12  C   UNL     1      32.990 -13.123 -24.065  0.00  0.00    +0.017 C 
ATOM     13  C   UNL     1      33.553 -12.535 -26.808  0.00  0.00    +0.120 C 
ATOM     14  C   UNL     1      32.310 -12.379 -21.887  0.00  0.00    +0.059 C 
ATOM     15  C   UNL     1      32.425 -13.393 -22.818  0.00  0.00    +0.013 C 
ENDROOT
BRANCH   4  16
ATOM     16  C   UNL     1      32.707  -8.394 -23.241  0.00  0.00    +0.058 C 
ATOM     17  C   UNL     1      33.005  -7.715 -22.066  0.00  0.00    +0.015 C 
ATOM     18  C   UNL     1      31.540  -8.119 -23.943  0.00  0.00    +0.015 C 
ATOM     19  C   UNL     1      32.122  -6.748 -21.585  0.00  0.00    +0.001 C 
ATOM     20  C   UNL     1      30.657  -7.152 -23.463  0.00  0.00    +0.001 C 
ATOM     21  C   UNL     1      30.948  -6.466 -22.285  0.00  0.00    +0.000 C 
ENDBRANCH   4  16
TORSDOF 1
ENDMDL
MODEL 7
REMARK VINA RESULT:      -7.2     11.440     14.022
REMARK  Name = 2789
REMARK  1 active torsions:
REMARK  status: ('A' for Active; 'I' for Inactive)
REMARK    1  A    between atoms: N_4  and  C_16
REMARK                            x       y       z     vdW  Elec       q    Type
REMARK                         _______ _______ _______ _____ _____    ______ ____
ROOT
ATOM      1 CL   UNL     1      32.043 -13.760 -27.737  0.00  0.00    -0.082 Cl
ATOM      2  O   UNL     1      32.410 -12.904 -20.379  0.00  0.00    -0.274 OA
ATOM      3  O   UNL     1      34.061 -16.257 -20.278  0.00  0.00    -0.274 OA
ATOM      4  N   UNL     1      32.767 -13.132 -22.685  0.00  0.00    -0.236 N 
ATOM      5  N   UNL     1      34.241 -15.806 -22.555  0.00  0.00    -0.255 N 
ATOM      6  C   UNL     1      32.985 -14.007 -23.817  0.00  0.00    +0.073 C 
ATOM      7  C   UNL     1      33.697 -15.233 -23.759  0.00  0.00    +0.068 C 
ATOM      8  C   UNL     1      32.275 -15.076 -21.287  0.00  0.00    +0.171 C 
ATOM      9  C   UNL     1      32.474 -13.595 -21.399  0.00  0.00    +0.242 C 
ATOM     10  C   UNL     1      33.609 -15.762 -21.312  0.00  0.00    +0.239 C 
ATOM     11  C   UNL     1      32.469 -13.591 -25.072  0.00  0.00    +0.028 C 
ATOM     12  C   UNL     1      33.923 -15.931 -24.970  0.00  0.00    +0.017 C 
ATOM     13  C   UNL     1      35.475 -16.586 -22.656  0.00  0.00    +0.120 C 
ATOM     14  C   UNL     1      32.686 -14.315 -26.241  0.00  0.00    +0.059 C 
ATOM     15  C   UNL     1      33.426 -15.481 -26.193  0.00  0.00    +0.013 C 
ENDROOT
BRANCH   4  16
ATOM     16  C   UNL     1      32.880 -11.709 -22.917  0.00  0.00    +0.058 C 
ATOM     17  C   UNL     1      31.934 -10.846 -22.377  0.00  0.00    +0.015 C 
ATOM     18  C   UNL     1      33.934 -11.220 -23.679  0.00  0.00    +0.015 C 
ATOM     19  C   UNL     1      32.044  -9.474 -22.601  0.00  0.00    +0.001 C 
ATOM     20  C   UNL     1      34.045  -9.848 -23.903  0.00  0.00    +0.001 C 
ATOM     21  C   UNL     1      33.100  -8.975 -23.364  0.00  0.00    +0.000 C 
ENDBRANCH   4  16
TORSDOF 1
ENDMDL
MODEL 8
REMARK VINA RESULT:      -7.0     12.473     14.941
REMARK  Name = 2789
REMARK  1 active torsions:
REMARK  status: ('A' for Active; 'I' for Inactive)
REMARK    1  A    between atoms: N_4  and  C_16
REMARK                            x       y       z     vdW  Elec       q    Type
REMARK                         _______ _______ _______ _____ _____    ______ ____
ROOT
ATOM      1 CL   UNL     1      34.898 -15.714 -20.311  0.00  0.00    -0.082 Cl
ATOM      2  O   UNL     1      33.082 -10.104 -24.808  0.00  0.00    -0.274 OA
ATOM      3  O   UNL     1      33.229 -12.574 -27.611  0.00  0.00    -0.274 OA
ATOM      4  N   UNL     1      33.223 -12.040 -23.494  0.00  0.00    -0.236 N 
ATOM      5  N   UNL     1      33.196 -14.042 -25.804  0.00  0.00    -0.255 N 
ATOM      6  C   UNL     1      33.617 -13.428 -23.384  0.00  0.00    +0.073 C 
ATOM      7  C   UNL     1      33.573 -14.363 -24.451  0.00  0.00    +0.068 C 
ATOM      8  C   UNL     1      34.365 -11.894 -25.650  0.00  0.00    +0.171 C 
ATOM      9  C   UNL     1      33.505 -11.245 -24.608  0.00  0.00    +0.242 C 
ATOM     10  C   UNL     1      33.539 -12.855 -26.452  0.00  0.00    +0.239 C 
ATOM     11  C   UNL     1      34.053 -13.884 -22.113  0.00  0.00    +0.028 C 
ATOM     12  C   UNL     1      33.889 -15.714 -24.169  0.00  0.00    +0.017 C 
ATOM     13  C   UNL     1      32.512 -15.067 -26.592  0.00  0.00    +0.120 C 
ATOM     14  C   UNL     1      34.382 -15.215 -21.874  0.00  0.00    +0.059 C 
ATOM     15  C   UNL     1      34.288 -16.135 -22.901  0.00  0.00    +0.013 C 
ENDROOT
BRANCH   4  16
ATOM     16  C   UNL     1      32.483 -11.473 -22.388  0.00  0.00    +0.058 C 
ATOM     17  C   UNL     1      31.685 -12.295 -21.601  0.00  0.00    +0.015 C 
ATOM     18  C   UNL     1      32.578 -10.113 -22.125  0.00  0.00    +0.015 C 
ATOM     19  C   UNL     1      30.972 -11.748 -20.535  0.00  0.00    +0.001 C 
ATOM     20  C   UNL     1      31.865  -9.565 -21.058  0.00  0.00    +0.001 C 
ATOM     21  C   UNL     1      31.062 -10.382 -20.263  0.00  0.00    +0.000 C 
ENDBRANCH   4  16
TORSDOF 1
ENDMDL
MODEL 9
REMARK VINA RESULT:      -7.0      2.957      5.440
REMARK  Name = 2789
REMARK  1 active torsions:
REMARK  status: ('A' for Active; 'I' for Inactive)
REMARK    1  A    between atoms: N_4  and  C_16
REMARK                            x       y       z     vdW  Elec       q    Type
REMARK                         _______ _______ _______ _____ _____    ______ ____
ROOT
ATOM      1 CL   UNL     1      30.847 -22.795 -14.968  0.00  0.00    -0.082 Cl
ATOM      2  O   UNL     1      37.989 -22.109 -16.842  0.00  0.00    -0.274 OA
ATOM      3  O   UNL     1      38.637 -25.063 -14.643  0.00  0.00    -0.274 OA
ATOM      4  N   UNL     1      35.753 -22.726 -16.504  0.00  0.00    -0.236 N 
ATOM      5  N   UNL     1      36.321 -25.218 -14.828  0.00  0.00    -0.255 N 
ATOM      6  C   UNL     1      34.774 -23.407 -15.684  0.00  0.00    +0.073 C 
ATOM      7  C   UNL     1      35.033 -24.582 -14.932  0.00  0.00    +0.068 C 
ATOM      8  C   UNL     1      37.426 -23.032 -14.747  0.00  0.00    +0.171 C 
ATOM      9  C   UNL     1      37.090 -22.561 -16.130  0.00  0.00    +0.242 C 
ATOM     10  C   UNL     1      37.531 -24.529 -14.741  0.00  0.00    +0.239 C 
ATOM     11  C   UNL     1      33.461 -22.870 -15.655  0.00  0.00    +0.028 C 
ATOM     12  C   UNL     1      33.949 -25.199 -14.261  0.00  0.00    +0.017 C 
ATOM     13  C   UNL     1      36.364 -26.674 -14.685  0.00  0.00    +0.120 C 
ATOM     14  C   UNL     1      32.421 -23.486 -14.963  0.00  0.00    +0.059 C 
ATOM     15  C   UNL     1      32.663 -24.660 -14.275  0.00  0.00    +0.013 C 
ENDROOT
BRANCH   4  16
ATOM     16  C   UNL     1      35.306 -22.215 -17.780  0.00  0.00    +0.058 C 
ATOM     17  C   UNL     1      34.010 -22.472 -18.209  0.00  0.00    +0.015 C 
ATOM     18  C   UNL     1      36.179 -21.470 -18.565  0.00  0.00    +0.015 C 
ATOM     19  C   UNL     1      33.580 -21.978 -19.440  0.00  0.00    +0.001 C 
ATOM     20  C   UNL     1      35.749 -20.976 -19.796  0.00  0.00    +0.001 C 
ATOM     21  C   UNL     1      34.449 -21.230 -20.234  0.00  0.00    +0.000 C 
ENDBRANCH   4  16
TORSDOF 1
ENDMDL
