MODEL 1
REMARK VINA RESULT:      -8.1      0.000      0.000
REMARK  Name = 439356
REMARK  4 active torsions:
REMARK  status: ('A' for Active; 'I' for Inactive)
REMARK    1  A    between atoms: C_1  and  C_3
REMARK    2  A    between atoms: C_1  and  C_12
REMARK    3  A    between atoms: C_12  and  C_15
REMARK    4  A    between atoms: C_12  and  N_18
REMARK                            x       y       z     vdW  Elec       q    Type
REMARK                         _______ _______ _______ _____ _____    ______ ____
ROOT
ATOM      1  C   UNL     1      34.320 -17.704 -22.275  0.00  0.00    +0.015 C 
ENDROOT
BRANCH   1   3
ATOM      2  N   UNL     1      36.777 -19.730 -20.490  0.00  0.00    -0.312 N 
ATOM      3  C   UNL     1      35.088 -18.674 -21.469  0.00  0.00    -0.008 C 
ATOM      4  C   UNL     1      34.558 -19.767 -20.727  0.00  0.00    +0.011 C 
ATOM      5  C   UNL     1      35.639 -20.413 -20.122  0.00  0.00    +0.048 C 
ATOM      6  C   UNL     1      36.453 -18.677 -21.303  0.00  0.00    +0.058 C 
ATOM      7  C   UNL     1      33.261 -20.271 -20.512  0.00  0.00    +0.001 C 
ATOM      8  C   UNL     1      35.486 -21.543 -19.310  0.00  0.00    +0.015 C 
ATOM      9  C   UNL     1      33.092 -21.400 -19.701  0.00  0.00    +0.000 C 
ATOM     10  C   UNL     1      34.189 -22.024 -19.111  0.00  0.00    +0.001 C 
ATOM     11  H   UNL     1      37.691 -19.965 -20.208  0.00  0.00    +0.152 HD
ENDBRANCH   1   3
BRANCH   1  12
ATOM     12  C   UNL     1      35.158 -17.001 -23.370  0.00  0.00    +0.017 C 
BRANCH  12  15
ATOM     13  O   UNL     1      34.758 -16.735 -25.748  0.00  0.00    -0.278 OA
ATOM     14  N   UNL     1      34.367 -18.791 -24.801  0.00  0.00    -0.330 N 
ATOM     15  C   UNL     1      34.757 -17.470 -24.762  0.00  0.00    +0.199 C 
ATOM     16  H   UNL     1      34.087 -19.196 -25.654  0.00  0.00    +0.145 HD
ATOM     17  H   UNL     1      34.367 -19.329 -23.977  0.00  0.00    +0.145 HD
ENDBRANCH  12  15
BRANCH  12  18
ATOM     18  N   UNL     1      34.919 -15.557 -23.351  0.00  0.00    +0.388 N 
ATOM     19  H   UNL     1      34.197 -15.341 -22.663  0.00  0.00    -0.089 HD
ATOM     20  H   UNL     1      34.611 -15.251 -24.274  0.00  0.00    -0.089 HD
ATOM     21  H   UNL     1      35.781 -15.073 -23.103  0.00  0.00    -0.089 HD
ENDBRANCH  12  18
ENDBRANCH   1  12
TORSDOF 4
ENDMDL
MODEL 2
REMARK VINA RESULT:      -7.9      1.304      1.419
REMARK  Name = 439356
REMARK  4 active torsions:
REMARK  status: ('A' for Active; 'I' for Inactive)
REMARK    1  A    between atoms: C_1  and  C_3
REMARK    2  A    between atoms: C_1  and  C_12
REMARK    3  A    between atoms: C_12  and  C_15
REMARK    4  A    between atoms: C_12  and  N_18
REMARK                            x       y       z     vdW  Elec       q    Type
REMARK                         _______ _______ _______ _____ _____    ______ ____
ROOT
ATOM      1  C   UNL     1      34.378 -17.915 -21.946  0.00  0.00    +0.015 C 
ENDROOT
BRANCH   1   3
ATOM      2  N   UNL     1      36.822 -20.038 -20.257  0.00  0.00    -0.312 N 
ATOM      3  C   UNL     1      35.139 -18.921 -21.178  0.00  0.00    -0.008 C 
ATOM      4  C   UNL     1      34.599 -20.021 -20.453  0.00  0.00    +0.011 C 
ATOM      5  C   UNL     1      35.676 -20.705 -19.885  0.00  0.00    +0.048 C 
ATOM      6  C   UNL     1      36.507 -18.958 -21.038  0.00  0.00    +0.058 C 
ATOM      7  C   UNL     1      33.295 -20.501 -20.226  0.00  0.00    +0.001 C 
ATOM      8  C   UNL     1      35.513 -21.850 -19.097  0.00  0.00    +0.015 C 
ATOM      9  C   UNL     1      33.116 -21.646 -19.440  0.00  0.00    +0.000 C 
ATOM     10  C   UNL     1      34.209 -22.308 -18.886  0.00  0.00    +0.001 C 
ATOM     11  H   UNL     1      37.735 -20.299 -19.998  0.00  0.00    +0.152 HD
ENDBRANCH   1   3
BRANCH   1  12
ATOM     12  C   UNL     1      35.009 -16.502 -21.919  0.00  0.00    +0.017 C 
BRANCH  12  15
ATOM     13  O   UNL     1      34.501 -14.668 -23.424  0.00  0.00    -0.278 OA
ATOM     14  N   UNL     1      35.272 -16.635 -24.327  0.00  0.00    -0.330 N 
ATOM     15  C   UNL     1      34.902 -15.821 -23.277  0.00  0.00    +0.199 C 
ATOM     16  H   UNL     1      35.239 -16.292 -25.249  0.00  0.00    +0.145 HD
ATOM     17  H   UNL     1      35.568 -17.558 -24.153  0.00  0.00    +0.145 HD
ENDBRANCH  12  15
BRANCH  12  18
ATOM     18  N   UNL     1      34.292 -15.637 -20.981  0.00  0.00    +0.388 N 
ATOM     19  H   UNL     1      34.464 -15.955 -20.027  0.00  0.00    -0.089 HD
ATOM     20  H   UNL     1      33.292 -15.678 -21.178  0.00  0.00    -0.089 HD
ATOM     21  H   UNL     1      34.620 -14.678 -21.085  0.00  0.00    -0.089 HD
ENDBRANCH  12  18
ENDBRANCH   1  12
TORSDOF 4
ENDMDL
MODEL 3
REMARK VINA RESULT:      -7.9      2.086      2.889
REMARK  Name = 439356
REMARK  4 active torsions:
REMARK  status: ('A' for Active; 'I' for Inactive)
REMARK    1  A    between atoms: C_1  and  C_3
REMARK    2  A    between atoms: C_1  and  C_12
REMARK    3  A    between atoms: C_12  and  C_15
REMARK    4  A    between atoms: C_12  and  N_18
REMARK                            x       y       z     vdW  Elec       q    Type
REMARK                         _______ _______ _______ _____ _____    ______ ____
ROOT
ATOM      1  C   UNL     1      35.424 -18.394 -21.853  0.00  0.00    +0.015 C 
ENDROOT
BRANCH   1   3
ATOM      2  N   UNL     1      32.619 -20.343 -20.565  0.00  0.00    -0.312 N 
ATOM      3  C   UNL     1      34.489 -19.321 -21.185  0.00  0.00    -0.008 C 
ATOM      4  C   UNL     1      34.829 -20.344 -20.256  0.00  0.00    +0.011 C 
ATOM      5  C   UNL     1      33.637 -20.971 -19.883  0.00  0.00    +0.048 C 
ATOM      6  C   UNL     1      33.124 -19.346 -21.355  0.00  0.00    +0.058 C 
ATOM      7  C   UNL     1      36.038 -20.799 -19.694  0.00  0.00    +0.001 C 
ATOM      8  C   UNL     1      33.596 -22.033 -18.973  0.00  0.00    +0.015 C 
ATOM      9  C   UNL     1      36.011 -21.861 -18.783  0.00  0.00    +0.000 C 
ATOM     10  C   UNL     1      34.808 -22.467 -18.429  0.00  0.00    +0.001 C 
ATOM     11  H   UNL     1      31.665 -20.579 -20.495  0.00  0.00    +0.152 HD
ENDBRANCH   1   3
BRANCH   1  12
ATOM     12  C   UNL     1      34.727 -17.204 -22.556  0.00  0.00    +0.017 C 
BRANCH  12  15
ATOM     13  O   UNL     1      34.907 -15.983 -20.467  0.00  0.00    -0.278 OA
ATOM     14  N   UNL     1      34.551 -14.791 -22.398  0.00  0.00    -0.330 N 
ATOM     15  C   UNL     1      34.751 -15.955 -21.686  0.00  0.00    +0.199 C 
ATOM     16  H   UNL     1      34.547 -13.924 -21.932  0.00  0.00    +0.145 HD
ATOM     17  H   UNL     1      34.412 -14.828 -23.372  0.00  0.00    +0.145 HD
ENDBRANCH  12  15
BRANCH  12  18
ATOM     18  N   UNL     1      35.436 -16.848 -23.786  0.00  0.00    +0.388 N 
ATOM     19  H   UNL     1      36.250 -17.453 -23.896  0.00  0.00    -0.089 HD
ATOM     20  H   UNL     1      35.740 -15.875 -23.734  0.00  0.00    -0.089 HD
ATOM     21  H   UNL     1      34.813 -16.967 -24.584  0.00  0.00    -0.089 HD
ENDBRANCH  12  18
ENDBRANCH   1  12
TORSDOF 4
ENDMDL
MODEL 4
REMARK VINA RESULT:      -7.9      1.427      2.474
REMARK  Name = 439356
REMARK  4 active torsions:
REMARK  status: ('A' for Active; 'I' for Inactive)
REMARK    1  A    between atoms: C_1  and  C_3
REMARK    2  A    between atoms: C_1  and  C_12
REMARK    3  A    between atoms: C_12  and  C_15
REMARK    4  A    between atoms: C_12  and  N_18
REMARK                            x       y       z     vdW  Elec       q    Type
REMARK                         _______ _______ _______ _____ _____    ______ ____
ROOT
ATOM      1  C   UNL     1      34.649 -18.232 -22.238  0.00  0.00    +0.015 C 
ENDROOT
BRANCH   1   3
ATOM      2  N   UNL     1      32.642 -20.581 -20.294  0.00  0.00    -0.312 N 
ATOM      3  C   UNL     1      34.088 -19.271 -21.352  0.00  0.00    -0.008 C 
ATOM      4  C   UNL     1      34.821 -20.149 -20.505  0.00  0.00    +0.011 C 
ATOM      5  C   UNL     1      33.890 -20.960 -19.852  0.00  0.00    +0.048 C 
ATOM      6  C   UNL     1      32.752 -19.562 -21.201  0.00  0.00    +0.058 C 
ATOM      7  C   UNL     1      36.190 -20.331 -20.228  0.00  0.00    +0.001 C 
ATOM      8  C   UNL     1      34.262 -21.949 -18.934  0.00  0.00    +0.015 C 
ATOM      9  C   UNL     1      36.577 -21.316 -19.312  0.00  0.00    +0.000 C 
ATOM     10  C   UNL     1      35.627 -22.111 -18.676  0.00  0.00    +0.001 C 
ATOM     11  H   UNL     1      31.794 -20.986 -20.000  0.00  0.00    +0.152 HD
ENDBRANCH   1   3
BRANCH   1  12
ATOM     12  C   UNL     1      34.339 -18.457 -23.738  0.00  0.00    +0.017 C 
BRANCH  12  15
ATOM     13  O   UNL     1      34.700 -17.247 -25.809  0.00  0.00    -0.278 OA
ATOM     14  N   UNL     1      35.489 -16.326 -23.858  0.00  0.00    -0.330 N 
ATOM     15  C   UNL     1      34.839 -17.298 -24.589  0.00  0.00    +0.199 C 
ATOM     16  H   UNL     1      35.853 -15.532 -24.312  0.00  0.00    +0.145 HD
ATOM     17  H   UNL     1      35.589 -16.427 -22.884  0.00  0.00    +0.145 HD
ENDBRANCH  12  15
BRANCH  12  18
ATOM     18  N   UNL     1      35.035 -19.646 -24.233  0.00  0.00    +0.388 N 
ATOM     19  H   UNL     1      35.404 -19.459 -25.166  0.00  0.00    -0.089 HD
ATOM     20  H   UNL     1      34.383 -20.429 -24.276  0.00  0.00    -0.089 HD
ATOM     21  H   UNL     1      35.803 -19.877 -23.604  0.00  0.00    -0.089 HD
ENDBRANCH  12  18
ENDBRANCH   1  12
TORSDOF 4
ENDMDL
MODEL 5
REMARK VINA RESULT:      -7.8      3.086      5.576
REMARK  Name = 439356
REMARK  4 active torsions:
REMARK  status: ('A' for Active; 'I' for Inactive)
REMARK    1  A    between atoms: C_1  and  C_3
REMARK    2  A    between atoms: C_1  and  C_12
REMARK    3  A    between atoms: C_12  and  C_15
REMARK    4  A    between atoms: C_12  and  N_18
REMARK                            x       y       z     vdW  Elec       q    Type
REMARK                         _______ _______ _______ _____ _____    ______ ____
ROOT
ATOM      1  C   UNL     1      34.933 -19.804 -20.617  0.00  0.00    +0.015 C 
ENDROOT
BRANCH   1   3
ATOM      2  N   UNL     1      34.849 -18.188 -23.890  0.00  0.00    -0.312 N 
ATOM      3  C   UNL     1      34.875 -18.910 -21.791  0.00  0.00    -0.008 C 
ATOM      4  C   UNL     1      34.751 -17.493 -21.772  0.00  0.00    +0.011 C 
ATOM      5  C   UNL     1      34.737 -17.065 -23.101  0.00  0.00    +0.048 C 
ATOM      6  C   UNL     1      34.932 -19.308 -23.107  0.00  0.00    +0.058 C 
ATOM      7  C   UNL     1      34.651 -16.529 -20.749  0.00  0.00    +0.001 C 
ATOM      8  C   UNL     1      34.626 -15.716 -23.460  0.00  0.00    +0.015 C 
ATOM      9  C   UNL     1      34.539 -15.177 -21.092  0.00  0.00    +0.000 C 
ATOM     10  C   UNL     1      34.528 -14.779 -22.427  0.00  0.00    +0.001 C 
ATOM     11  H   UNL     1      34.865 -18.186 -24.874  0.00  0.00    +0.152 HD
ENDBRANCH   1   3
BRANCH   1  12
ATOM     12  C   UNL     1      33.758 -20.809 -20.540  0.00  0.00    +0.017 C 
BRANCH  12  15
ATOM     13  O   UNL     1      35.092 -22.395 -19.279  0.00  0.00    -0.278 OA
ATOM     14  N   UNL     1      32.866 -22.186 -18.754  0.00  0.00    -0.330 N 
ATOM     15  C   UNL     1      34.000 -21.864 -19.469  0.00  0.00    +0.199 C 
ATOM     16  H   UNL     1      32.911 -22.859 -18.037  0.00  0.00    +0.145 HD
ATOM     17  H   UNL     1      32.011 -21.743 -18.962  0.00  0.00    +0.145 HD
ENDBRANCH  12  15
BRANCH  12  18
ATOM     18  N   UNL     1      32.523 -20.125 -20.154  0.00  0.00    +0.388 N 
ATOM     19  H   UNL     1      32.076 -20.635 -19.390  0.00  0.00    -0.089 HD
ATOM     20  H   UNL     1      31.890 -20.089 -20.953  0.00  0.00    -0.089 HD
ATOM     21  H   UNL     1      32.740 -19.177 -19.849  0.00  0.00    -0.089 HD
ENDBRANCH  12  18
ENDBRANCH   1  12
TORSDOF 4
ENDMDL
MODEL 6
REMARK VINA RESULT:      -7.6      2.866      5.582
REMARK  Name = 439356
REMARK  4 active torsions:
REMARK  status: ('A' for Active; 'I' for Inactive)
REMARK    1  A    between atoms: C_1  and  C_3
REMARK    2  A    between atoms: C_1  and  C_12
REMARK    3  A    between atoms: C_12  and  C_15
REMARK    4  A    between atoms: C_12  and  N_18
REMARK                            x       y       z     vdW  Elec       q    Type
REMARK                         _______ _______ _______ _____ _____    ______ ____
ROOT
ATOM      1  C   UNL     1      35.924 -19.089 -20.961  0.00  0.00    +0.015 C 
ENDROOT
BRANCH   1   3
ATOM      2  N   UNL     1      35.276 -17.325 -24.091  0.00  0.00    -0.312 N 
ATOM      3  C   UNL     1      35.578 -18.163 -22.059  0.00  0.00    -0.008 C 
ATOM      4  C   UNL     1      35.068 -16.841 -21.923  0.00  0.00    +0.011 C 
ATOM      5  C   UNL     1      34.887 -16.338 -23.213  0.00  0.00    +0.048 C 
ATOM      6  C   UNL     1      35.694 -18.431 -23.403  0.00  0.00    +0.058 C 
ATOM      7  C   UNL     1      34.743 -16.022 -20.824  0.00  0.00    +0.001 C 
ATOM      8  C   UNL     1      34.395 -15.051 -23.459  0.00  0.00    +0.015 C 
ATOM      9  C   UNL     1      34.249 -14.733 -21.056  0.00  0.00    +0.000 C 
ATOM     10  C   UNL     1      34.079 -14.257 -22.353  0.00  0.00    +0.001 C 
ATOM     11  H   UNL     1      35.256 -17.245 -25.073  0.00  0.00    +0.152 HD
ENDBRANCH   1   3
BRANCH   1  12
ATOM     12  C   UNL     1      34.993 -20.322 -20.869  0.00  0.00    +0.017 C 
BRANCH  12  15
ATOM     13  O   UNL     1      34.807 -22.282 -19.452  0.00  0.00    -0.278 OA
ATOM     14  N   UNL     1      36.526 -20.811 -19.055  0.00  0.00    -0.330 N 
ATOM     15  C   UNL     1      35.414 -21.252 -19.740  0.00  0.00    +0.199 C 
ATOM     16  H   UNL     1      36.882 -21.339 -18.304  0.00  0.00    +0.145 HD
ATOM     17  H   UNL     1      36.962 -19.968 -19.316  0.00  0.00    +0.145 HD
ENDBRANCH  12  15
BRANCH  12  18
ATOM     18  N   UNL     1      33.624 -19.908 -20.556  0.00  0.00    +0.388 N 
ATOM     19  H   UNL     1      32.972 -20.398 -21.169  0.00  0.00    -0.089 HD
ATOM     20  H   UNL     1      33.532 -18.902 -20.696  0.00  0.00    -0.089 HD
ATOM     21  H   UNL     1      33.414 -20.136 -19.585  0.00  0.00    -0.089 HD
ENDBRANCH  12  18
ENDBRANCH   1  12
TORSDOF 4
ENDMDL
MODEL 7
REMARK VINA RESULT:      -7.6      2.417      5.426
REMARK  Name = 439356
REMARK  4 active torsions:
REMARK  status: ('A' for Active; 'I' for Inactive)
REMARK    1  A    between atoms: C_1  and  C_3
REMARK    2  A    between atoms: C_1  and  C_12
REMARK    3  A    between atoms: C_12  and  C_15
REMARK    4  A    between atoms: C_12  and  N_18
REMARK                            x       y       z     vdW  Elec       q    Type
REMARK                         _______ _______ _______ _____ _____    ______ ____
ROOT
ATOM      1  C   UNL     1      35.271 -20.174 -21.399  0.00  0.00    +0.015 C 
ENDROOT
BRANCH   1   3
ATOM      2  N   UNL     1      35.090 -16.531 -21.554  0.00  0.00    -0.312 N 
ATOM      3  C   UNL     1      35.145 -18.742 -21.737  0.00  0.00    -0.008 C 
ATOM      4  C   UNL     1      34.868 -18.196 -23.022  0.00  0.00    +0.011 C 
ATOM      5  C   UNL     1      34.839 -16.807 -22.879  0.00  0.00    +0.048 C 
ATOM      6  C   UNL     1      35.278 -17.694 -20.856  0.00  0.00    +0.058 C 
ATOM      7  C   UNL     1      34.637 -18.751 -24.296  0.00  0.00    +0.001 C 
ATOM      8  C   UNL     1      34.590 -15.943 -23.951  0.00  0.00    +0.015 C 
ATOM      9  C   UNL     1      34.387 -17.899 -25.377  0.00  0.00    +0.000 C 
ATOM     10  C   UNL     1      34.364 -16.516 -25.206  0.00  0.00    +0.001 C 
ATOM     11  H   UNL     1      35.131 -15.627 -21.164  0.00  0.00    +0.152 HD
ENDBRANCH   1   3
BRANCH   1  12
ATOM     12  C   UNL     1      34.756 -20.527 -19.983  0.00  0.00    +0.017 C 
BRANCH  12  15
ATOM     13  O   UNL     1      32.410 -20.344 -20.573  0.00  0.00    -0.278 OA
ATOM     14  N   UNL     1      33.083 -22.160 -19.338  0.00  0.00    -0.330 N 
ATOM     15  C   UNL     1      33.303 -20.980 -20.017  0.00  0.00    +0.199 C 
ATOM     16  H   UNL     1      32.176 -22.542 -19.297  0.00  0.00    +0.145 HD
ATOM     17  H   UNL     1      33.832 -22.618 -18.893  0.00  0.00    +0.145 HD
ENDBRANCH  12  15
BRANCH  12  18
ATOM     18  N   UNL     1      35.511 -21.652 -19.428  0.00  0.00    +0.388 N 
ATOM     19  H   UNL     1      35.054 -21.982 -18.578  0.00  0.00    -0.089 HD
ATOM     20  H   UNL     1      36.460 -21.349 -19.207  0.00  0.00    -0.089 HD
ATOM     21  H   UNL     1      35.547 -22.407 -20.111  0.00  0.00    -0.089 HD
ENDBRANCH  12  18
ENDBRANCH   1  12
TORSDOF 4
ENDMDL
MODEL 8
REMARK VINA RESULT:      -7.5      3.339      4.792
REMARK  Name = 439356
REMARK  4 active torsions:
REMARK  status: ('A' for Active; 'I' for Inactive)
REMARK    1  A    between atoms: C_1  and  C_3
REMARK    2  A    between atoms: C_1  and  C_12
REMARK    3  A    between atoms: C_12  and  C_15
REMARK    4  A    between atoms: C_12  and  N_18
REMARK                            x       y       z     vdW  Elec       q    Type
REMARK                         _______ _______ _______ _____ _____    ______ ____
ROOT
ATOM      1  C   UNL     1      34.416 -14.330 -22.405  0.00  0.00    +0.015 C 
ENDROOT
BRANCH   1   3
ATOM      2  N   UNL     1      34.956 -17.639 -20.959  0.00  0.00    -0.312 N 
ATOM      3  C   UNL     1      34.615 -15.758 -22.088  0.00  0.00    -0.008 C 
ATOM      4  C   UNL     1      34.641 -16.836 -23.017  0.00  0.00    +0.011 C 
ATOM      5  C   UNL     1      34.856 -18.005 -22.283  0.00  0.00    +0.048 C 
ATOM      6  C   UNL     1      34.811 -16.283 -20.832  0.00  0.00    +0.058 C 
ATOM      7  C   UNL     1      34.502 -16.931 -24.416  0.00  0.00    +0.001 C 
ATOM      8  C   UNL     1      34.939 -19.268 -22.880  0.00  0.00    +0.015 C 
ATOM      9  C   UNL     1      34.583 -18.188 -25.027  0.00  0.00    +0.000 C 
ATOM     10  C   UNL     1      34.798 -19.337 -24.269  0.00  0.00    +0.001 C 
ATOM     11  H   UNL     1      35.109 -18.262 -20.212  0.00  0.00    +0.152 HD
ENDBRANCH   1   3
BRANCH   1  12
ATOM     12  C   UNL     1      32.962 -13.977 -22.801  0.00  0.00    +0.017 C 
BRANCH  12  15
ATOM     13  O   UNL     1      32.426 -13.419 -20.502  0.00  0.00    -0.278 OA
ATOM     14  N   UNL     1      31.400 -12.229 -22.178  0.00  0.00    -0.330 N 
ATOM     15  C   UNL     1      32.260 -13.195 -21.699  0.00  0.00    +0.199 C 
ATOM     16  H   UNL     1      30.894 -11.666 -21.548  0.00  0.00    +0.145 HD
ATOM     17  H   UNL     1      31.291 -12.105 -23.148  0.00  0.00    +0.145 HD
ENDBRANCH  12  15
BRANCH  12  18
ATOM     18  N   UNL     1      32.948 -13.107 -23.978  0.00  0.00    +0.388 N 
ATOM     19  H   UNL     1      32.288 -13.474 -24.664  0.00  0.00    -0.089 HD
ATOM     20  H   UNL     1      33.881 -13.074 -24.388  0.00  0.00    -0.089 HD
ATOM     21  H   UNL     1      32.665 -12.167 -23.703  0.00  0.00    -0.089 HD
ENDBRANCH  12  18
ENDBRANCH   1  12
TORSDOF 4
ENDMDL
MODEL 9
REMARK VINA RESULT:      -7.5      7.200      9.285
REMARK  Name = 439356
REMARK  4 active torsions:
REMARK  status: ('A' for Active; 'I' for Inactive)
REMARK    1  A    between atoms: C_1  and  C_3
REMARK    2  A    between atoms: C_1  and  C_12
REMARK    3  A    between atoms: C_12  and  C_15
REMARK    4  A    between atoms: C_12  and  N_18
REMARK                            x       y       z     vdW  Elec       q    Type
REMARK                         _______ _______ _______ _____ _____    ______ ____
ROOT
ATOM      1  C   UNL     1      35.096 -23.570 -15.356  0.00  0.00    +0.015 C 
ENDROOT
BRANCH   1   3
ATOM      2  N   UNL     1      32.402 -22.916 -17.733  0.00  0.00    -0.312 N 
ATOM      3  C   UNL     1      33.838 -23.322 -16.090  0.00  0.00    -0.008 C 
ATOM      4  C   UNL     1      32.529 -23.267 -15.533  0.00  0.00    +0.011 C 
ATOM      5  C   UNL     1      31.647 -23.011 -16.585  0.00  0.00    +0.048 C 
ATOM      6  C   UNL     1      33.727 -23.104 -17.443  0.00  0.00    +0.058 C 
ATOM      7  C   UNL     1      32.009 -23.409 -14.232  0.00  0.00    +0.001 C 
ATOM      8  C   UNL     1      30.265 -22.890 -16.400  0.00  0.00    +0.015 C 
ATOM      9  C   UNL     1      30.628 -23.291 -14.032  0.00  0.00    +0.000 C 
ATOM     10  C   UNL     1      29.772 -23.035 -15.100  0.00  0.00    +0.001 C 
ATOM     11  H   UNL     1      32.041 -22.739 -18.632  0.00  0.00    +0.152 HD
ENDBRANCH   1   3
BRANCH   1  12
ATOM     12  C   UNL     1      35.197 -24.992 -14.756  0.00  0.00    +0.017 C 
BRANCH  12  15
ATOM     13  O   UNL     1      36.340 -26.874 -15.775  0.00  0.00    -0.278 OA
ATOM     14  N   UNL     1      37.583 -25.033 -15.191  0.00  0.00    -0.330 N 
ATOM     15  C   UNL     1      36.405 -25.741 -15.303  0.00  0.00    +0.199 C 
ATOM     16  H   UNL     1      38.425 -25.426 -15.515  0.00  0.00    +0.145 HD
ATOM     17  H   UNL     1      37.580 -24.135 -14.787  0.00  0.00    +0.145 HD
ENDBRANCH  12  15
BRANCH  12  18
ATOM     18  N   UNL     1      35.394 -24.925 -13.307  0.00  0.00    +0.388 N 
ATOM     19  H   UNL     1      35.661 -25.846 -12.957  0.00  0.00    -0.089 HD
ATOM     20  H   UNL     1      34.525 -24.630 -12.859  0.00  0.00    -0.089 HD
ATOM     21  H   UNL     1      36.130 -24.254 -13.094  0.00  0.00    -0.089 HD
ENDBRANCH  12  18
ENDBRANCH   1  12
TORSDOF 4
ENDMDL
