MODEL 1
REMARK VINA RESULT:      -8.1      0.000      0.000
REMARK  Name = 444773
REMARK  11 active torsions:
REMARK  status: ('A' for Active; 'I' for Inactive)
REMARK    1  A    between atoms: C_2  and  C_10
REMARK    2  A    between atoms: C_3  and  C_20
REMARK    3  A    between atoms: C_4  and  O_8
REMARK    4  A    between atoms: C_10  and  N_11
REMARK    5  A    between atoms: N_11  and  CA_14
REMARK    6  A    between atoms: CA_14  and  C_17
REMARK    7  A    between atoms: C_17  and  O_18
REMARK    8  A    between atoms: C_20  and  O_21
REMARK    9  A    between atoms: O_21  and  P_22
REMARK   10  A    between atoms: P_22  and  O_24
REMARK   11  A    between atoms: P_22  and  O_26
REMARK                            x       y       z     vdW  Elec       q    Type
REMARK                         _______ _______ _______ _____ _____    ______ ____
ROOT
ATOM      1  N   UNL     1      33.584 -23.310 -16.501  0.00  0.00    -0.245 NA
ATOM      2  C   UNL     1      36.107 -23.479 -15.333  0.00  0.00    -0.009 C 
ATOM      3  C   UNL     1      35.003 -23.978 -14.661  0.00  0.00    +0.024 C 
ATOM      4  C   UNL     1      35.965 -22.897 -16.582  0.00  0.00    +0.141 C 
ATOM      5  C   UNL     1      34.690 -22.837 -17.119  0.00  0.00    +0.092 C 
ATOM      6  C   UNL     1      33.771 -23.870 -15.283  0.00  0.00    +0.096 C 
ATOM      7  C   UNL     1      34.470 -22.221 -18.463  0.00  0.00    +0.055 C 
ENDROOT
BRANCH   4   8
ATOM      8  O   UNL     1      37.035 -22.402 -17.258  0.00  0.00    -0.505 OA
ATOM      9  H   UNL     1      37.846 -22.259 -16.811  0.00  0.00    +0.292 HD
ENDBRANCH   4   8
BRANCH   2  10
ATOM     10  C   ACE A   0      37.472 -23.570 -14.706  0.00  0.00    -0.051 C 
BRANCH  10  11
ATOM     11  N   UNL     1      38.321 -24.533 -15.392  0.00  0.00    +0.395 N 
ATOM     12  H1  UNL     1      39.167 -24.064 -15.715  0.00  0.00    -0.083 HD
ATOM     13  H2  UNL     1      37.805 -24.918 -16.184  0.00  0.00    -0.083 HD
BRANCH  11  14
ATOM     14  CA  UNL     1      38.690 -25.628 -14.497  0.00  0.00    +0.040 C 
ATOM     15  CB  UNL     1      37.752 -26.807 -14.713  0.00  0.00    -0.012 C 
BRANCH  14  17
ATOM     16  OXT UNL     1      40.958 -26.389 -13.987  0.00  0.00    -0.253 OA
ATOM     17  C   UNL     1      40.122 -26.017 -14.797  0.00  0.00    +0.293 C 
BRANCH  17  18
ATOM     18  O   UNL     1      40.371 -25.912 -16.130  0.00  0.00    -0.482 OA
ATOM     19  H   UNL     1      40.261 -25.088 -16.563  0.00  0.00    +0.295 HD
ENDBRANCH  17  18
ENDBRANCH  14  17
ENDBRANCH  11  14
ENDBRANCH  10  11
ENDBRANCH   2  10
BRANCH   3  20
ATOM     20  C   UNL     1      35.107 -24.611 -13.317  0.00  0.00    +0.181 C 
BRANCH  20  21
ATOM     21  O   UNL     1      35.289 -23.603 -12.329  0.00  0.00    -0.268 OA
BRANCH  21  22
ATOM     22  P   UNL     1      36.350 -23.875 -11.142  0.00  0.00    +0.473 P 
ATOM     23  O   UNL     1      37.279 -22.736 -10.844  0.00  0.00    -0.227 OA
BRANCH  22  24
ATOM     24  O   UNL     1      37.069 -25.258 -11.576  0.00  0.00    -0.303 OA
ATOM     25  H   UNL     1      37.502 -25.654 -10.804  0.00  0.00    +0.222 HD
ENDBRANCH  22  24
BRANCH  22  26
ATOM     26  O   UNL     1      35.400 -24.322  -9.911  0.00  0.00    -0.303 OA
ATOM     27  H   UNL     1      35.691 -23.877  -9.100  0.00  0.00    +0.222 HD
ENDBRANCH  22  26
ENDBRANCH  21  22
ENDBRANCH  20  21
ENDBRANCH   3  20
TORSDOF 11
ENDMDL
MODEL 2
REMARK VINA RESULT:      -8.1      3.751      6.395
REMARK  Name = 444773
REMARK  11 active torsions:
REMARK  status: ('A' for Active; 'I' for Inactive)
REMARK    1  A    between atoms: C_2  and  C_10
REMARK    2  A    between atoms: C_3  and  C_20
REMARK    3  A    between atoms: C_4  and  O_8
REMARK    4  A    between atoms: C_10  and  N_11
REMARK    5  A    between atoms: N_11  and  CA_14
REMARK    6  A    between atoms: CA_14  and  C_17
REMARK    7  A    between atoms: C_17  and  O_18
REMARK    8  A    between atoms: C_20  and  O_21
REMARK    9  A    between atoms: O_21  and  P_22
REMARK   10  A    between atoms: P_22  and  O_24
REMARK   11  A    between atoms: P_22  and  O_26
REMARK                            x       y       z     vdW  Elec       q    Type
REMARK                         _______ _______ _______ _____ _____    ______ ____
ROOT
ATOM      1  N   UNL     1      35.183 -23.211 -16.974  0.00  0.00    -0.245 NA
ATOM      2  C   UNL     1      32.742 -23.425 -15.649  0.00  0.00    -0.009 C 
ATOM      3  C   UNL     1      33.916 -23.740 -14.983  0.00  0.00    +0.024 C 
ATOM      4  C   UNL     1      32.774 -23.005 -16.969  0.00  0.00    +0.141 C 
ATOM      5  C   UNL     1      34.012 -22.915 -17.582  0.00  0.00    +0.092 C 
ATOM      6  C   UNL     1      35.104 -23.617 -15.686  0.00  0.00    +0.096 C 
ATOM      7  C   UNL     1      34.113 -22.468 -19.004  0.00  0.00    +0.055 C 
ENDROOT
BRANCH   4   8
ATOM      8  O   UNL     1      31.634 -22.692 -17.639  0.00  0.00    -0.505 OA
ATOM      9  H   UNL     1      31.606 -22.760 -18.573  0.00  0.00    +0.292 HD
ENDBRANCH   4   8
BRANCH   2  10
ATOM     10  C   ACE A   0      31.421 -23.539 -14.936  0.00  0.00    -0.051 C 
BRANCH  10  11
ATOM     11  N   UNL     1      30.456 -24.310 -15.704  0.00  0.00    +0.395 N 
ATOM     12  H1  UNL     1      30.488 -25.283 -15.402  0.00  0.00    -0.083 HD
ATOM     13  H2  UNL     1      30.692 -24.237 -16.694  0.00  0.00    -0.083 HD
BRANCH  11  14
ATOM     14  CA  UNL     1      29.104 -23.791 -15.506  0.00  0.00    +0.040 C 
ATOM     15  CB  UNL     1      29.170 -22.438 -14.811  0.00  0.00    -0.012 C 
BRANCH  14  17
ATOM     16  OXT UNL     1      27.787 -24.526 -17.432  0.00  0.00    -0.253 OA
ATOM     17  C   UNL     1      28.444 -23.666 -16.862  0.00  0.00    +0.293 C 
BRANCH  17  18
ATOM     18  O   UNL     1      28.669 -22.431 -17.386  0.00  0.00    -0.482 OA
ATOM     19  H   UNL     1      28.568 -22.288 -18.306  0.00  0.00    +0.295 HD
ENDBRANCH  17  18
ENDBRANCH  14  17
ENDBRANCH  11  14
ENDBRANCH  10  11
ENDBRANCH   2  10
BRANCH   3  20
ATOM     20  C   UNL     1      33.931 -24.195 -13.566  0.00  0.00    +0.181 C 
BRANCH  20  21
ATOM     21  O   UNL     1      35.081 -23.672 -12.911  0.00  0.00    -0.268 OA
BRANCH  21  22
ATOM     22  P   UNL     1      35.923 -24.651 -11.940  0.00  0.00    +0.473 P 
ATOM     23  O   UNL     1      35.244 -25.008 -10.651  0.00  0.00    -0.227 OA
BRANCH  22  24
ATOM     24  O   UNL     1      37.351 -23.906 -11.785  0.00  0.00    -0.303 OA
ATOM     25  H   UNL     1      37.214 -22.945 -11.767  0.00  0.00    +0.222 HD
ENDBRANCH  22  24
BRANCH  22  26
ATOM     26  O   UNL     1      36.261 -25.904 -12.904  0.00  0.00    -0.303 OA
ATOM     27  H   UNL     1      35.610 -25.946 -13.622  0.00  0.00    +0.222 HD
ENDBRANCH  22  26
ENDBRANCH  21  22
ENDBRANCH  20  21
ENDBRANCH   3  20
TORSDOF 11
ENDMDL
MODEL 3
REMARK VINA RESULT:      -8.0      3.542      6.221
REMARK  Name = 444773
REMARK  11 active torsions:
REMARK  status: ('A' for Active; 'I' for Inactive)
REMARK    1  A    between atoms: C_2  and  C_10
REMARK    2  A    between atoms: C_3  and  C_20
REMARK    3  A    between atoms: C_4  and  O_8
REMARK    4  A    between atoms: C_10  and  N_11
REMARK    5  A    between atoms: N_11  and  CA_14
REMARK    6  A    between atoms: CA_14  and  C_17
REMARK    7  A    between atoms: C_17  and  O_18
REMARK    8  A    between atoms: C_20  and  O_21
REMARK    9  A    between atoms: O_21  and  P_22
REMARK   10  A    between atoms: P_22  and  O_24
REMARK   11  A    between atoms: P_22  and  O_26
REMARK                            x       y       z     vdW  Elec       q    Type
REMARK                         _______ _______ _______ _____ _____    ______ ____
ROOT
ATOM      1  N   UNL     1      36.382 -21.292 -18.538  0.00  0.00    -0.245 NA
ATOM      2  C   UNL     1      34.179 -22.781 -17.710  0.00  0.00    -0.009 C 
ATOM      3  C   UNL     1      35.302 -22.707 -16.903  0.00  0.00    +0.024 C 
ATOM      4  C   UNL     1      34.144 -22.120 -18.927  0.00  0.00    +0.141 C 
ATOM      5  C   UNL     1      35.265 -21.393 -19.293  0.00  0.00    +0.092 C 
ATOM      6  C   UNL     1      36.371 -21.954 -17.359  0.00  0.00    +0.096 C 
ATOM      7  C   UNL     1      35.289 -20.657 -20.593  0.00  0.00    +0.055 C 
ENDROOT
BRANCH   4   8
ATOM      8  O   UNL     1      33.052 -22.180 -19.734  0.00  0.00    -0.505 OA
ATOM      9  H   UNL     1      32.314 -22.701 -19.486  0.00  0.00    +0.292 HD
ENDBRANCH   4   8
BRANCH   2  10
ATOM     10  C   ACE A   0      32.986 -23.584 -17.266  0.00  0.00    -0.051 C 
BRANCH  10  11
ATOM     11  N   UNL     1      31.803 -22.752 -17.105  0.00  0.00    +0.395 N 
ATOM     12  H1  UNL     1      31.307 -22.698 -17.994  0.00  0.00    -0.083 HD
ATOM     13  H2  UNL     1      32.095 -21.822 -16.805  0.00  0.00    -0.083 HD
BRANCH  11  14
ATOM     14  CA  UNL     1      30.910 -23.312 -16.092  0.00  0.00    +0.040 C 
ATOM     15  CB  UNL     1      31.199 -22.670 -14.741  0.00  0.00    -0.012 C 
BRANCH  14  17
ATOM     16  OXT UNL     1      29.044 -21.990 -16.961  0.00  0.00    -0.253 OA
ATOM     17  C   UNL     1      29.484 -23.043 -16.521  0.00  0.00    +0.293 C 
BRANCH  17  18
ATOM     18  O   UNL     1      28.724 -24.160 -16.365  0.00  0.00    -0.482 OA
ATOM     19  H   UNL     1      29.057 -24.993 -16.634  0.00  0.00    +0.295 HD
ENDBRANCH  17  18
ENDBRANCH  14  17
ENDBRANCH  11  14
ENDBRANCH  10  11
ENDBRANCH   2  10
BRANCH   3  20
ATOM     20  C   UNL     1      35.385 -23.401 -15.587  0.00  0.00    +0.181 C 
BRANCH  20  21
ATOM     21  O   UNL     1      36.040 -24.654 -15.752  0.00  0.00    -0.268 OA
BRANCH  21  22
ATOM     22  P   UNL     1      37.196 -25.060 -14.700  0.00  0.00    +0.473 P 
ATOM     23  O   UNL     1      38.068 -23.927 -14.242  0.00  0.00    -0.227 OA
BRANCH  22  24
ATOM     24  O   UNL     1      37.971 -26.277 -15.430  0.00  0.00    -0.303 OA
ATOM     25  H   UNL     1      37.557 -27.119 -15.183  0.00  0.00    +0.222 HD
ENDBRANCH  22  24
BRANCH  22  26
ATOM     26  O   UNL     1      36.365 -25.799 -13.526  0.00  0.00    -0.303 OA
ATOM     27  H   UNL     1      35.533 -26.144 -13.886  0.00  0.00    +0.222 HD
ENDBRANCH  22  26
ENDBRANCH  21  22
ENDBRANCH  20  21
ENDBRANCH   3  20
TORSDOF 11
ENDMDL
MODEL 4
REMARK VINA RESULT:      -7.9      2.660      3.688
REMARK  Name = 444773
REMARK  11 active torsions:
REMARK  status: ('A' for Active; 'I' for Inactive)
REMARK    1  A    between atoms: C_2  and  C_10
REMARK    2  A    between atoms: C_3  and  C_20
REMARK    3  A    between atoms: C_4  and  O_8
REMARK    4  A    between atoms: C_10  and  N_11
REMARK    5  A    between atoms: N_11  and  CA_14
REMARK    6  A    between atoms: CA_14  and  C_17
REMARK    7  A    between atoms: C_17  and  O_18
REMARK    8  A    between atoms: C_20  and  O_21
REMARK    9  A    between atoms: O_21  and  P_22
REMARK   10  A    between atoms: P_22  and  O_24
REMARK   11  A    between atoms: P_22  and  O_26
REMARK                            x       y       z     vdW  Elec       q    Type
REMARK                         _______ _______ _______ _____ _____    ______ ____
ROOT
ATOM      1  N   UNL     1      34.423 -22.729 -17.978  0.00  0.00    -0.245 NA
ATOM      2  C   UNL     1      35.669 -22.975 -15.499  0.00  0.00    -0.009 C 
ATOM      3  C   UNL     1      34.409 -23.518 -15.692  0.00  0.00    +0.024 C 
ATOM      4  C   UNL     1      36.313 -22.310 -16.529  0.00  0.00    +0.141 C 
ATOM      5  C   UNL     1      35.651 -22.215 -17.742  0.00  0.00    +0.092 C 
ATOM      6  C   UNL     1      33.832 -23.370 -16.943  0.00  0.00    +0.096 C 
ATOM      7  C   UNL     1      36.292 -21.510 -18.893  0.00  0.00    +0.055 C 
ENDROOT
BRANCH   4   8
ATOM      8  O   UNL     1      37.548 -21.769 -16.360  0.00  0.00    -0.505 OA
ATOM      9  H   UNL     1      37.752 -20.938 -16.742  0.00  0.00    +0.292 HD
ENDBRANCH   4   8
BRANCH   2  10
ATOM     10  C   ACE A   0      36.346 -23.107 -14.161  0.00  0.00    -0.051 C 
BRANCH  10  11
ATOM     11  N   UNL     1      37.629 -23.786 -14.268  0.00  0.00    +0.395 N 
ATOM     12  H1  UNL     1      38.377 -23.094 -14.237  0.00  0.00    -0.083 HD
ATOM     13  H2  UNL     1      37.655 -24.298 -15.150  0.00  0.00    -0.083 HD
BRANCH  11  14
ATOM     14  CA  UNL     1      37.805 -24.734 -13.170  0.00  0.00    +0.040 C 
ATOM     15  CB  UNL     1      39.016 -25.616 -13.443  0.00  0.00    -0.012 C 
BRANCH  14  17
ATOM     16  OXT UNL     1      38.804 -23.048 -11.705  0.00  0.00    -0.253 OA
ATOM     17  C   UNL     1      37.993 -23.944 -11.893  0.00  0.00    +0.293 C 
BRANCH  17  18
ATOM     18  O   UNL     1      37.109 -24.358 -10.946  0.00  0.00    -0.482 OA
ATOM     19  H   UNL     1      36.438 -23.777 -10.647  0.00  0.00    +0.295 HD
ENDBRANCH  17  18
ENDBRANCH  14  17
ENDBRANCH  11  14
ENDBRANCH  10  11
ENDBRANCH   2  10
BRANCH   3  20
ATOM     20  C   UNL     1      33.678 -24.241 -14.615  0.00  0.00    +0.181 C 
BRANCH  20  21
ATOM     21  O   UNL     1      32.289 -24.269 -14.920  0.00  0.00    -0.268 OA
BRANCH  21  22
ATOM     22  P   UNL     1      31.254 -23.662 -13.839  0.00  0.00    +0.473 P 
ATOM     23  O   UNL     1      30.113 -22.878 -14.419  0.00  0.00    -0.227 OA
BRANCH  22  24
ATOM     24  O   UNL     1      32.202 -22.845 -12.814  0.00  0.00    -0.303 OA
ATOM     25  H   UNL     1      31.941 -21.910 -12.806  0.00  0.00    +0.222 HD
ENDBRANCH  22  24
BRANCH  22  26
ATOM     26  O   UNL     1      30.823 -24.966 -12.986  0.00  0.00    -0.303 OA
ATOM     27  H   UNL     1      29.859 -24.976 -12.874  0.00  0.00    +0.222 HD
ENDBRANCH  22  26
ENDBRANCH  21  22
ENDBRANCH  20  21
ENDBRANCH   3  20
TORSDOF 11
ENDMDL
MODEL 5
REMARK VINA RESULT:      -7.8      2.616      3.473
REMARK  Name = 444773
REMARK  11 active torsions:
REMARK  status: ('A' for Active; 'I' for Inactive)
REMARK    1  A    between atoms: C_2  and  C_10
REMARK    2  A    between atoms: C_3  and  C_20
REMARK    3  A    between atoms: C_4  and  O_8
REMARK    4  A    between atoms: C_10  and  N_11
REMARK    5  A    between atoms: N_11  and  CA_14
REMARK    6  A    between atoms: CA_14  and  C_17
REMARK    7  A    between atoms: C_17  and  O_18
REMARK    8  A    between atoms: C_20  and  O_21
REMARK    9  A    between atoms: O_21  and  P_22
REMARK   10  A    between atoms: P_22  and  O_24
REMARK   11  A    between atoms: P_22  and  O_26
REMARK                            x       y       z     vdW  Elec       q    Type
REMARK                         _______ _______ _______ _____ _____    ______ ____
ROOT
ATOM      1  N   UNL     1      34.298 -22.841 -17.715  0.00  0.00    -0.245 NA
ATOM      2  C   UNL     1      35.793 -23.116 -15.381  0.00  0.00    -0.009 C 
ATOM      3  C   UNL     1      34.514 -23.642 -15.444  0.00  0.00    +0.024 C 
ATOM      4  C   UNL     1      36.335 -22.454 -16.471  0.00  0.00    +0.141 C 
ATOM      5  C   UNL     1      35.551 -22.343 -17.607  0.00  0.00    +0.092 C 
ATOM      6  C   UNL     1      33.811 -23.479 -16.626  0.00  0.00    +0.096 C 
ATOM      7  C   UNL     1      36.077 -21.641 -18.816  0.00  0.00    +0.055 C 
ENDROOT
BRANCH   4   8
ATOM      8  O   UNL     1      37.588 -21.930 -16.429  0.00  0.00    -0.505 OA
ATOM      9  H   UNL     1      38.332 -22.484 -16.562  0.00  0.00    +0.292 HD
ENDBRANCH   4   8
BRANCH   2  10
ATOM     10  C   ACE A   0      36.605 -23.264 -14.122  0.00  0.00    -0.051 C 
BRANCH  10  11
ATOM     11  N   UNL     1      37.766 -24.119 -14.323  0.00  0.00    +0.395 N 
ATOM     12  H1  UNL     1      38.553 -23.548 -14.629  0.00  0.00    -0.083 HD
ATOM     13  H2  UNL     1      37.538 -24.818 -15.030  0.00  0.00    -0.083 HD
BRANCH  11  14
ATOM     14  CA  UNL     1      38.124 -24.805 -13.084  0.00  0.00    +0.040 C 
ATOM     15  CB  UNL     1      37.698 -23.963 -11.889  0.00  0.00    -0.012 C 
BRANCH  14  17
ATOM     16  OXT UNL     1      37.498 -27.012 -13.933  0.00  0.00    -0.253 OA
ATOM     17  C   UNL     1      37.426 -26.148 -13.071  0.00  0.00    +0.293 C 
BRANCH  17  18
ATOM     18  O   UNL     1      36.689 -26.288 -11.936  0.00  0.00    -0.482 OA
ATOM     19  H   UNL     1      35.885 -26.768 -11.956  0.00  0.00    +0.295 HD
ENDBRANCH  17  18
ENDBRANCH  14  17
ENDBRANCH  11  14
ENDBRANCH  10  11
ENDBRANCH   2  10
BRANCH   3  20
ATOM     20  C   UNL     1      33.890 -24.361 -14.298  0.00  0.00    +0.181 C 
BRANCH  20  21
ATOM     21  O   UNL     1      32.502 -24.547 -14.553  0.00  0.00    -0.268 OA
BRANCH  21  22
ATOM     22  P   UNL     1      31.444 -23.638 -13.737  0.00  0.00    +0.473 P 
ATOM     23  O   UNL     1      30.588 -22.743 -14.584  0.00  0.00    -0.227 OA
BRANCH  22  24
ATOM     24  O   UNL     1      32.355 -22.883 -12.634  0.00  0.00    -0.303 OA
ATOM     25  H   UNL     1      32.276 -21.924 -12.751  0.00  0.00    +0.222 HD
ENDBRANCH  22  24
BRANCH  22  26
ATOM     26  O   UNL     1      30.634 -24.732 -12.865  0.00  0.00    -0.303 OA
ATOM     27  H   UNL     1      29.713 -24.770 -13.166  0.00  0.00    +0.222 HD
ENDBRANCH  22  26
ENDBRANCH  21  22
ENDBRANCH  20  21
ENDBRANCH   3  20
TORSDOF 11
ENDMDL
MODEL 6
REMARK VINA RESULT:      -7.8      2.491      3.694
REMARK  Name = 444773
REMARK  11 active torsions:
REMARK  status: ('A' for Active; 'I' for Inactive)
REMARK    1  A    between atoms: C_2  and  C_10
REMARK    2  A    between atoms: C_3  and  C_20
REMARK    3  A    between atoms: C_4  and  O_8
REMARK    4  A    between atoms: C_10  and  N_11
REMARK    5  A    between atoms: N_11  and  CA_14
REMARK    6  A    between atoms: CA_14  and  C_17
REMARK    7  A    between atoms: C_17  and  O_18
REMARK    8  A    between atoms: C_20  and  O_21
REMARK    9  A    between atoms: O_21  and  P_22
REMARK   10  A    between atoms: P_22  and  O_24
REMARK   11  A    between atoms: P_22  and  O_26
REMARK                            x       y       z     vdW  Elec       q    Type
REMARK                         _______ _______ _______ _____ _____    ______ ____
ROOT
ATOM      1  N   UNL     1      30.477 -23.668 -14.104  0.00  0.00    -0.245 NA
ATOM      2  C   UNL     1      32.837 -23.513 -15.575  0.00  0.00    -0.009 C 
ATOM      3  C   UNL     1      32.855 -24.058 -14.302  0.00  0.00    +0.024 C 
ATOM      4  C   UNL     1      31.654 -23.043 -16.122  0.00  0.00    +0.141 C 
ATOM      5  C   UNL     1      30.508 -23.143 -15.350  0.00  0.00    +0.092 C 
ATOM      6  C   UNL     1      31.655 -24.113 -13.611  0.00  0.00    +0.096 C 
ATOM      7  C   UNL     1      29.201 -22.655 -15.883  0.00  0.00    +0.055 C 
ENDROOT
BRANCH   4   8
ATOM      8  O   UNL     1      31.616 -22.504 -17.369  0.00  0.00    -0.505 OA
ATOM      9  H   UNL     1      31.024 -21.802 -17.558  0.00  0.00    +0.292 HD
ENDBRANCH   4   8
BRANCH   2  10
ATOM     10  C   ACE A   0      34.111 -23.429 -16.373  0.00  0.00    -0.051 C 
BRANCH  10  11
ATOM     11  N   UNL     1      35.121 -22.627 -15.698  0.00  0.00    +0.395 N 
ATOM     12  H1  UNL     1      35.101 -22.835 -14.700  0.00  0.00    -0.083 HD
ATOM     13  H2  UNL     1      34.918 -21.641 -15.860  0.00  0.00    -0.083 HD
BRANCH  11  14
ATOM     14  CA  UNL     1      36.452 -22.925 -16.222  0.00  0.00    +0.040 C 
ATOM     15  CB  UNL     1      37.192 -21.626 -16.513  0.00  0.00    -0.012 C 
BRANCH  14  17
ATOM     16  OXT UNL     1      37.789 -23.314 -14.211  0.00  0.00    -0.253 OA
ATOM     17  C   UNL     1      37.193 -23.744 -15.188  0.00  0.00    +0.293 C 
BRANCH  17  18
ATOM     18  O   UNL     1      37.102 -25.070 -15.480  0.00  0.00    -0.482 OA
ATOM     19  H   UNL     1      36.899 -25.343 -16.353  0.00  0.00    +0.295 HD
ENDBRANCH  17  18
ENDBRANCH  14  17
ENDBRANCH  11  14
ENDBRANCH  10  11
ENDBRANCH   2  10
BRANCH   3  20
ATOM     20  C   UNL     1      34.102 -24.575 -13.673  0.00  0.00    +0.181 C 
BRANCH  20  21
ATOM     21  O   UNL     1      34.241 -24.022 -12.369  0.00  0.00    -0.268 OA
BRANCH  21  22
ATOM     22  P   UNL     1      35.552 -24.408 -11.507  0.00  0.00    +0.473 P 
ATOM     23  O   UNL     1      35.286 -24.800 -10.084  0.00  0.00    -0.227 OA
BRANCH  22  24
ATOM     24  O   UNL     1      36.529 -23.133 -11.702  0.00  0.00    -0.303 OA
ATOM     25  H   UNL     1      36.300 -22.672 -12.524  0.00  0.00    +0.222 HD
ENDBRANCH  22  24
BRANCH  22  26
ATOM     26  O   UNL     1      36.249 -25.552 -12.413  0.00  0.00    -0.303 OA
ATOM     27  H   UNL     1      35.710 -26.357 -12.389  0.00  0.00    +0.222 HD
ENDBRANCH  22  26
ENDBRANCH  21  22
ENDBRANCH  20  21
ENDBRANCH   3  20
TORSDOF 11
ENDMDL
MODEL 7
REMARK VINA RESULT:      -7.8      2.891      5.256
REMARK  Name = 444773
REMARK  11 active torsions:
REMARK  status: ('A' for Active; 'I' for Inactive)
REMARK    1  A    between atoms: C_2  and  C_10
REMARK    2  A    between atoms: C_3  and  C_20
REMARK    3  A    between atoms: C_4  and  O_8
REMARK    4  A    between atoms: C_10  and  N_11
REMARK    5  A    between atoms: N_11  and  CA_14
REMARK    6  A    between atoms: CA_14  and  C_17
REMARK    7  A    between atoms: C_17  and  O_18
REMARK    8  A    between atoms: C_20  and  O_21
REMARK    9  A    between atoms: O_21  and  P_22
REMARK   10  A    between atoms: P_22  and  O_24
REMARK   11  A    between atoms: P_22  and  O_26
REMARK                            x       y       z     vdW  Elec       q    Type
REMARK                         _______ _______ _______ _____ _____    ______ ____
ROOT
ATOM      1  N   UNL     1      36.145 -22.378 -17.296  0.00  0.00    -0.245 NA
ATOM      2  C   UNL     1      33.638 -23.362 -16.588  0.00  0.00    -0.009 C 
ATOM      3  C   UNL     1      34.712 -23.535 -15.731  0.00  0.00    +0.024 C 
ATOM      4  C   UNL     1      33.802 -22.703 -17.796  0.00  0.00    +0.141 C 
ATOM      5  C   UNL     1      35.069 -22.233 -18.101  0.00  0.00    +0.092 C 
ATOM      6  C   UNL     1      35.938 -23.028 -16.128  0.00  0.00    +0.096 C 
ATOM      7  C   UNL     1      35.311 -21.514 -19.388  0.00  0.00    +0.055 C 
ENDROOT
BRANCH   4   8
ATOM      8  O   UNL     1      32.762 -22.524 -18.652  0.00  0.00    -0.505 OA
ATOM      9  H   UNL     1      32.420 -23.251 -19.133  0.00  0.00    +0.292 HD
ENDBRANCH   4   8
BRANCH   2  10
ATOM     10  C   ACE A   0      32.281 -23.892 -16.209  0.00  0.00    -0.051 C 
BRANCH  10  11
ATOM     11  N   UNL     1      31.436 -22.854 -15.636  0.00  0.00    +0.395 N 
ATOM     12  H1  UNL     1      30.996 -22.326 -16.389  0.00  0.00    -0.083 HD
ATOM     13  H2  UNL     1      32.015 -22.240 -15.063  0.00  0.00    -0.083 HD
BRANCH  11  14
ATOM     14  CA  UNL     1      30.397 -23.441 -14.792  0.00  0.00    +0.040 C 
ATOM     15  CB  UNL     1      29.850 -24.700 -15.451  0.00  0.00    -0.012 C 
BRANCH  14  17
ATOM     16  OXT UNL     1      31.773 -23.052 -12.807  0.00  0.00    -0.253 OA
ATOM     17  C   UNL     1      31.011 -23.763 -13.446  0.00  0.00    +0.293 C 
BRANCH  17  18
ATOM     18  O   UNL     1      30.586 -24.980 -13.011  0.00  0.00    -0.482 OA
ATOM     19  H   UNL     1      31.195 -25.687 -12.933  0.00  0.00    +0.295 HD
ENDBRANCH  17  18
ENDBRANCH  14  17
ENDBRANCH  11  14
ENDBRANCH  10  11
ENDBRANCH   2  10
BRANCH   3  20
ATOM     20  C   UNL     1      34.583 -24.237 -14.423  0.00  0.00    +0.181 C 
BRANCH  20  21
ATOM     21  O   UNL     1      35.854 -24.290 -13.786  0.00  0.00    -0.268 OA
BRANCH  21  22
ATOM     22  P   UNL     1      35.938 -23.936 -12.211  0.00  0.00    +0.473 P 
ATOM     23  O   UNL     1      36.946 -22.886 -11.847  0.00  0.00    -0.227 OA
BRANCH  22  24
ATOM     24  O   UNL     1      36.153 -25.375 -11.504  0.00  0.00    -0.303 OA
ATOM     25  H   UNL     1      36.523 -26.000 -12.148  0.00  0.00    +0.222 HD
ENDBRANCH  22  24
BRANCH  22  26
ATOM     26  O   UNL     1      34.406 -23.569 -11.847  0.00  0.00    -0.303 OA
ATOM     27  H   UNL     1      33.937 -23.298 -12.652  0.00  0.00    +0.222 HD
ENDBRANCH  22  26
ENDBRANCH  21  22
ENDBRANCH  20  21
ENDBRANCH   3  20
TORSDOF 11
ENDMDL
MODEL 8
REMARK VINA RESULT:      -7.7      2.472      5.938
REMARK  Name = 444773
REMARK  11 active torsions:
REMARK  status: ('A' for Active; 'I' for Inactive)
REMARK    1  A    between atoms: C_2  and  C_10
REMARK    2  A    between atoms: C_3  and  C_20
REMARK    3  A    between atoms: C_4  and  O_8
REMARK    4  A    between atoms: C_10  and  N_11
REMARK    5  A    between atoms: N_11  and  CA_14
REMARK    6  A    between atoms: CA_14  and  C_17
REMARK    7  A    between atoms: C_17  and  O_18
REMARK    8  A    between atoms: C_20  and  O_21
REMARK    9  A    between atoms: O_21  and  P_22
REMARK   10  A    between atoms: P_22  and  O_24
REMARK   11  A    between atoms: P_22  and  O_26
REMARK                            x       y       z     vdW  Elec       q    Type
REMARK                         _______ _______ _______ _____ _____    ______ ____
ROOT
ATOM      1  N   UNL     1      37.327 -24.212 -11.211  0.00  0.00    -0.245 NA
ATOM      2  C   UNL     1      36.070 -24.422 -13.687  0.00  0.00    -0.009 C 
ATOM      3  C   UNL     1      37.441 -24.234 -13.626  0.00  0.00    +0.024 C 
ATOM      4  C   UNL     1      35.319 -24.505 -12.526  0.00  0.00    +0.141 C 
ATOM      5  C   UNL     1      35.992 -24.395 -11.320  0.00  0.00    +0.092 C 
ATOM      6  C   UNL     1      38.019 -24.137 -12.371  0.00  0.00    +0.096 C 
ATOM      7  C   UNL     1      35.240 -24.477 -10.032  0.00  0.00    +0.055 C 
ENDROOT
BRANCH   4   8
ATOM      8  O   UNL     1      33.973 -24.688 -12.564  0.00  0.00    -0.505 OA
ATOM      9  H   UNL     1      33.398 -23.985 -12.334  0.00  0.00    +0.292 HD
ENDBRANCH   4   8
BRANCH   2  10
ATOM     10  C   ACE A   0      35.386 -24.536 -15.024  0.00  0.00    -0.051 C 
BRANCH  10  11
ATOM     11  N   UNL     1      34.647 -23.329 -15.360  0.00  0.00    +0.395 N 
ATOM     12  H1  UNL     1      35.236 -22.722 -15.930  0.00  0.00    -0.083 HD
ATOM     13  H2  UNL     1      34.383 -22.856 -14.495  0.00  0.00    -0.083 HD
BRANCH  11  14
ATOM     14  CA  UNL     1      33.433 -23.656 -16.105  0.00  0.00    +0.040 C 
ATOM     15  CB  UNL     1      32.217 -23.102 -15.376  0.00  0.00    -0.012 C 
BRANCH  14  17
ATOM     16  OXT UNL     1      34.578 -22.940 -18.146  0.00  0.00    -0.253 OA
ATOM     17  C   UNL     1      33.553 -23.050 -17.487  0.00  0.00    +0.293 C 
BRANCH  17  18
ATOM     18  O   UNL     1      32.335 -22.639 -17.931  0.00  0.00    -0.482 OA
ATOM     19  H   UNL     1      31.634 -22.512 -17.322  0.00  0.00    +0.295 HD
ENDBRANCH  17  18
ENDBRANCH  14  17
ENDBRANCH  11  14
ENDBRANCH  10  11
ENDBRANCH   2  10
BRANCH   3  20
ATOM     20  C   UNL     1      38.288 -24.138 -14.848  0.00  0.00    +0.181 C 
BRANCH  20  21
ATOM     21  O   UNL     1      39.632 -24.469 -14.520  0.00  0.00    -0.268 OA
BRANCH  21  22
ATOM     22  P   UNL     1      40.131 -25.987 -14.763  0.00  0.00    +0.473 P 
ATOM     23  O   UNL     1      41.182 -26.473 -13.810  0.00  0.00    -0.227 OA
BRANCH  22  24
ATOM     24  O   UNL     1      40.550 -26.008 -16.326  0.00  0.00    -0.303 OA
ATOM     25  H   UNL     1      40.847 -26.899 -16.569  0.00  0.00    +0.222 HD
ENDBRANCH  22  24
BRANCH  22  26
ATOM     26  O   UNL     1      38.747 -26.823 -14.739  0.00  0.00    -0.303 OA
ATOM     27  H   UNL     1      38.943 -27.772 -14.679  0.00  0.00    +0.222 HD
ENDBRANCH  22  26
ENDBRANCH  21  22
ENDBRANCH  20  21
ENDBRANCH   3  20
TORSDOF 11
ENDMDL
MODEL 9
REMARK VINA RESULT:      -7.7      4.541      6.835
REMARK  Name = 444773
REMARK  11 active torsions:
REMARK  status: ('A' for Active; 'I' for Inactive)
REMARK    1  A    between atoms: C_2  and  C_10
REMARK    2  A    between atoms: C_3  and  C_20
REMARK    3  A    between atoms: C_4  and  O_8
REMARK    4  A    between atoms: C_10  and  N_11
REMARK    5  A    between atoms: N_11  and  CA_14
REMARK    6  A    between atoms: CA_14  and  C_17
REMARK    7  A    between atoms: C_17  and  O_18
REMARK    8  A    between atoms: C_20  and  O_21
REMARK    9  A    between atoms: O_21  and  P_22
REMARK   10  A    between atoms: P_22  and  O_24
REMARK   11  A    between atoms: P_22  and  O_26
REMARK                            x       y       z     vdW  Elec       q    Type
REMARK                         _______ _______ _______ _____ _____    ______ ____
ROOT
ATOM      1  N   UNL     1      32.972 -23.827 -13.310  0.00  0.00    -0.245 NA
ATOM      2  C   UNL     1      33.323 -23.527 -16.057  0.00  0.00    -0.009 C 
ATOM      3  C   UNL     1      32.074 -23.315 -15.496  0.00  0.00    +0.024 C 
ATOM      4  C   UNL     1      34.398 -23.888 -15.262  0.00  0.00    +0.141 C 
ATOM      5  C   UNL     1      34.172 -24.024 -13.902  0.00  0.00    +0.092 C 
ATOM      6  C   UNL     1      31.951 -23.477 -14.126  0.00  0.00    +0.096 C 
ATOM      7  C   UNL     1      35.291 -24.411 -12.991  0.00  0.00    +0.055 C 
ENDROOT
BRANCH   4   8
ATOM      8  O   UNL     1      35.631 -24.101 -15.792  0.00  0.00    -0.505 OA
ATOM      9  H   UNL     1      35.747 -24.102 -16.722  0.00  0.00    +0.292 HD
ENDBRANCH   4   8
BRANCH   2  10
ATOM     10  C   ACE A   0      33.517 -23.365 -17.541  0.00  0.00    -0.051 C 
BRANCH  10  11
ATOM     11  N   UNL     1      34.616 -22.461 -17.847  0.00  0.00    +0.395 N 
ATOM     12  H1  UNL     1      35.499 -22.922 -17.633  0.00  0.00    -0.083 HD
ATOM     13  H2  UNL     1      34.511 -21.616 -17.286  0.00  0.00    -0.083 HD
BRANCH  11  14
ATOM     14  CA  UNL     1      34.600 -22.089 -19.261  0.00  0.00    +0.040 C 
ATOM     15  CB  UNL     1      33.355 -21.267 -19.563  0.00  0.00    -0.012 C 
BRANCH  14  17
ATOM     16  OXT UNL     1      36.021 -20.512 -20.477  0.00  0.00    -0.253 OA
ATOM     17  C   UNL     1      35.854 -21.292 -19.551  0.00  0.00    +0.293 C 
BRANCH  17  18
ATOM     18  O   UNL     1      36.806 -21.550 -18.613  0.00  0.00    -0.482 OA
ATOM     19  H   UNL     1      37.702 -21.640 -18.870  0.00  0.00    +0.295 HD
ENDBRANCH  17  18
ENDBRANCH  14  17
ENDBRANCH  11  14
ENDBRANCH  10  11
ENDBRANCH   2  10
BRANCH   3  20
ATOM     20  C   UNL     1      30.890 -22.927 -16.311  0.00  0.00    +0.181 C 
BRANCH  20  21
ATOM     21  O   UNL     1      29.833 -23.852 -16.083  0.00  0.00    -0.268 OA
BRANCH  21  22
ATOM     22  P   UNL     1      28.350 -23.463 -16.593  0.00  0.00    +0.473 P 
ATOM     23  O   UNL     1      27.732 -24.434 -17.556  0.00  0.00    -0.227 OA
BRANCH  22  24
ATOM     24  O   UNL     1      28.516 -21.952 -17.146  0.00  0.00    -0.303 OA
ATOM     25  H   UNL     1      28.112 -21.332 -16.519  0.00  0.00    +0.222 HD
ENDBRANCH  22  24
BRANCH  22  26
ATOM     26  O   UNL     1      27.538 -23.264 -15.208  0.00  0.00    -0.303 OA
ATOM     27  H   UNL     1      26.932 -24.010 -15.078  0.00  0.00    +0.222 HD
ENDBRANCH  22  26
ENDBRANCH  21  22
ENDBRANCH  20  21
ENDBRANCH   3  20
TORSDOF 11
ENDMDL
