MODEL 1
REMARK VINA RESULT:      -8.7      0.000      0.000
REMARK  Name = 37464
REMARK  8 active torsions:
REMARK  status: ('A' for Active; 'I' for Inactive)
REMARK    1  A    between atoms: O_1  and  C_3
REMARK    2  A    between atoms: O_1  and  C_13
REMARK    3  A    between atoms: C_2  and  C_8
REMARK    4  A    between atoms: C_13  and  C_14
REMARK    5  A    between atoms: C_14  and  O_15
REMARK    6  A    between atoms: C_14  and  C_17
REMARK    7  A    between atoms: C_17  and  N_18
REMARK    8  A    between atoms: N_18  and  C_21
REMARK                            x       y       z     vdW  Elec       q    Type
REMARK                         _______ _______ _______ _____ _____    ______ ____
ROOT
ATOM      1  O   UNL     1      33.504 -13.615 -22.765  0.00  0.00    -0.473 OA
ENDROOT
BRANCH   1   3
ATOM      2  C   UNL     1      33.723 -12.180 -24.672  0.00  0.00    +0.011 C 
ATOM      3  C   UNL     1      33.457 -13.429 -24.120  0.00  0.00    +0.135 C 
ATOM      4  C   UNL     1      33.671 -12.008 -26.055  0.00  0.00    -0.001 C 
ATOM      5  C   UNL     1      33.139 -14.509 -24.939  0.00  0.00    +0.037 C 
ATOM      6  C   UNL     1      33.353 -13.086 -26.880  0.00  0.00    -0.000 C 
ATOM      7  C   UNL     1      33.087 -14.337 -26.322  0.00  0.00    +0.003 C 
BRANCH   2   8
ATOM      8  C   UNL     1      34.069 -10.999 -23.792  0.00  0.00    +0.025 C 
ATOM      9  C   UNL     1      34.927  -9.951 -24.523  0.00  0.00    +0.004 C 
ATOM     10  C   UNL     1      32.849 -10.230 -23.244  0.00  0.00    +0.004 C 
ATOM     11  C   UNL     1      34.458  -8.614 -23.971  0.00  0.00    +0.000 C 
ATOM     12  C   UNL     1      32.962  -8.818 -23.806  0.00  0.00    +0.000 C 
ENDBRANCH   2   8
ENDBRANCH   1   3
BRANCH   1  13
ATOM     13  C   UNL     1      33.355 -14.953 -22.297  0.00  0.00    +0.232 C 
BRANCH  13  14
ATOM     14  C   UNL     1      34.712 -15.457 -21.808  0.00  0.00    +0.133 C 
BRANCH  14  15
ATOM     15  O   UNL     1      34.776 -15.295 -20.387  0.00  0.00    -0.383 OA
ATOM     16  H   UNL     1      33.902 -15.044 -20.051  0.00  0.00    +0.210 HD
ENDBRANCH  14  15
BRANCH  14  17
ATOM     17  C   UNL     1      34.962 -16.931 -22.132  0.00  0.00    -0.048 C 
BRANCH  17  18
ATOM     18  N   UNL     1      34.975 -17.759 -20.938  0.00  0.00    +0.388 N 
ATOM     19  H   UNL     1      35.885 -17.677 -20.484  0.00  0.00    -0.084 HD
ATOM     20  H   UNL     1      34.237 -17.442 -20.309  0.00  0.00    -0.084 HD
BRANCH  18  21
ATOM     21  C   UNL     1      34.732 -19.164 -21.281  0.00  0.00    -0.046 C 
ATOM     22  C   UNL     1      35.783 -20.044 -20.594  0.00  0.00    -0.022 C 
ATOM     23  C   UNL     1      34.829 -19.319 -22.802  0.00  0.00    -0.022 C 
ATOM     24  C   UNL     1      33.328 -19.548 -20.801  0.00  0.00    -0.022 C 
ENDBRANCH  18  21
ENDBRANCH  17  18
ENDBRANCH  14  17
ENDBRANCH  13  14
ENDBRANCH   1  13
TORSDOF 8
ENDMDL
MODEL 2
REMARK VINA RESULT:      -8.5      2.299      4.439
REMARK  Name = 37464
REMARK  8 active torsions:
REMARK  status: ('A' for Active; 'I' for Inactive)
REMARK    1  A    between atoms: O_1  and  C_3
REMARK    2  A    between atoms: O_1  and  C_13
REMARK    3  A    between atoms: C_2  and  C_8
REMARK    4  A    between atoms: C_13  and  C_14
REMARK    5  A    between atoms: C_14  and  O_15
REMARK    6  A    between atoms: C_14  and  C_17
REMARK    7  A    between atoms: C_17  and  N_18
REMARK    8  A    between atoms: N_18  and  C_21
REMARK                            x       y       z     vdW  Elec       q    Type
REMARK                         _______ _______ _______ _____ _____    ______ ____
ROOT
ATOM      1  O   UNL     1      31.964 -11.429 -22.917  0.00  0.00    -0.473 OA
ENDROOT
BRANCH   1   3
ATOM      2  C   UNL     1      32.305  -9.247 -21.985  0.00  0.00    +0.011 C 
ATOM      3  C   UNL     1      31.941 -10.582 -21.841  0.00  0.00    +0.135 C 
ATOM      4  C   UNL     1      32.274  -8.398 -20.878  0.00  0.00    -0.001 C 
ATOM      5  C   UNL     1      31.545 -11.076 -20.602  0.00  0.00    +0.037 C 
ATOM      6  C   UNL     1      31.879  -8.888 -19.635  0.00  0.00    -0.000 C 
ATOM      7  C   UNL     1      31.514 -10.228 -19.496  0.00  0.00    +0.003 C 
BRANCH   2   8
ATOM      8  C   UNL     1      32.738  -8.699 -23.327  0.00  0.00    +0.025 C 
ATOM      9  C   UNL     1      32.337  -7.225 -23.518  0.00  0.00    +0.004 C 
ATOM     10  C   UNL     1      34.258  -8.753 -23.580  0.00  0.00    +0.004 C 
ATOM     11  C   UNL     1      33.476  -6.616 -24.319  0.00  0.00    +0.000 C 
ATOM     12  C   UNL     1      34.703  -7.305 -23.749  0.00  0.00    +0.000 C 
ENDBRANCH   2   8
ENDBRANCH   1   3
BRANCH   1  13
ATOM     13  C   UNL     1      32.282 -12.792 -22.651  0.00  0.00    +0.232 C 
BRANCH  13  14
ATOM     14  C   UNL     1      33.388 -13.236 -23.607  0.00  0.00    +0.133 C 
BRANCH  14  15
ATOM     15  O   UNL     1      34.214 -12.107 -23.908  0.00  0.00    -0.383 OA
ATOM     16  H   UNL     1      35.091 -12.413 -24.183  0.00  0.00    +0.210 HD
ENDBRANCH  14  15
BRANCH  14  17
ATOM     17  C   UNL     1      34.278 -14.339 -23.031  0.00  0.00    -0.048 C 
BRANCH  17  18
ATOM     18  N   UNL     1      33.537 -15.563 -22.776  0.00  0.00    +0.388 N 
ATOM     19  H   UNL     1      32.550 -15.405 -22.980  0.00  0.00    -0.084 HD
ATOM     20  H   UNL     1      33.907 -16.302 -23.374  0.00  0.00    -0.084 HD
BRANCH  18  21
ATOM     21  C   UNL     1      33.681 -15.971 -21.375  0.00  0.00    -0.046 C 
ATOM     22  C   UNL     1      34.250 -17.394 -21.316  0.00  0.00    -0.022 C 
ATOM     23  C   UNL     1      32.302 -15.927 -20.709  0.00  0.00    -0.022 C 
ATOM     24  C   UNL     1      34.634 -14.994 -20.678  0.00  0.00    -0.022 C 
ENDBRANCH  18  21
ENDBRANCH  17  18
ENDBRANCH  14  17
ENDBRANCH  13  14
ENDBRANCH   1  13
TORSDOF 8
ENDMDL
MODEL 3
REMARK VINA RESULT:      -8.1      2.070      3.569
REMARK  Name = 37464
REMARK  8 active torsions:
REMARK  status: ('A' for Active; 'I' for Inactive)
REMARK    1  A    between atoms: O_1  and  C_3
REMARK    2  A    between atoms: O_1  and  C_13
REMARK    3  A    between atoms: C_2  and  C_8
REMARK    4  A    between atoms: C_13  and  C_14
REMARK    5  A    between atoms: C_14  and  O_15
REMARK    6  A    between atoms: C_14  and  C_17
REMARK    7  A    between atoms: C_17  and  N_18
REMARK    8  A    between atoms: N_18  and  C_21
REMARK                            x       y       z     vdW  Elec       q    Type
REMARK                         _______ _______ _______ _____ _____    ______ ____
ROOT
ATOM      1  O   UNL     1      32.684 -12.285 -23.457  0.00  0.00    -0.473 OA
ENDROOT
BRANCH   1   3
ATOM      2  C   UNL     1      32.300 -10.197 -22.343  0.00  0.00    +0.011 C 
ATOM      3  C   UNL     1      32.278 -11.588 -22.350  0.00  0.00    +0.135 C 
ATOM      4  C   UNL     1      31.883  -9.504 -21.207  0.00  0.00    -0.001 C 
ATOM      5  C   UNL     1      31.841 -12.293 -21.233  0.00  0.00    +0.037 C 
ATOM      6  C   UNL     1      31.444 -10.204 -20.085  0.00  0.00    -0.000 C 
ATOM      7  C   UNL     1      31.423 -11.599 -20.097  0.00  0.00    +0.003 C 
BRANCH   2   8
ATOM      8  C   UNL     1      32.774  -9.421 -23.552  0.00  0.00    +0.025 C 
ATOM      9  C   UNL     1      32.367  -7.938 -23.496  0.00  0.00    +0.004 C 
ATOM     10  C   UNL     1      34.303  -9.426 -23.758  0.00  0.00    +0.004 C 
ATOM     11  C   UNL     1      33.527  -7.194 -24.138  0.00  0.00    +0.000 C 
ATOM     12  C   UNL     1      34.740  -7.970 -23.654  0.00  0.00    +0.000 C 
ENDBRANCH   2   8
ENDBRANCH   1   3
BRANCH   1  13
ATOM     13  C   UNL     1      32.659 -13.706 -23.363  0.00  0.00    +0.232 C 
BRANCH  13  14
ATOM     14  C   UNL     1      34.080 -14.237 -23.544  0.00  0.00    +0.133 C 
BRANCH  14  15
ATOM     15  O   UNL     1      34.805 -14.032 -22.327  0.00  0.00    -0.383 OA
ATOM     16  H   UNL     1      35.041 -14.890 -21.944  0.00  0.00    +0.210 HD
ENDBRANCH  14  15
BRANCH  14  17
ATOM     17  C   UNL     1      34.131 -15.727 -23.885  0.00  0.00    -0.048 C 
BRANCH  17  18
ATOM     18  N   UNL     1      35.382 -16.341 -23.471  0.00  0.00    +0.388 N 
ATOM     19  H   UNL     1      35.991 -16.439 -24.283  0.00  0.00    -0.084 HD
ATOM     20  H   UNL     1      35.823 -15.747 -22.769  0.00  0.00    -0.084 HD
BRANCH  18  21
ATOM     21  C   UNL     1      35.139 -17.664 -22.887  0.00  0.00    -0.046 C 
ATOM     22  C   UNL     1      34.144 -17.533 -21.728  0.00  0.00    -0.022 C 
ATOM     23  C   UNL     1      36.470 -18.225 -22.378  0.00  0.00    -0.022 C 
ATOM     24  C   UNL     1      34.563 -18.579 -23.974  0.00  0.00    -0.022 C 
ENDBRANCH  18  21
ENDBRANCH  17  18
ENDBRANCH  14  17
ENDBRANCH  13  14
ENDBRANCH   1  13
TORSDOF 8
ENDMDL
MODEL 4
REMARK VINA RESULT:      -8.1      3.680      7.227
REMARK  Name = 37464
REMARK  8 active torsions:
REMARK  status: ('A' for Active; 'I' for Inactive)
REMARK    1  A    between atoms: O_1  and  C_3
REMARK    2  A    between atoms: O_1  and  C_13
REMARK    3  A    between atoms: C_2  and  C_8
REMARK    4  A    between atoms: C_13  and  C_14
REMARK    5  A    between atoms: C_14  and  O_15
REMARK    6  A    between atoms: C_14  and  C_17
REMARK    7  A    between atoms: C_17  and  N_18
REMARK    8  A    between atoms: N_18  and  C_21
REMARK                            x       y       z     vdW  Elec       q    Type
REMARK                         _______ _______ _______ _____ _____    ______ ____
ROOT
ATOM      1  O   UNL     1      31.886 -11.160 -22.094  0.00  0.00    -0.473 OA
ENDROOT
BRANCH   1   3
ATOM      2  C   UNL     1      33.257 -12.449 -23.579  0.00  0.00    +0.011 C 
ATOM      3  C   UNL     1      32.481 -12.347 -22.429  0.00  0.00    +0.135 C 
ATOM      4  C   UNL     1      33.856 -13.666 -23.904  0.00  0.00    -0.001 C 
ATOM      5  C   UNL     1      32.299 -13.450 -21.600  0.00  0.00    +0.037 C 
ATOM      6  C   UNL     1      33.677 -14.774 -23.078  0.00  0.00    -0.000 C 
ATOM      7  C   UNL     1      32.899 -14.667 -21.925  0.00  0.00    +0.003 C 
BRANCH   2   8
ATOM      8  C   UNL     1      33.461 -11.257 -24.488  0.00  0.00    +0.025 C 
ATOM      9  C   UNL     1      34.565 -10.313 -23.982  0.00  0.00    +0.004 C 
ATOM     10  C   UNL     1      33.850 -11.616 -25.937  0.00  0.00    +0.004 C 
ATOM     11  C   UNL     1      35.237  -9.793 -25.243  0.00  0.00    +0.000 C 
ATOM     12  C   UNL     1      35.228 -11.004 -26.159  0.00  0.00    +0.000 C 
ENDBRANCH   2   8
ENDBRANCH   1   3
BRANCH   1  13
ATOM     13  C   UNL     1      31.513 -10.994 -20.730  0.00  0.00    +0.232 C 
BRANCH  13  14
ATOM     14  C   UNL     1      31.762  -9.542 -20.324  0.00  0.00    +0.133 C 
BRANCH  14  15
ATOM     15  O   UNL     1      32.557  -9.528 -19.135  0.00  0.00    -0.383 OA
ATOM     16  H   UNL     1      32.002  -9.750 -18.372  0.00  0.00    +0.210 HD
ENDBRANCH  14  15
BRANCH  14  17
ATOM     17  C   UNL     1      32.492  -8.731 -21.397  0.00  0.00    -0.048 C 
BRANCH  17  18
ATOM     18  N   UNL     1      31.615  -8.361 -22.494  0.00  0.00    +0.388 N 
ATOM     19  H   UNL     1      31.710  -9.045 -23.245  0.00  0.00    -0.084 HD
ATOM     20  H   UNL     1      30.653  -8.342 -22.155  0.00  0.00    -0.084 HD
BRANCH  18  21
ATOM     21  C   UNL     1      31.962  -7.031 -23.006  0.00  0.00    -0.046 C 
ATOM     22  C   UNL     1      33.443  -7.010 -23.402  0.00  0.00    -0.022 C 
ATOM     23  C   UNL     1      31.696  -5.999 -21.905  0.00  0.00    -0.022 C 
ATOM     24  C   UNL     1      31.086  -6.735 -24.229  0.00  0.00    -0.022 C 
ENDBRANCH  18  21
ENDBRANCH  17  18
ENDBRANCH  14  17
ENDBRANCH  13  14
ENDBRANCH   1  13
TORSDOF 8
ENDMDL
MODEL 5
REMARK VINA RESULT:      -8.1      5.744     11.977
REMARK  Name = 37464
REMARK  8 active torsions:
REMARK  status: ('A' for Active; 'I' for Inactive)
REMARK    1  A    between atoms: O_1  and  C_3
REMARK    2  A    between atoms: O_1  and  C_13
REMARK    3  A    between atoms: C_2  and  C_8
REMARK    4  A    between atoms: C_13  and  C_14
REMARK    5  A    between atoms: C_14  and  O_15
REMARK    6  A    between atoms: C_14  and  C_17
REMARK    7  A    between atoms: C_17  and  N_18
REMARK    8  A    between atoms: N_18  and  C_21
REMARK                            x       y       z     vdW  Elec       q    Type
REMARK                         _______ _______ _______ _____ _____    ______ ____
ROOT
ATOM      1  O   UNL     1      33.318 -23.135 -17.870  0.00  0.00    -0.473 OA
ENDROOT
BRANCH   1   3
ATOM      2  C   UNL     1      32.431 -23.697 -15.715  0.00  0.00    +0.011 C 
ATOM      3  C   UNL     1      33.505 -23.362 -16.532  0.00  0.00    +0.135 C 
ATOM      4  C   UNL     1      32.640 -23.926 -14.355  0.00  0.00    -0.001 C 
ATOM      5  C   UNL     1      34.788 -23.254 -16.003  0.00  0.00    +0.037 C 
ATOM      6  C   UNL     1      33.923 -23.819 -13.820  0.00  0.00    -0.000 C 
ATOM      7  C   UNL     1      34.998 -23.483 -14.643  0.00  0.00    +0.003 C 
BRANCH   2   8
ATOM      8  C   UNL     1      31.032 -23.816 -16.279  0.00  0.00    +0.025 C 
ATOM      9  C   UNL     1      30.152 -24.786 -15.471  0.00  0.00    +0.004 C 
ATOM     10  C   UNL     1      30.248 -22.489 -16.333  0.00  0.00    +0.004 C 
ATOM     11  C   UNL     1      28.760 -24.177 -15.520  0.00  0.00    +0.000 C 
ATOM     12  C   UNL     1      29.035 -22.686 -15.432  0.00  0.00    +0.000 C 
ENDBRANCH   2   8
ENDBRANCH   1   3
BRANCH   1  13
ATOM     13  C   UNL     1      34.341 -22.408 -18.545  0.00  0.00    +0.232 C 
BRANCH  13  14
ATOM     14  C   UNL     1      33.712 -21.632 -19.701  0.00  0.00    +0.133 C 
BRANCH  14  15
ATOM     15  O   UNL     1      32.522 -20.991 -19.230  0.00  0.00    -0.383 OA
ATOM     16  H   UNL     1      32.405 -20.148 -19.693  0.00  0.00    +0.210 HD
ENDBRANCH  14  15
BRANCH  14  17
ATOM     17  C   UNL     1      34.635 -20.558 -20.282  0.00  0.00    -0.048 C 
BRANCH  17  18
ATOM     18  N   UNL     1      33.901 -19.557 -21.038  0.00  0.00    +0.388 N 
ATOM     19  H   UNL     1      33.342 -20.022 -21.753  0.00  0.00    -0.084 HD
ATOM     20  H   UNL     1      33.297 -19.040 -20.398  0.00  0.00    -0.084 HD
BRANCH  18  21
ATOM     21  C   UNL     1      34.824 -18.618 -21.682  0.00  0.00    -0.046 C 
ATOM     22  C   UNL     1      34.376 -17.182 -21.387  0.00  0.00    -0.022 C 
ATOM     23  C   UNL     1      34.809 -18.875 -23.192  0.00  0.00    -0.022 C 
ATOM     24  C   UNL     1      36.232 -18.855 -21.122  0.00  0.00    -0.022 C 
ENDBRANCH  18  21
ENDBRANCH  17  18
ENDBRANCH  14  17
ENDBRANCH  13  14
ENDBRANCH   1  13
TORSDOF 8
ENDMDL
MODEL 6
REMARK VINA RESULT:      -8.1     11.510     13.862
REMARK  Name = 37464
REMARK  8 active torsions:
REMARK  status: ('A' for Active; 'I' for Inactive)
REMARK    1  A    between atoms: O_1  and  C_3
REMARK    2  A    between atoms: O_1  and  C_13
REMARK    3  A    between atoms: C_2  and  C_8
REMARK    4  A    between atoms: C_13  and  C_14
REMARK    5  A    between atoms: C_14  and  O_15
REMARK    6  A    between atoms: C_14  and  C_17
REMARK    7  A    between atoms: C_17  and  N_18
REMARK    8  A    between atoms: N_18  and  C_21
REMARK                            x       y       z     vdW  Elec       q    Type
REMARK                         _______ _______ _______ _____ _____    ______ ____
ROOT
ATOM      1  O   UNL     1      33.623 -23.537 -13.574  0.00  0.00    -0.473 OA
ENDROOT
BRANCH   1   3
ATOM      2  C   UNL     1      32.303 -23.314 -15.563  0.00  0.00    +0.011 C 
ATOM      3  C   UNL     1      33.540 -23.346 -14.928  0.00  0.00    +0.135 C 
ATOM      4  C   UNL     1      32.238 -23.118 -16.943  0.00  0.00    -0.001 C 
ATOM      5  C   UNL     1      34.714 -23.185 -15.659  0.00  0.00    +0.037 C 
ATOM      6  C   UNL     1      33.410 -22.956 -17.680  0.00  0.00    -0.000 C 
ATOM      7  C   UNL     1      34.649 -22.989 -17.038  0.00  0.00    +0.003 C 
BRANCH   2   8
ATOM      8  C   UNL     1      31.021 -23.490 -14.779  0.00  0.00    +0.025 C 
ATOM      9  C   UNL     1      29.792 -22.950 -15.531  0.00  0.00    +0.004 C 
ATOM     10  C   UNL     1      30.684 -24.952 -14.423  0.00  0.00    +0.004 C 
ATOM     11  C   UNL     1      28.665 -23.900 -15.161  0.00  0.00    +0.000 C 
ATOM     12  C   UNL     1      29.357 -25.251 -15.112  0.00  0.00    +0.000 C 
ENDBRANCH   2   8
ENDBRANCH   1   3
BRANCH   1  13
ATOM     13  C   UNL     1      34.463 -24.596 -13.127  0.00  0.00    +0.232 C 
BRANCH  13  14
ATOM     14  C   UNL     1      35.426 -24.051 -12.073  0.00  0.00    +0.133 C 
BRANCH  14  15
ATOM     15  O   UNL     1      35.402 -24.919 -10.937  0.00  0.00    -0.383 OA
ATOM     16  H   UNL     1      36.244 -24.853 -10.462  0.00  0.00    +0.210 HD
ENDBRANCH  14  15
BRANCH  14  17
ATOM     17  C   UNL     1      36.871 -23.951 -12.568  0.00  0.00    -0.048 C 
BRANCH  17  18
ATOM     18  N   UNL     1      37.506 -25.254 -12.665  0.00  0.00    +0.388 N 
ATOM     19  H   UNL     1      38.219 -25.334 -11.939  0.00  0.00    -0.084 HD
ATOM     20  H   UNL     1      36.796 -25.976 -12.542  0.00  0.00    -0.084 HD
BRANCH  18  21
ATOM     21  C   UNL     1      38.134 -25.425 -13.979  0.00  0.00    -0.046 C 
ATOM     22  C   UNL     1      37.937 -24.150 -14.806  0.00  0.00    -0.022 C 
ATOM     23  C   UNL     1      37.477 -26.616 -14.683  0.00  0.00    -0.022 C 
ATOM     24  C   UNL     1      39.629 -25.694 -13.774  0.00  0.00    -0.022 C 
ENDBRANCH  18  21
ENDBRANCH  17  18
ENDBRANCH  14  17
ENDBRANCH  13  14
ENDBRANCH   1  13
TORSDOF 8
ENDMDL
MODEL 7
REMARK VINA RESULT:      -8.1      1.258      3.345
REMARK  Name = 37464
REMARK  8 active torsions:
REMARK  status: ('A' for Active; 'I' for Inactive)
REMARK    1  A    between atoms: O_1  and  C_3
REMARK    2  A    between atoms: O_1  and  C_13
REMARK    3  A    between atoms: C_2  and  C_8
REMARK    4  A    between atoms: C_13  and  C_14
REMARK    5  A    between atoms: C_14  and  O_15
REMARK    6  A    between atoms: C_14  and  C_17
REMARK    7  A    between atoms: C_17  and  N_18
REMARK    8  A    between atoms: N_18  and  C_21
REMARK                            x       y       z     vdW  Elec       q    Type
REMARK                         _______ _______ _______ _____ _____    ______ ____
ROOT
ATOM      1  O   UNL     1      32.324 -14.475 -22.182  0.00  0.00    -0.473 OA
ENDROOT
BRANCH   1   3
ATOM      2  C   UNL     1      32.850 -12.388 -23.237  0.00  0.00    +0.011 C 
ATOM      3  C   UNL     1      32.252 -13.108 -22.208  0.00  0.00    +0.135 C 
ATOM      4  C   UNL     1      32.766 -10.996 -23.249  0.00  0.00    -0.001 C 
ATOM      5  C   UNL     1      31.569 -12.449 -21.190  0.00  0.00    +0.037 C 
ATOM      6  C   UNL     1      32.083 -10.331 -22.231  0.00  0.00    -0.000 C 
ATOM      7  C   UNL     1      31.484 -11.057 -21.202  0.00  0.00    +0.003 C 
BRANCH   2   8
ATOM      8  C   UNL     1      33.596 -13.094 -24.349  0.00  0.00    +0.025 C 
ATOM      9  C   UNL     1      32.765 -14.217 -24.994  0.00  0.00    +0.004 C 
ATOM     10  C   UNL     1      34.031 -12.177 -25.510  0.00  0.00    +0.004 C 
ATOM     11  C   UNL     1      33.153 -14.188 -26.464  0.00  0.00    +0.000 C 
ATOM     12  C   UNL     1      33.314 -12.705 -26.747  0.00  0.00    +0.000 C 
ENDBRANCH   2   8
ENDBRANCH   1   3
BRANCH   1  13
ATOM     13  C   UNL     1      32.830 -15.066 -20.988  0.00  0.00    +0.232 C 
BRANCH  13  14
ATOM     14  C   UNL     1      34.275 -15.500 -21.228  0.00  0.00    +0.133 C 
BRANCH  14  15
ATOM     15  O   UNL     1      34.973 -15.478 -19.979  0.00  0.00    -0.383 OA
ATOM     16  H   UNL     1      35.826 -15.927 -20.078  0.00  0.00    +0.210 HD
ENDBRANCH  14  15
BRANCH  14  17
ATOM     17  C   UNL     1      34.395 -16.907 -21.817  0.00  0.00    -0.048 C 
BRANCH  17  18
ATOM     18  N   UNL     1      35.003 -17.841 -20.885  0.00  0.00    +0.388 N 
ATOM     19  H   UNL     1      36.013 -17.700 -20.882  0.00  0.00    -0.084 HD
ATOM     20  H   UNL     1      34.621 -17.672 -19.954  0.00  0.00    -0.084 HD
BRANCH  18  21
ATOM     21  C   UNL     1      34.710 -19.223 -21.274  0.00  0.00    -0.046 C 
ATOM     22  C   UNL     1      33.289 -19.587 -20.826  0.00  0.00    -0.022 C 
ATOM     23  C   UNL     1      35.728 -20.148 -20.599  0.00  0.00    -0.022 C 
ATOM     24  C   UNL     1      34.825 -19.337 -22.798  0.00  0.00    -0.022 C 
ENDBRANCH  18  21
ENDBRANCH  17  18
ENDBRANCH  14  17
ENDBRANCH  13  14
ENDBRANCH   1  13
TORSDOF 8
ENDMDL
MODEL 8
REMARK VINA RESULT:      -8.1      2.744      7.596
REMARK  Name = 37464
REMARK  8 active torsions:
REMARK  status: ('A' for Active; 'I' for Inactive)
REMARK    1  A    between atoms: O_1  and  C_3
REMARK    2  A    between atoms: O_1  and  C_13
REMARK    3  A    between atoms: C_2  and  C_8
REMARK    4  A    between atoms: C_13  and  C_14
REMARK    5  A    between atoms: C_14  and  O_15
REMARK    6  A    between atoms: C_14  and  C_17
REMARK    7  A    between atoms: C_17  and  N_18
REMARK    8  A    between atoms: N_18  and  C_21
REMARK                            x       y       z     vdW  Elec       q    Type
REMARK                         _______ _______ _______ _____ _____    ______ ____
ROOT
ATOM      1  O   UNL     1      34.040 -13.464 -24.166  0.00  0.00    -0.473 OA
ENDROOT
BRANCH   1   3
ATOM      2  C   UNL     1      34.017 -15.249 -22.567  0.00  0.00    +0.011 C 
ATOM      3  C   UNL     1      33.603 -13.986 -22.979  0.00  0.00    +0.135 C 
ATOM      4  C   UNL     1      33.561 -15.765 -21.354  0.00  0.00    -0.001 C 
ATOM      5  C   UNL     1      32.737 -13.234 -22.190  0.00  0.00    +0.037 C 
ATOM      6  C   UNL     1      32.694 -15.016 -20.559  0.00  0.00    -0.000 C 
ATOM      7  C   UNL     1      32.281 -13.751 -20.977  0.00  0.00    +0.003 C 
BRANCH   2   8
ATOM      8  C   UNL     1      34.956 -16.075 -23.416  0.00  0.00    +0.025 C 
ATOM      9  C   UNL     1      35.467 -17.328 -22.682  0.00  0.00    +0.004 C 
ATOM     10  C   UNL     1      34.344 -16.587 -24.736  0.00  0.00    +0.004 C 
ATOM     11  C   UNL     1      35.579 -18.391 -23.763  0.00  0.00    +0.000 C 
ATOM     12  C   UNL     1      34.377 -18.108 -24.647  0.00  0.00    +0.000 C 
ENDBRANCH   2   8
ENDBRANCH   1   3
BRANCH   1  13
ATOM     13  C   UNL     1      33.460 -12.229 -24.575  0.00  0.00    +0.232 C 
BRANCH  13  14
ATOM     14  C   UNL     1      34.561 -11.173 -24.667  0.00  0.00    +0.133 C 
BRANCH  14  15
ATOM     15  O   UNL     1      34.856 -10.938 -26.047  0.00  0.00    -0.383 OA
ATOM     16  H   UNL     1      34.688 -10.007 -26.259  0.00  0.00    +0.210 HD
ENDBRANCH  14  15
BRANCH  14  17
ATOM     17  C   UNL     1      34.175  -9.839 -24.027  0.00  0.00    -0.048 C 
BRANCH  17  18
ATOM     18  N   UNL     1      32.850  -9.881 -23.430  0.00  0.00    +0.388 N 
ATOM     19  H   UNL     1      32.158 -10.031 -24.164  0.00  0.00    -0.084 HD
ATOM     20  H   UNL     1      32.818 -10.644 -22.754  0.00  0.00    -0.084 HD
BRANCH  18  21
ATOM     21  C   UNL     1      32.555  -8.623 -22.738  0.00  0.00    -0.046 C 
ATOM     22  C   UNL     1      31.348  -7.949 -23.401  0.00  0.00    -0.022 C 
ATOM     23  C   UNL     1      33.784  -7.713 -22.834  0.00  0.00    -0.022 C 
ATOM     24  C   UNL     1      32.243  -8.934 -21.270  0.00  0.00    -0.022 C 
ENDBRANCH  18  21
ENDBRANCH  17  18
ENDBRANCH  14  17
ENDBRANCH  13  14
ENDBRANCH   1  13
TORSDOF 8
ENDMDL
MODEL 9
REMARK VINA RESULT:      -8.0      3.035      7.770
REMARK  Name = 37464
REMARK  8 active torsions:
REMARK  status: ('A' for Active; 'I' for Inactive)
REMARK    1  A    between atoms: O_1  and  C_3
REMARK    2  A    between atoms: O_1  and  C_13
REMARK    3  A    between atoms: C_2  and  C_8
REMARK    4  A    between atoms: C_13  and  C_14
REMARK    5  A    between atoms: C_14  and  O_15
REMARK    6  A    between atoms: C_14  and  C_17
REMARK    7  A    between atoms: C_17  and  N_18
REMARK    8  A    between atoms: N_18  and  C_21
REMARK                            x       y       z     vdW  Elec       q    Type
REMARK                         _______ _______ _______ _____ _____    ______ ____
ROOT
ATOM      1  O   UNL     1      33.786 -11.801 -23.662  0.00  0.00    -0.473 OA
ENDROOT
BRANCH   1   3
ATOM      2  C   UNL     1      33.668 -14.177 -23.962  0.00  0.00    +0.011 C 
ATOM      3  C   UNL     1      33.614 -12.886 -24.479  0.00  0.00    +0.135 C 
ATOM      4  C   UNL     1      33.491 -15.270 -24.809  0.00  0.00    -0.001 C 
ATOM      5  C   UNL     1      33.384 -12.679 -25.836  0.00  0.00    +0.037 C 
ATOM      6  C   UNL     1      33.261 -15.068 -26.169  0.00  0.00    -0.000 C 
ATOM      7  C   UNL     1      33.207 -13.772 -26.683  0.00  0.00    +0.003 C 
BRANCH   2   8
ATOM      8  C   UNL     1      33.919 -14.414 -22.489  0.00  0.00    +0.025 C 
ATOM      9  C   UNL     1      32.617 -14.445 -21.668  0.00  0.00    +0.004 C 
ATOM     10  C   UNL     1      34.646 -15.736 -22.168  0.00  0.00    +0.004 C 
ATOM     11  C   UNL     1      32.868 -15.484 -20.587  0.00  0.00    +0.000 C 
ATOM     12  C   UNL     1      33.679 -16.544 -21.311  0.00  0.00    +0.000 C 
ENDBRANCH   2   8
ENDBRANCH   1   3
BRANCH   1  13
ATOM     13  C   UNL     1      33.488 -10.525 -24.221  0.00  0.00    +0.232 C 
BRANCH  13  14
ATOM     14  C   UNL     1      34.700  -9.613 -24.038  0.00  0.00    +0.133 C 
BRANCH  14  15
ATOM     15  O   UNL     1      35.667  -9.928 -25.044  0.00  0.00    -0.383 OA
ATOM     16  H   UNL     1      35.309 -10.607 -25.635  0.00  0.00    +0.210 HD
ENDBRANCH  14  15
BRANCH  14  17
ATOM     17  C   UNL     1      34.360  -8.125 -24.151  0.00  0.00    -0.048 C 
BRANCH  17  18
ATOM     18  N   UNL     1      33.548  -7.663 -23.038  0.00  0.00    +0.388 N 
ATOM     19  H   UNL     1      33.149  -8.470 -22.558  0.00  0.00    -0.084 HD
ATOM     20  H   UNL     1      34.138  -7.129 -22.400  0.00  0.00    -0.084 HD
BRANCH  18  21
ATOM     21  C   UNL     1      32.462  -6.800 -23.515  0.00  0.00    -0.046 C 
ATOM     22  C   UNL     1      31.272  -7.668 -23.938  0.00  0.00    -0.022 C 
ATOM     23  C   UNL     1      32.973  -5.988 -24.709  0.00  0.00    -0.022 C 
ATOM     24  C   UNL     1      32.050  -5.861 -22.376  0.00  0.00    -0.022 C 
ENDBRANCH  18  21
ENDBRANCH  17  18
ENDBRANCH  14  17
ENDBRANCH  13  14
ENDBRANCH   1  13
TORSDOF 8
ENDMDL
