MODEL 1
REMARK VINA RESULT:      -9.4      0.000      0.000
REMARK  Name = 448087
REMARK  9 active torsions:
REMARK  status: ('A' for Active; 'I' for Inactive)
REMARK    1  A    between atoms: C_3  and  C_8
REMARK    2  A    between atoms: C_4  and  C_15
REMARK    3  A    between atoms: C_7  and  C_18
REMARK    4  A    between atoms: C_15  and  O_16
REMARK    5  A    between atoms: C_18  and  N_20
REMARK    6  A    between atoms: C_21  and  C_23
REMARK    7  A    between atoms: C_23  and  S_24
REMARK    8  A    between atoms: C_23  and  C_26
REMARK    9  A    between atoms: C_26  and  C_27
REMARK                            x       y       z     vdW  Elec       q    Type
REMARK                         _______ _______ _______ _____ _____    ______ ____
ROOT
ATOM      1  O   UNL     1      32.104 -12.798 -22.524  0.00  0.00    -0.273 OA
ATOM      2  N   UNL     1      32.610 -10.694 -23.353  0.00  0.00    -0.268 N 
ATOM      3  C   UNL     1      31.515  -9.999 -22.657  0.00  0.00    +0.098 C 
ATOM      4  C   UNL     1      33.214  -9.833 -24.370  0.00  0.00    +0.175 C 
ATOM      5  C   UNL     1      31.586  -8.553 -23.165  0.00  0.00    +0.027 C 
ATOM      6  C   UNL     1      32.222  -8.689 -24.544  0.00  0.00    +0.033 C 
ATOM      7  C   UNL     1      32.809 -12.064 -23.220  0.00  0.00    +0.246 C 
ENDROOT
BRANCH   3   8
ATOM      8  C   UNL     1      31.568 -10.068 -21.146  0.00  0.00    -0.004 C 
ATOM      9  C   UNL     1      32.302  -9.122 -20.431  0.00  0.00    -0.003 C 
ATOM     10  C   UNL     1      30.885 -11.077 -20.470  0.00  0.00    -0.003 C 
ATOM     11  C   UNL     1      32.351  -9.185 -19.038  0.00  0.00    -0.000 C 
ATOM     12  C   UNL     1      30.934 -11.142 -19.077  0.00  0.00    -0.000 C 
ATOM     13  C   UNL     1      31.668 -10.195 -18.361  0.00  0.00    -0.000 C 
ENDBRANCH   3   8
BRANCH   4  15
ATOM     14  O   UNL     1      34.679  -8.406 -23.080  0.00  0.00    -0.248 OA
ATOM     15  C   UNL     1      34.532  -9.344 -23.851  0.00  0.00    +0.332 C 
BRANCH  15  16
ATOM     16  O   UNL     1      35.550 -10.084 -24.354  0.00  0.00    -0.479 OA
ATOM     17  H   UNL     1      35.369 -10.801 -24.930  0.00  0.00    +0.295 HD
ENDBRANCH  15  16
ENDBRANCH   4  15
BRANCH   7  18
ATOM     18  C   UNL     1      33.969 -12.648 -23.987  0.00  0.00    +0.176 C 
BRANCH  18  20
ATOM     19  O   UNL     1      33.809 -15.417 -24.728  0.00  0.00    -0.274 OA
ATOM     20  N   UNL     1      34.413 -13.762 -23.216  0.00  0.00    -0.296 N 
ATOM     21  C   UNL     1      34.299 -15.085 -23.650  0.00  0.00    +0.233 C 
ATOM     22  H   UNL     1      34.820 -13.591 -22.335  0.00  0.00    +0.150 HD
BRANCH  21  23
ATOM     23  C   UNL     1      34.822 -16.099 -22.637  0.00  0.00    +0.124 C 
BRANCH  23  24
ATOM     24  S   UNL     1      34.012 -15.715 -21.043  0.00  0.00    -0.159 S 
ATOM     25  H   UNL     1      34.899 -15.088 -20.224  0.00  0.00    +0.103 HD
ENDBRANCH  23  24
BRANCH  23  26
ATOM     26  C   UNL     1      34.498 -17.543 -23.042  0.00  0.00    +0.046 C 
BRANCH  26  27
ATOM     27  C   UNL     1      34.985 -18.545 -22.019  0.00  0.00    -0.021 C 
ATOM     28  C   UNL     1      34.086 -19.434 -21.430  0.00  0.00    -0.004 C 
ATOM     29  C   UNL     1      36.334 -18.580 -21.664  0.00  0.00    -0.004 C 
ATOM     30  C   UNL     1      34.535 -20.358 -20.486  0.00  0.00    -0.000 C 
ATOM     31  C   UNL     1      36.783 -19.504 -20.720  0.00  0.00    -0.000 C 
ATOM     32  C   UNL     1      35.883 -20.393 -20.131  0.00  0.00    -0.000 C 
ENDBRANCH  26  27
ENDBRANCH  23  26
ENDBRANCH  21  23
ENDBRANCH  18  20
ENDBRANCH   7  18
TORSDOF 9
ENDMDL
MODEL 2
REMARK VINA RESULT:      -9.4      0.011      1.269
REMARK  Name = 448087
REMARK  9 active torsions:
REMARK  status: ('A' for Active; 'I' for Inactive)
REMARK    1  A    between atoms: C_3  and  C_8
REMARK    2  A    between atoms: C_4  and  C_15
REMARK    3  A    between atoms: C_7  and  C_18
REMARK    4  A    between atoms: C_15  and  O_16
REMARK    5  A    between atoms: C_18  and  N_20
REMARK    6  A    between atoms: C_21  and  C_23
REMARK    7  A    between atoms: C_23  and  S_24
REMARK    8  A    between atoms: C_23  and  C_26
REMARK    9  A    between atoms: C_26  and  C_27
REMARK                            x       y       z     vdW  Elec       q    Type
REMARK                         _______ _______ _______ _____ _____    ______ ____
ROOT
ATOM      1  O   UNL     1      32.107 -12.807 -22.520  0.00  0.00    -0.273 OA
ATOM      2  N   UNL     1      32.608 -10.702 -23.350  0.00  0.00    -0.268 N 
ATOM      3  C   UNL     1      31.512 -10.009 -22.651  0.00  0.00    +0.098 C 
ATOM      4  C   UNL     1      33.208  -9.839 -24.367  0.00  0.00    +0.175 C 
ATOM      5  C   UNL     1      31.580  -8.563 -23.159  0.00  0.00    +0.027 C 
ATOM      6  C   UNL     1      32.214  -8.698 -24.540  0.00  0.00    +0.033 C 
ATOM      7  C   UNL     1      32.809 -12.072 -23.217  0.00  0.00    +0.246 C 
ENDROOT
BRANCH   3   8
ATOM      8  C   UNL     1      31.568 -10.078 -21.140  0.00  0.00    -0.004 C 
ATOM      9  C   UNL     1      30.881 -11.086 -20.464  0.00  0.00    -0.003 C 
ATOM     10  C   UNL     1      32.304  -9.134 -20.426  0.00  0.00    -0.003 C 
ATOM     11  C   UNL     1      30.932 -11.150 -19.071  0.00  0.00    -0.000 C 
ATOM     12  C   UNL     1      32.355  -9.197 -19.033  0.00  0.00    -0.000 C 
ATOM     13  C   UNL     1      31.668 -10.205 -18.356  0.00  0.00    -0.000 C 
ENDBRANCH   3   8
BRANCH   4  15
ATOM     14  O   UNL     1      34.672  -8.414 -23.074  0.00  0.00    -0.248 OA
ATOM     15  C   UNL     1      34.526  -9.348 -23.849  0.00  0.00    +0.332 C 
BRANCH  15  16
ATOM     16  O   UNL     1      35.545 -10.081 -24.361  0.00  0.00    -0.479 OA
ATOM     17  H   UNL     1      36.401 -10.022 -23.984  0.00  0.00    +0.295 HD
ENDBRANCH  15  16
ENDBRANCH   4  15
BRANCH   7  18
ATOM     18  C   UNL     1      33.969 -12.653 -23.985  0.00  0.00    +0.176 C 
BRANCH  18  20
ATOM     19  O   UNL     1      33.817 -15.422 -24.729  0.00  0.00    -0.274 OA
ATOM     20  N   UNL     1      34.416 -13.767 -23.216  0.00  0.00    -0.296 N 
ATOM     21  C   UNL     1      34.306 -15.090 -23.650  0.00  0.00    +0.233 C 
ATOM     22  H   UNL     1      34.823 -13.595 -22.334  0.00  0.00    +0.150 HD
BRANCH  21  23
ATOM     23  C   UNL     1      34.832 -16.102 -22.638  0.00  0.00    +0.124 C 
BRANCH  23  24
ATOM     24  S   UNL     1      34.036 -15.711 -21.039  0.00  0.00    -0.159 S 
ATOM     25  H   UNL     1      33.587 -16.858 -20.463  0.00  0.00    +0.103 HD
ENDBRANCH  23  24
BRANCH  23  26
ATOM     26  C   UNL     1      34.499 -17.547 -23.036  0.00  0.00    +0.046 C 
BRANCH  26  27
ATOM     27  C   UNL     1      34.989 -18.547 -22.014  0.00  0.00    -0.021 C 
ATOM     28  C   UNL     1      36.339 -18.579 -21.661  0.00  0.00    -0.004 C 
ATOM     29  C   UNL     1      34.093 -19.438 -21.423  0.00  0.00    -0.004 C 
ATOM     30  C   UNL     1      36.791 -19.502 -20.718  0.00  0.00    -0.000 C 
ATOM     31  C   UNL     1      34.546 -20.361 -20.480  0.00  0.00    -0.000 C 
ATOM     32  C   UNL     1      35.895 -20.393 -20.127  0.00  0.00    -0.000 C 
ENDBRANCH  26  27
ENDBRANCH  23  26
ENDBRANCH  21  23
ENDBRANCH  18  20
ENDBRANCH   7  18
TORSDOF 9
ENDMDL
MODEL 3
REMARK VINA RESULT:      -9.2      7.160     12.379
REMARK  Name = 448087
REMARK  9 active torsions:
REMARK  status: ('A' for Active; 'I' for Inactive)
REMARK    1  A    between atoms: C_3  and  C_8
REMARK    2  A    between atoms: C_4  and  C_15
REMARK    3  A    between atoms: C_7  and  C_18
REMARK    4  A    between atoms: C_15  and  O_16
REMARK    5  A    between atoms: C_18  and  N_20
REMARK    6  A    between atoms: C_21  and  C_23
REMARK    7  A    between atoms: C_23  and  S_24
REMARK    8  A    between atoms: C_23  and  C_26
REMARK    9  A    between atoms: C_26  and  C_27
REMARK                            x       y       z     vdW  Elec       q    Type
REMARK                         _______ _______ _______ _____ _____    ______ ____
ROOT
ATOM      1  O   UNL     1      32.336 -22.417 -17.694  0.00  0.00    -0.273 OA
ATOM      2  N   UNL     1      33.785 -23.148 -16.039  0.00  0.00    -0.268 N 
ATOM      3  C   UNL     1      32.874 -22.869 -14.917  0.00  0.00    +0.098 C 
ATOM      4  C   UNL     1      35.138 -23.426 -15.557  0.00  0.00    +0.175 C 
ATOM      5  C   UNL     1      33.695 -23.182 -13.660  0.00  0.00    +0.027 C 
ATOM      6  C   UNL     1      35.135 -22.954 -14.109  0.00  0.00    +0.033 C 
ATOM      7  C   UNL     1      33.424 -22.889 -17.357  0.00  0.00    +0.246 C 
ENDROOT
BRANCH   3   8
ATOM      8  C   UNL     1      31.569 -23.636 -14.943  0.00  0.00    -0.004 C 
ATOM      9  C   UNL     1      30.406 -23.018 -15.399  0.00  0.00    -0.003 C 
ATOM     10  C   UNL     1      31.531 -24.961 -14.510  0.00  0.00    -0.003 C 
ATOM     11  C   UNL     1      29.203 -23.724 -15.422  0.00  0.00    -0.000 C 
ATOM     12  C   UNL     1      30.329 -25.669 -14.532  0.00  0.00    -0.000 C 
ATOM     13  C   UNL     1      29.165 -25.050 -14.988  0.00  0.00    -0.000 C 
ENDBRANCH   3   8
BRANCH   4  15
ATOM     14  O   UNL     1      34.505 -25.750 -15.759  0.00  0.00    -0.248 OA
ATOM     15  C   UNL     1      35.379 -24.902 -15.656  0.00  0.00    +0.332 C 
BRANCH  15  16
ATOM     16  O   UNL     1      36.706 -25.175 -15.613  0.00  0.00    -0.479 OA
ATOM     17  H   UNL     1      37.128 -25.322 -14.790  0.00  0.00    +0.295 HD
ENDBRANCH  15  16
ENDBRANCH   4  15
BRANCH   7  18
ATOM     18  C   UNL     1      34.452 -23.224 -18.409  0.00  0.00    +0.176 C 
BRANCH  18  20
ATOM     19  O   UNL     1      36.056 -20.940 -19.082  0.00  0.00    -0.274 OA
ATOM     20  N   UNL     1      34.220 -22.306 -19.474  0.00  0.00    -0.296 N 
ATOM     21  C   UNL     1      35.051 -21.214 -19.737  0.00  0.00    +0.233 C 
ATOM     22  H   UNL     1      33.435 -22.448 -20.053  0.00  0.00    +0.150 HD
BRANCH  21  23
ATOM     23  C   UNL     1      34.578 -20.365 -20.912  0.00  0.00    +0.124 C 
BRANCH  23  24
ATOM     24  S   UNL     1      32.852 -19.880 -20.551  0.00  0.00    -0.159 S 
ATOM     25  H   UNL     1      32.544 -20.223 -19.271  0.00  0.00    +0.103 HD
ENDBRANCH  23  24
BRANCH  23  26
ATOM     26  C   UNL     1      35.436 -19.106 -21.100  0.00  0.00    +0.046 C 
BRANCH  26  27
ATOM     27  C   UNL     1      35.161 -18.422 -22.421  0.00  0.00    -0.021 C 
ATOM     28  C   UNL     1      35.192 -17.030 -22.504  0.00  0.00    -0.004 C 
ATOM     29  C   UNL     1      34.879 -19.183 -23.556  0.00  0.00    -0.004 C 
ATOM     30  C   UNL     1      34.939 -16.398 -23.723  0.00  0.00    -0.000 C 
ATOM     31  C   UNL     1      34.626 -18.551 -24.774  0.00  0.00    -0.000 C 
ATOM     32  C   UNL     1      34.656 -17.159 -24.857  0.00  0.00    -0.000 C 
ENDBRANCH  26  27
ENDBRANCH  23  26
ENDBRANCH  21  23
ENDBRANCH  18  20
ENDBRANCH   7  18
TORSDOF 9
ENDMDL
MODEL 4
REMARK VINA RESULT:      -9.0      1.989      4.328
REMARK  Name = 448087
REMARK  9 active torsions:
REMARK  status: ('A' for Active; 'I' for Inactive)
REMARK    1  A    between atoms: C_3  and  C_8
REMARK    2  A    between atoms: C_4  and  C_15
REMARK    3  A    between atoms: C_7  and  C_18
REMARK    4  A    between atoms: C_15  and  O_16
REMARK    5  A    between atoms: C_18  and  N_20
REMARK    6  A    between atoms: C_21  and  C_23
REMARK    7  A    between atoms: C_23  and  S_24
REMARK    8  A    between atoms: C_23  and  C_26
REMARK    9  A    between atoms: C_26  and  C_27
REMARK                            x       y       z     vdW  Elec       q    Type
REMARK                         _______ _______ _______ _____ _____    ______ ____
ROOT
ATOM      1  O   UNL     1      34.888  -9.867 -24.658  0.00  0.00    -0.273 OA
ATOM      2  N   UNL     1      33.290  -9.552 -23.009  0.00  0.00    -0.268 N 
ATOM      3  C   UNL     1      33.700  -8.178 -22.674  0.00  0.00    +0.098 C 
ATOM      4  C   UNL     1      32.370 -10.084 -22.004  0.00  0.00    +0.175 C 
ATOM      5  C   UNL     1      32.818  -7.790 -21.479  0.00  0.00    +0.027 C 
ATOM      6  C   UNL     1      32.495  -9.128 -20.824  0.00  0.00    +0.033 C 
ATOM      7  C   UNL     1      33.939 -10.289 -23.995  0.00  0.00    +0.246 C 
ENDROOT
BRANCH   3   8
ATOM      8  C   UNL     1      33.586  -7.180 -23.805  0.00  0.00    -0.004 C 
ATOM      9  C   UNL     1      32.379  -6.520 -24.034  0.00  0.00    -0.003 C 
ATOM     10  C   UNL     1      34.688  -6.920 -24.619  0.00  0.00    -0.003 C 
ATOM     11  C   UNL     1      32.273  -5.600 -25.077  0.00  0.00    -0.000 C 
ATOM     12  C   UNL     1      34.583  -6.001 -25.663  0.00  0.00    -0.000 C 
ATOM     13  C   UNL     1      33.375  -5.341 -25.892  0.00  0.00    -0.000 C 
ENDBRANCH   3   8
BRANCH   4  15
ATOM     14  O   UNL     1      30.489  -9.138 -23.192  0.00  0.00    -0.248 OA
ATOM     15  C   UNL     1      30.986 -10.071 -22.579  0.00  0.00    +0.332 C 
BRANCH  15  16
ATOM     16  O   UNL     1      30.352 -11.242 -22.326  0.00  0.00    -0.479 OA
ATOM     17  H   UNL     1      29.767 -11.606 -22.962  0.00  0.00    +0.295 HD
ENDBRANCH  15  16
ENDBRANCH   4  15
BRANCH   7  18
ATOM     18  C   UNL     1      33.417 -11.683 -24.238  0.00  0.00    +0.176 C 
BRANCH  18  20
ATOM     19  O   UNL     1      31.960 -13.879 -23.099  0.00  0.00    -0.274 OA
ATOM     20  N   UNL     1      33.775 -12.432 -23.079  0.00  0.00    -0.296 N 
ATOM     21  C   UNL     1      33.009 -13.491 -22.587  0.00  0.00    +0.233 C 
ATOM     22  H   UNL     1      34.603 -12.190 -22.603  0.00  0.00    +0.150 HD
BRANCH  21  23
ATOM     23  C   UNL     1      33.588 -14.116 -21.322  0.00  0.00    +0.124 C 
BRANCH  23  24
ATOM     24  S   UNL     1      32.424 -15.428 -20.803  0.00  0.00    -0.159 S 
ATOM     25  H   UNL     1      32.271 -16.324 -21.815  0.00  0.00    +0.103 HD
ENDBRANCH  23  24
BRANCH  23  26
ATOM     26  C   UNL     1      34.976 -14.726 -21.559  0.00  0.00    +0.046 C 
BRANCH  26  27
ATOM     27  C   UNL     1      34.904 -16.018 -22.344  0.00  0.00    -0.021 C 
ATOM     28  C   UNL     1      34.961 -17.242 -21.678  0.00  0.00    -0.004 C 
ATOM     29  C   UNL     1      34.781 -15.984 -23.733  0.00  0.00    -0.004 C 
ATOM     30  C   UNL     1      34.894 -18.433 -22.402  0.00  0.00    -0.000 C 
ATOM     31  C   UNL     1      34.715 -17.175 -24.457  0.00  0.00    -0.000 C 
ATOM     32  C   UNL     1      34.771 -18.399 -23.791  0.00  0.00    -0.000 C 
ENDBRANCH  26  27
ENDBRANCH  23  26
ENDBRANCH  21  23
ENDBRANCH  18  20
ENDBRANCH   7  18
TORSDOF 9
ENDMDL
MODEL 5
REMARK VINA RESULT:      -8.5      7.145     12.670
REMARK  Name = 448087
REMARK  9 active torsions:
REMARK  status: ('A' for Active; 'I' for Inactive)
REMARK    1  A    between atoms: C_3  and  C_8
REMARK    2  A    between atoms: C_4  and  C_15
REMARK    3  A    between atoms: C_7  and  C_18
REMARK    4  A    between atoms: C_15  and  O_16
REMARK    5  A    between atoms: C_18  and  N_20
REMARK    6  A    between atoms: C_21  and  C_23
REMARK    7  A    between atoms: C_23  and  S_24
REMARK    8  A    between atoms: C_23  and  C_26
REMARK    9  A    between atoms: C_26  and  C_27
REMARK                            x       y       z     vdW  Elec       q    Type
REMARK                         _______ _______ _______ _____ _____    ______ ____
ROOT
ATOM      1  O   UNL     1      34.444 -23.863 -17.169  0.00  0.00    -0.273 OA
ATOM      2  N   UNL     1      32.550 -23.989 -15.840  0.00  0.00    -0.268 N 
ATOM      3  C   UNL     1      33.097 -24.988 -14.907  0.00  0.00    +0.098 C 
ATOM      4  C   UNL     1      31.108 -23.833 -15.654  0.00  0.00    +0.175 C 
ATOM      5  C   UNL     1      31.931 -25.322 -13.967  0.00  0.00    +0.027 C 
ATOM      6  C   UNL     1      30.696 -25.036 -14.815  0.00  0.00    +0.033 C 
ATOM      7  C   UNL     1      33.293 -23.506 -16.913  0.00  0.00    +0.246 C 
ENDROOT
BRANCH   3   8
ATOM      8  C   UNL     1      34.327 -24.549 -14.143  0.00  0.00    -0.004 C 
ATOM      9  C   UNL     1      35.596 -24.769 -14.678  0.00  0.00    -0.003 C 
ATOM     10  C   UNL     1      34.192 -23.924 -12.904  0.00  0.00    -0.003 C 
ATOM     11  C   UNL     1      36.730 -24.365 -13.974  0.00  0.00    -0.000 C 
ATOM     12  C   UNL     1      35.325 -23.519 -12.199  0.00  0.00    -0.000 C 
ATOM     13  C   UNL     1      36.595 -23.740 -12.735  0.00  0.00    -0.000 C 
ENDBRANCH   3   8
BRANCH   4  15
ATOM     14  O   UNL     1      31.705 -21.930 -14.288  0.00  0.00    -0.248 OA
ATOM     15  C   UNL     1      30.864 -22.545 -14.927  0.00  0.00    +0.332 C 
BRANCH  15  16
ATOM     16  O   UNL     1      29.575 -22.150 -15.071  0.00  0.00    -0.479 OA
ATOM     17  H   UNL     1      28.970 -22.257 -14.365  0.00  0.00    +0.295 HD
ENDBRANCH  15  16
ENDBRANCH   4  15
BRANCH   7  18
ATOM     18  C   UNL     1      32.613 -22.484 -17.789  0.00  0.00    +0.176 C 
BRANCH  18  20
ATOM     19  O   UNL     1      32.319 -20.602 -19.937  0.00  0.00    -0.274 OA
ATOM     20  N   UNL     1      33.663 -21.830 -18.497  0.00  0.00    -0.296 N 
ATOM     21  C   UNL     1      33.436 -20.923 -19.534  0.00  0.00    +0.233 C 
ATOM     22  H   UNL     1      34.594 -22.027 -18.241  0.00  0.00    +0.150 HD
BRANCH  21  23
ATOM     23  C   UNL     1      34.720 -20.378 -20.150  0.00  0.00    +0.124 C 
BRANCH  23  24
ATOM     24  S   UNL     1      36.058 -21.538 -19.694  0.00  0.00    -0.159 S 
ATOM     25  H   UNL     1      35.536 -22.573 -18.981  0.00  0.00    +0.103 HD
ENDBRANCH  23  24
BRANCH  23  26
ATOM     26  C   UNL     1      34.631 -20.273 -21.679  0.00  0.00    +0.046 C 
BRANCH  26  27
ATOM     27  C   UNL     1      34.764 -18.846 -22.161  0.00  0.00    -0.021 C 
ATOM     28  C   UNL     1      34.908 -18.581 -23.523  0.00  0.00    -0.004 C 
ATOM     29  C   UNL     1      34.742 -17.795 -21.244  0.00  0.00    -0.004 C 
ATOM     30  C   UNL     1      35.030 -17.264 -23.968  0.00  0.00    -0.000 C 
ATOM     31  C   UNL     1      34.864 -16.478 -21.690  0.00  0.00    -0.000 C 
ATOM     32  C   UNL     1      35.008 -16.213 -23.051  0.00  0.00    -0.000 C 
ENDBRANCH  26  27
ENDBRANCH  23  26
ENDBRANCH  21  23
ENDBRANCH  18  20
ENDBRANCH   7  18
TORSDOF 9
ENDMDL
MODEL 6
REMARK VINA RESULT:      -8.1      8.396     13.320
REMARK  Name = 448087
REMARK  9 active torsions:
REMARK  status: ('A' for Active; 'I' for Inactive)
REMARK    1  A    between atoms: C_3  and  C_8
REMARK    2  A    between atoms: C_4  and  C_15
REMARK    3  A    between atoms: C_7  and  C_18
REMARK    4  A    between atoms: C_15  and  O_16
REMARK    5  A    between atoms: C_18  and  N_20
REMARK    6  A    between atoms: C_21  and  C_23
REMARK    7  A    between atoms: C_23  and  S_24
REMARK    8  A    between atoms: C_23  and  C_26
REMARK    9  A    between atoms: C_26  and  C_27
REMARK                            x       y       z     vdW  Elec       q    Type
REMARK                         _______ _______ _______ _____ _____    ______ ____
ROOT
ATOM      1  O   UNL     1      34.682 -21.893 -15.354  0.00  0.00    -0.273 OA
ATOM      2  N   UNL     1      35.602 -23.647 -14.151  0.00  0.00    -0.268 N 
ATOM      3  C   UNL     1      34.605 -23.617 -13.069  0.00  0.00    +0.098 C 
ATOM      4  C   UNL     1      36.744 -24.487 -13.788  0.00  0.00    +0.175 C 
ATOM      5  C   UNL     1      35.096 -24.661 -12.057  0.00  0.00    +0.027 C 
ATOM      6  C   UNL     1      36.603 -24.697 -12.286  0.00  0.00    +0.033 C 
ATOM      7  C   UNL     1      35.548 -22.759 -15.221  0.00  0.00    +0.246 C 
ENDROOT
BRANCH   3   8
ATOM      8  C   UNL     1      33.178 -23.880 -13.502  0.00  0.00    -0.004 C 
ATOM      9  C   UNL     1      32.254 -22.837 -13.528  0.00  0.00    -0.003 C 
ATOM     10  C   UNL     1      32.789 -25.166 -13.874  0.00  0.00    -0.003 C 
ATOM     11  C   UNL     1      30.939 -23.079 -13.927  0.00  0.00    -0.000 C 
ATOM     12  C   UNL     1      31.475 -25.410 -14.272  0.00  0.00    -0.000 C 
ATOM     13  C   UNL     1      30.550 -24.366 -14.298  0.00  0.00    -0.000 C 
ENDBRANCH   3   8
BRANCH   4  15
ATOM     14  O   UNL     1      35.792 -26.029 -15.389  0.00  0.00    -0.248 OA
ATOM     15  C   UNL     1      36.634 -25.780 -14.538  0.00  0.00    +0.332 C 
BRANCH  15  16
ATOM     16  O   UNL     1      37.600 -26.645 -14.145  0.00  0.00    -0.479 OA
ATOM     17  H   UNL     1      37.480 -27.165 -13.375  0.00  0.00    +0.295 HD
ENDBRANCH  15  16
ENDBRANCH   4  15
BRANCH   7  18
ATOM     18  C   UNL     1      36.631 -22.901 -16.261  0.00  0.00    +0.176 C 
BRANCH  18  20
ATOM     19  O   UNL     1      36.822 -20.707 -18.103  0.00  0.00    -0.274 OA
ATOM     20  N   UNL     1      35.969 -22.786 -17.519  0.00  0.00    -0.296 N 
ATOM     21  C   UNL     1      36.115 -21.680 -18.360  0.00  0.00    +0.233 C 
ATOM     22  H   UNL     1      35.380 -23.521 -17.808  0.00  0.00    +0.150 HD
BRANCH  21  23
ATOM     23  C   UNL     1      35.285 -21.780 -19.636  0.00  0.00    +0.124 C 
BRANCH  23  24
ATOM     24  S   UNL     1      34.194 -23.234 -19.442  0.00  0.00    -0.159 S 
ATOM     25  H   UNL     1      33.608 -23.523 -20.635  0.00  0.00    +0.103 HD
ENDBRANCH  23  24
BRANCH  23  26
ATOM     26  C   UNL     1      34.432 -20.526 -19.872  0.00  0.00    +0.046 C 
BRANCH  26  27
ATOM     27  C   UNL     1      34.899 -19.737 -21.075  0.00  0.00    -0.021 C 
ATOM     28  C   UNL     1      34.138 -19.733 -22.244  0.00  0.00    -0.004 C 
ATOM     29  C   UNL     1      36.090 -19.013 -21.015  0.00  0.00    -0.004 C 
ATOM     30  C   UNL     1      34.569 -19.005 -23.354  0.00  0.00    -0.000 C 
ATOM     31  C   UNL     1      36.521 -18.285 -22.125  0.00  0.00    -0.000 C 
ATOM     32  C   UNL     1      35.760 -18.281 -23.294  0.00  0.00    -0.000 C 
ENDBRANCH  26  27
ENDBRANCH  23  26
ENDBRANCH  21  23
ENDBRANCH  18  20
ENDBRANCH   7  18
TORSDOF 9
ENDMDL
MODEL 7
REMARK VINA RESULT:      -7.9      3.046      8.187
REMARK  Name = 448087
REMARK  9 active torsions:
REMARK  status: ('A' for Active; 'I' for Inactive)
REMARK    1  A    between atoms: C_3  and  C_8
REMARK    2  A    between atoms: C_4  and  C_15
REMARK    3  A    between atoms: C_7  and  C_18
REMARK    4  A    between atoms: C_15  and  O_16
REMARK    5  A    between atoms: C_18  and  N_20
REMARK    6  A    between atoms: C_21  and  C_23
REMARK    7  A    between atoms: C_23  and  S_24
REMARK    8  A    between atoms: C_23  and  C_26
REMARK    9  A    between atoms: C_26  and  C_27
REMARK                            x       y       z     vdW  Elec       q    Type
REMARK                         _______ _______ _______ _____ _____    ______ ____
ROOT
ATOM      1  O   UNL     1      35.039 -19.417 -23.378  0.00  0.00    -0.273 OA
ATOM      2  N   UNL     1      34.122 -17.826 -21.965  0.00  0.00    -0.268 N 
ATOM      3  C   UNL     1      33.137 -18.731 -21.350  0.00  0.00    +0.098 C 
ATOM      4  C   UNL     1      33.834 -16.432 -21.626  0.00  0.00    +0.175 C 
ATOM      5  C   UNL     1      32.306 -17.833 -20.424  0.00  0.00    +0.027 C 
ATOM      6  C   UNL     1      32.415 -16.456 -21.070  0.00  0.00    +0.033 C 
ATOM      7  C   UNL     1      35.004 -18.263 -22.948  0.00  0.00    +0.246 C 
ENDROOT
BRANCH   3   8
ATOM      8  C   UNL     1      33.726 -19.912 -20.608  0.00  0.00    -0.004 C 
ATOM      9  C   UNL     1      35.109 -20.067 -20.531  0.00  0.00    -0.003 C 
ATOM     10  C   UNL     1      32.884 -20.845 -20.004  0.00  0.00    -0.003 C 
ATOM     11  C   UNL     1      35.652 -21.155 -19.848  0.00  0.00    -0.000 C 
ATOM     12  C   UNL     1      33.426 -21.934 -19.321  0.00  0.00    -0.000 C 
ATOM     13  C   UNL     1      34.810 -22.089 -19.243  0.00  0.00    -0.000 C 
ENDBRANCH   3   8
BRANCH   4  15
ATOM     14  O   UNL     1      35.583 -16.724 -19.983  0.00  0.00    -0.248 OA
ATOM     15  C   UNL     1      34.823 -15.985 -20.592  0.00  0.00    +0.332 C 
BRANCH  15  16
ATOM     16  O   UNL     1      34.761 -14.643 -20.418  0.00  0.00    -0.479 OA
ATOM     17  H   UNL     1      34.577 -14.083 -21.147  0.00  0.00    +0.295 HD
ENDBRANCH  15  16
ENDBRANCH   4  15
BRANCH   7  18
ATOM     18  C   UNL     1      35.961 -17.232 -23.491  0.00  0.00    +0.176 C 
BRANCH  18  20
ATOM     19  O   UNL     1      34.537 -16.875 -25.959  0.00  0.00    -0.274 OA
ATOM     20  N   UNL     1      35.153 -16.115 -23.853  0.00  0.00    -0.296 N 
ATOM     21  C   UNL     1      34.490 -16.016 -25.079  0.00  0.00    +0.233 C 
ATOM     22  H   UNL     1      35.057 -15.376 -23.208  0.00  0.00    +0.150 HD
BRANCH  21  23
ATOM     23  C   UNL     1      33.711 -14.715 -25.240  0.00  0.00    +0.124 C 
BRANCH  23  24
ATOM     24  S   UNL     1      32.599 -14.942 -26.674  0.00  0.00    -0.159 S 
ATOM     25  H   UNL     1      31.388 -14.385 -26.400  0.00  0.00    +0.103 HD
ENDBRANCH  23  24
BRANCH  23  26
ATOM     26  C   UNL     1      32.880 -14.379 -23.995  0.00  0.00    +0.046 C 
BRANCH  26  27
ATOM     27  C   UNL     1      32.909 -12.901 -23.672  0.00  0.00    -0.021 C 
ATOM     28  C   UNL     1      32.091 -12.392 -22.664  0.00  0.00    -0.004 C 
ATOM     29  C   UNL     1      33.755 -12.049 -24.382  0.00  0.00    -0.004 C 
ATOM     30  C   UNL     1      32.118 -11.029 -22.366  0.00  0.00    -0.000 C 
ATOM     31  C   UNL     1      33.782 -10.686 -24.084  0.00  0.00    -0.000 C 
ATOM     32  C   UNL     1      32.964 -10.176 -23.076  0.00  0.00    -0.000 C 
ENDBRANCH  26  27
ENDBRANCH  23  26
ENDBRANCH  21  23
ENDBRANCH  18  20
ENDBRANCH   7  18
TORSDOF 9
ENDMDL
MODEL 8
REMARK VINA RESULT:      -7.3      5.704      8.825
REMARK  Name = 448087
REMARK  9 active torsions:
REMARK  status: ('A' for Active; 'I' for Inactive)
REMARK    1  A    between atoms: C_3  and  C_8
REMARK    2  A    between atoms: C_4  and  C_15
REMARK    3  A    between atoms: C_7  and  C_18
REMARK    4  A    between atoms: C_15  and  O_16
REMARK    5  A    between atoms: C_18  and  N_20
REMARK    6  A    between atoms: C_21  and  C_23
REMARK    7  A    between atoms: C_23  and  S_24
REMARK    8  A    between atoms: C_23  and  C_26
REMARK    9  A    between atoms: C_26  and  C_27
REMARK                            x       y       z     vdW  Elec       q    Type
REMARK                         _______ _______ _______ _____ _____    ______ ____
ROOT
ATOM      1  O   UNL     1      33.022 -19.916 -20.033  0.00  0.00    -0.273 OA
ATOM      2  N   UNL     1      34.684 -19.385 -21.558  0.00  0.00    -0.268 N 
ATOM      3  C   UNL     1      33.907 -18.352 -22.263  0.00  0.00    +0.098 C 
ATOM      4  C   UNL     1      35.888 -19.739 -22.311  0.00  0.00    +0.175 C 
ATOM      5  C   UNL     1      34.803 -17.921 -23.432  0.00  0.00    +0.027 C 
ATOM      6  C   UNL     1      35.660 -19.154 -23.699  0.00  0.00    +0.033 C 
ATOM      7  C   UNL     1      34.157 -20.090 -20.481  0.00  0.00    +0.246 C 
ENDROOT
BRANCH   3   8
ATOM      8  C   UNL     1      33.486 -17.173 -21.412  0.00  0.00    -0.004 C 
ATOM      9  C   UNL     1      32.152 -17.028 -21.035  0.00  0.00    -0.003 C 
ATOM     10  C   UNL     1      34.432 -16.232 -21.007  0.00  0.00    -0.003 C 
ATOM     11  C   UNL     1      31.763 -15.941 -20.251  0.00  0.00    -0.000 C 
ATOM     12  C   UNL     1      34.045 -15.145 -20.224  0.00  0.00    -0.000 C 
ATOM     13  C   UNL     1      32.709 -14.999 -19.847  0.00  0.00    -0.000 C 
ENDBRANCH   3   8
BRANCH   4  15
ATOM     14  O   UNL     1      37.251 -19.080 -20.426  0.00  0.00    -0.248 OA
ATOM     15  C   UNL     1      37.068 -19.108 -21.634  0.00  0.00    +0.332 C 
BRANCH  15  16
ATOM     16  O   UNL     1      37.911 -18.568 -22.547  0.00  0.00    -0.479 OA
ATOM     17  H   UNL     1      38.091 -19.022 -23.347  0.00  0.00    +0.295 HD
ENDBRANCH  15  16
ENDBRANCH   4  15
BRANCH   7  18
ATOM     18  C   UNL     1      35.061 -21.119 -19.850  0.00  0.00    +0.176 C 
BRANCH  18  20
ATOM     19  O   UNL     1      34.095 -23.813 -19.620  0.00  0.00    -0.274 OA
ATOM     20  N   UNL     1      34.316 -21.666 -18.765  0.00  0.00    -0.296 N 
ATOM     21  C   UNL     1      33.881 -22.993 -18.728  0.00  0.00    +0.233 C 
ATOM     22  H   UNL     1      34.097 -21.080 -18.003  0.00  0.00    +0.150 HD
BRANCH  21  23
ATOM     23  C   UNL     1      33.081 -23.331 -17.475  0.00  0.00    +0.124 C 
BRANCH  23  24
ATOM     24  S   UNL     1      34.211 -23.112 -16.054  0.00  0.00    -0.159 S 
ATOM     25  H   UNL     1      35.456 -22.805 -16.508  0.00  0.00    +0.103 HD
ENDBRANCH  23  24
BRANCH  23  26
ATOM     26  C   UNL     1      31.859 -22.419 -17.303  0.00  0.00    +0.046 C 
BRANCH  26  27
ATOM     27  C   UNL     1      30.751 -23.091 -16.523  0.00  0.00    -0.021 C 
ATOM     28  C   UNL     1      29.454 -22.581 -16.574  0.00  0.00    -0.004 C 
ATOM     29  C   UNL     1      31.026 -24.221 -15.753  0.00  0.00    -0.004 C 
ATOM     30  C   UNL     1      28.431 -23.201 -15.854  0.00  0.00    -0.000 C 
ATOM     31  C   UNL     1      30.004 -24.841 -15.033  0.00  0.00    -0.000 C 
ATOM     32  C   UNL     1      28.707 -24.331 -15.084  0.00  0.00    -0.000 C 
ENDBRANCH  26  27
ENDBRANCH  23  26
ENDBRANCH  21  23
ENDBRANCH  18  20
ENDBRANCH   7  18
TORSDOF 9
ENDMDL
MODEL 9
REMARK VINA RESULT:      -7.2      4.597      7.307
REMARK  Name = 448087
REMARK  9 active torsions:
REMARK  status: ('A' for Active; 'I' for Inactive)
REMARK    1  A    between atoms: C_3  and  C_8
REMARK    2  A    between atoms: C_4  and  C_15
REMARK    3  A    between atoms: C_7  and  C_18
REMARK    4  A    between atoms: C_15  and  O_16
REMARK    5  A    between atoms: C_18  and  N_20
REMARK    6  A    between atoms: C_21  and  C_23
REMARK    7  A    between atoms: C_23  and  S_24
REMARK    8  A    between atoms: C_23  and  C_26
REMARK    9  A    between atoms: C_26  and  C_27
REMARK                            x       y       z     vdW  Elec       q    Type
REMARK                         _______ _______ _______ _____ _____    ______ ____
ROOT
ATOM      1  O   UNL     1      34.597 -18.615 -23.058  0.00  0.00    -0.273 OA
ATOM      2  N   UNL     1      34.187 -16.777 -21.707  0.00  0.00    -0.268 N 
ATOM      3  C   UNL     1      34.797 -15.792 -22.615  0.00  0.00    +0.098 C 
ATOM      4  C   UNL     1      33.936 -16.189 -20.391  0.00  0.00    +0.175 C 
ATOM      5  C   UNL     1      34.740 -14.465 -21.847  0.00  0.00    +0.027 C 
ATOM      6  C   UNL     1      34.745 -14.898 -20.385  0.00  0.00    +0.033 C 
ATOM      7  C   UNL     1      34.142 -18.132 -22.019  0.00  0.00    +0.246 C 
ENDROOT
BRANCH   3   8
ATOM      8  C   UNL     1      34.145 -15.683 -23.977  0.00  0.00    -0.004 C 
ATOM      9  C   UNL     1      33.403 -14.549 -24.305  0.00  0.00    -0.003 C 
ATOM     10  C   UNL     1      34.285 -16.717 -24.902  0.00  0.00    -0.003 C 
ATOM     11  C   UNL     1      32.801 -14.448 -25.559  0.00  0.00    -0.000 C 
ATOM     12  C   UNL     1      33.684 -16.617 -26.157  0.00  0.00    -0.000 C 
ATOM     13  C   UNL     1      32.941 -15.482 -26.485  0.00  0.00    -0.000 C 
ENDBRANCH   3   8
BRANCH   4  15
ATOM     14  O   UNL     1      31.581 -16.660 -20.669  0.00  0.00    -0.248 OA
ATOM     15  C   UNL     1      32.467 -15.919 -20.268  0.00  0.00    +0.332 C 
BRANCH  15  16
ATOM     16  O   UNL     1      32.248 -14.732 -19.651  0.00  0.00    -0.479 OA
ATOM     17  H   UNL     1      31.473 -14.604 -19.141  0.00  0.00    +0.295 HD
ENDBRANCH  15  16
ENDBRANCH   4  15
BRANCH   7  18
ATOM     18  C   UNL     1      33.486 -19.030 -21.001  0.00  0.00    +0.176 C 
BRANCH  18  20
ATOM     19  O   UNL     1      33.161 -21.320 -19.300  0.00  0.00    -0.274 OA
ATOM     20  N   UNL     1      34.516 -19.904 -20.545  0.00  0.00    -0.296 N 
ATOM     21  C   UNL     1      34.275 -21.002 -19.715  0.00  0.00    +0.233 C 
ATOM     22  H   UNL     1      35.443 -19.725 -20.828  0.00  0.00    +0.150 HD
BRANCH  21  23
ATOM     23  C   UNL     1      35.541 -21.766 -19.344  0.00  0.00    +0.124 C 
BRANCH  23  24
ATOM     24  S   UNL     1      36.747 -21.471 -20.686  0.00  0.00    -0.159 S 
ATOM     25  H   UNL     1      36.331 -22.104 -21.816  0.00  0.00    +0.103 HD
ENDBRANCH  23  24
BRANCH  23  26
ATOM     26  C   UNL     1      36.133 -21.294 -18.009  0.00  0.00    +0.046 C 
BRANCH  26  27
ATOM     27  C   UNL     1      36.052 -22.361 -16.940  0.00  0.00    -0.021 C 
ATOM     28  C   UNL     1      37.195 -22.722 -16.227  0.00  0.00    -0.004 C 
ATOM     29  C   UNL     1      34.834 -22.984 -16.667  0.00  0.00    -0.004 C 
ATOM     30  C   UNL     1      37.121 -23.707 -15.241  0.00  0.00    -0.000 C 
ATOM     31  C   UNL     1      34.759 -23.968 -15.681  0.00  0.00    -0.000 C 
ATOM     32  C   UNL     1      35.902 -24.329 -14.968  0.00  0.00    -0.000 C 
ENDBRANCH  26  27
ENDBRANCH  23  26
ENDBRANCH  21  23
ENDBRANCH  18  20
ENDBRANCH   7  18
TORSDOF 9
ENDMDL
