MODEL 1
REMARK VINA RESULT:     -10.9      0.000      0.000
REMARK  Name = 446665
REMARK  13 active torsions:
REMARK  status: ('A' for Active; 'I' for Inactive)
REMARK    1  A    between atoms: C_1  and  C_2
REMARK    2  A    between atoms: C_1  and  C_19
REMARK    3  A    between atoms: C_2  and  C_3
REMARK    4  A    between atoms: C_3  and  C_4
REMARK    5  A    between atoms: C_7  and  C_12
REMARK    6  A    between atoms: C_12  and  P_13
REMARK    7  A    between atoms: P_13  and  O_15
REMARK    8  A    between atoms: P_13  and  O_17
REMARK    9  A    between atoms: C_19  and  C_20
REMARK   10  A    between atoms: C_23  and  C_28
REMARK   11  A    between atoms: C_28  and  P_29
REMARK   12  A    between atoms: P_29  and  O_31
REMARK   13  A    between atoms: P_29  and  O_33
REMARK                            x       y       z     vdW  Elec       q    Type
REMARK                         _______ _______ _______ _____ _____    ______ ____
ROOT
ATOM      1  C   UNL     1      33.594 -23.497 -17.337  0.00  0.00    +0.005 C 
ENDROOT
BRANCH   1   2
ATOM      2  C   UNL     1      33.516 -22.559 -18.549  0.00  0.00    +0.005 C 
BRANCH   2   3
ATOM      3  C   UNL     1      34.898 -22.169 -19.089  0.00  0.00    +0.026 C 
BRANCH   3   4
ATOM      4  C   UNL     1      34.888 -20.913 -19.926  0.00  0.00    -0.022 C 
ATOM      5  C   UNL     1      33.677 -20.358 -20.337  0.00  0.00    -0.004 C 
ATOM      6  C   UNL     1      36.091 -20.308 -20.287  0.00  0.00    -0.004 C 
ATOM      7  C   UNL     1      34.871 -18.592 -21.472  0.00  0.00    +0.049 C 
ATOM      8  C   UNL     1      33.668 -19.197 -21.110  0.00  0.00    +0.001 C 
ATOM      9  C   UNL     1      36.083 -19.147 -21.060  0.00  0.00    +0.001 C 
BRANCH   7  12
ATOM     10  F   UNL     1      36.072 -17.007 -22.812  0.00  0.00    -0.187 F 
ATOM     11  F   UNL     1      33.991 -17.365 -23.340  0.00  0.00    -0.187 F 
ATOM     12  C   UNL     1      34.862 -17.350 -22.298  0.00  0.00    +0.372 C 
BRANCH  12  13
ATOM     13  P   UNL     1      34.416 -15.821 -21.524  0.00  0.00    +0.401 P 
ATOM     14  O   UNL     1      34.835 -14.591 -22.276  0.00  0.00    -0.252 OA
BRANCH  13  15
ATOM     15  O   UNL     1      35.032 -15.947 -20.034  0.00  0.00    -0.320 OA
ATOM     16  H   UNL     1      35.858 -16.454 -20.068  0.00  0.00    +0.220 HD
ENDBRANCH  13  15
BRANCH  13  17
ATOM     17  O   UNL     1      32.824 -15.952 -21.275  0.00  0.00    -0.320 OA
ATOM     18  H   UNL     1      32.614 -15.667 -20.372  0.00  0.00    +0.220 HD
ENDBRANCH  13  17
ENDBRANCH  12  13
ENDBRANCH   7  12
ENDBRANCH   3   4
ENDBRANCH   2   3
ENDBRANCH   1   2
BRANCH   1  19
ATOM     19  C   UNL     1      34.306 -22.861 -16.136  0.00  0.00    +0.026 C 
BRANCH  19  20
ATOM     20  C   UNL     1      35.447 -23.689 -15.601  0.00  0.00    -0.022 C 
ATOM     21  C   UNL     1      36.721 -23.130 -15.488  0.00  0.00    -0.004 C 
ATOM     22  C   UNL     1      35.230 -25.012 -15.218  0.00  0.00    -0.004 C 
ATOM     23  C   UNL     1      37.559 -25.218 -14.611  0.00  0.00    +0.049 C 
ATOM     24  C   UNL     1      37.777 -23.895 -14.993  0.00  0.00    +0.001 C 
ATOM     25  C   UNL     1      36.287 -25.777 -14.723  0.00  0.00    +0.001 C 
BRANCH  23  28
ATOM     26  F   UNL     1      38.870 -25.944 -12.738  0.00  0.00    -0.187 F 
ATOM     27  F   UNL     1      38.615 -27.362 -14.370  0.00  0.00    -0.187 F 
ATOM     28  C   UNL     1      38.688 -26.037 -14.081  0.00  0.00    +0.372 C 
BRANCH  28  29
ATOM     29  P   UNL     1      40.330 -25.673 -14.634  0.00  0.00    +0.401 P 
ATOM     30  O   UNL     1      40.876 -24.359 -14.162  0.00  0.00    -0.252 OA
BRANCH  29  31
ATOM     31  O   UNL     1      40.242 -25.832 -16.241  0.00  0.00    -0.320 OA
ATOM     32  H   UNL     1      39.757 -26.643 -16.460  0.00  0.00    +0.220 HD
ENDBRANCH  29  31
BRANCH  29  33
ATOM     33  O   UNL     1      41.195 -26.965 -14.186  0.00  0.00    -0.320 OA
ATOM     34  H   UNL     1      41.675 -27.316 -14.953  0.00  0.00    +0.220 HD
ENDBRANCH  29  33
ENDBRANCH  28  29
ENDBRANCH  23  28
ENDBRANCH  19  20
ENDBRANCH   1  19
TORSDOF 13
ENDMDL
MODEL 2
REMARK VINA RESULT:     -10.9      0.246     10.563
REMARK  Name = 446665
REMARK  13 active torsions:
REMARK  status: ('A' for Active; 'I' for Inactive)
REMARK    1  A    between atoms: C_1  and  C_2
REMARK    2  A    between atoms: C_1  and  C_19
REMARK    3  A    between atoms: C_2  and  C_3
REMARK    4  A    between atoms: C_3  and  C_4
REMARK    5  A    between atoms: C_7  and  C_12
REMARK    6  A    between atoms: C_12  and  P_13
REMARK    7  A    between atoms: P_13  and  O_15
REMARK    8  A    between atoms: P_13  and  O_17
REMARK    9  A    between atoms: C_19  and  C_20
REMARK   10  A    between atoms: C_23  and  C_28
REMARK   11  A    between atoms: C_28  and  P_29
REMARK   12  A    between atoms: P_29  and  O_31
REMARK   13  A    between atoms: P_29  and  O_33
REMARK                            x       y       z     vdW  Elec       q    Type
REMARK                         _______ _______ _______ _____ _____    ______ ____
ROOT
ATOM      1  C   UNL     1      33.829 -22.850 -18.898  0.00  0.00    +0.005 C 
ENDROOT
BRANCH   1   2
ATOM      2  C   UNL     1      33.630 -23.317 -17.450  0.00  0.00    +0.005 C 
BRANCH   2   3
ATOM      3  C   UNL     1      34.529 -22.573 -16.455  0.00  0.00    +0.026 C 
BRANCH   3   4
ATOM      4  C   UNL     1      35.609 -23.437 -15.851  0.00  0.00    -0.022 C 
ATOM      5  C   UNL     1      36.912 -22.953 -15.746  0.00  0.00    -0.004 C 
ATOM      6  C   UNL     1      35.302 -24.720 -15.400  0.00  0.00    -0.004 C 
ATOM      7  C   UNL     1      37.603 -25.035 -14.735  0.00  0.00    +0.049 C 
ATOM      8  C   UNL     1      37.910 -23.752 -15.187  0.00  0.00    +0.001 C 
ATOM      9  C   UNL     1      36.299 -25.520 -14.841  0.00  0.00    +0.001 C 
BRANCH   7  12
ATOM     10  F   UNL     1      38.824 -25.741 -12.795  0.00  0.00    -0.187 F 
ATOM     11  F   UNL     1      38.527 -27.220 -14.364  0.00  0.00    -0.187 F 
ATOM     12  C   UNL     1      38.670 -25.890 -14.137  0.00  0.00    +0.372 C 
BRANCH  12  13
ATOM     13  P   UNL     1      40.343 -25.648 -14.663  0.00  0.00    +0.401 P 
ATOM     14  O   UNL     1      40.966 -24.361 -14.206  0.00  0.00    -0.252 OA
BRANCH  13  15
ATOM     15  O   UNL     1      40.276 -25.836 -16.268  0.00  0.00    -0.320 OA
ATOM     16  H   UNL     1      41.169 -25.761 -16.639  0.00  0.00    +0.220 HD
ENDBRANCH  13  15
BRANCH  13  17
ATOM     17  O   UNL     1      41.111 -26.983 -14.169  0.00  0.00    -0.320 OA
ATOM     18  H   UNL     1      41.919 -26.734 -13.695  0.00  0.00    +0.220 HD
ENDBRANCH  13  17
ENDBRANCH  12  13
ENDBRANCH   7  12
ENDBRANCH   3   4
ENDBRANCH   2   3
ENDBRANCH   1   2
BRANCH   1  19
ATOM     19  C   UNL     1      35.182 -22.164 -19.122  0.00  0.00    +0.026 C 
BRANCH  19  20
ATOM     20  C   UNL     1      35.091 -20.896 -19.933  0.00  0.00    -0.022 C 
ATOM     21  C   UNL     1      36.253 -20.208 -20.285  0.00  0.00    -0.004 C 
ATOM     22  C   UNL     1      33.846 -20.411 -20.333  0.00  0.00    -0.004 C 
ATOM     23  C   UNL     1      34.924 -18.551 -21.435  0.00  0.00    +0.049 C 
ATOM     24  C   UNL     1      36.169 -19.036 -21.036  0.00  0.00    +0.001 C 
ATOM     25  C   UNL     1      33.763 -19.238 -21.084  0.00  0.00    +0.001 C 
BRANCH  23  28
ATOM     26  F   UNL     1      35.999 -16.917 -22.822  0.00  0.00    -0.187 F 
ATOM     27  F   UNL     1      33.897 -17.317 -23.222  0.00  0.00    -0.187 F 
ATOM     28  C   UNL     1      34.834 -17.297 -22.238  0.00  0.00    +0.372 C 
BRANCH  28  29
ATOM     29  P   UNL     1      34.404 -15.792 -21.411  0.00  0.00    +0.401 P 
ATOM     30  O   UNL     1      35.002 -15.633 -20.045  0.00  0.00    -0.252 OA
BRANCH  29  31
ATOM     31  O   UNL     1      32.788 -15.776 -21.450  0.00  0.00    -0.320 OA
ATOM     32  H   UNL     1      32.441 -16.258 -20.683  0.00  0.00    +0.220 HD
ENDBRANCH  29  31
BRANCH  29  33
ATOM     33  O   UNL     1      34.806 -14.632 -22.465  0.00  0.00    -0.320 OA
ATOM     34  H   UNL     1      35.138 -15.037 -23.282  0.00  0.00    +0.220 HD
ENDBRANCH  29  33
ENDBRANCH  28  29
ENDBRANCH  23  28
ENDBRANCH  19  20
ENDBRANCH   1  19
TORSDOF 13
ENDMDL
MODEL 3
REMARK VINA RESULT:     -10.7      0.751      1.884
REMARK  Name = 446665
REMARK  13 active torsions:
REMARK  status: ('A' for Active; 'I' for Inactive)
REMARK    1  A    between atoms: C_1  and  C_2
REMARK    2  A    between atoms: C_1  and  C_19
REMARK    3  A    between atoms: C_2  and  C_3
REMARK    4  A    between atoms: C_3  and  C_4
REMARK    5  A    between atoms: C_7  and  C_12
REMARK    6  A    between atoms: C_12  and  P_13
REMARK    7  A    between atoms: P_13  and  O_15
REMARK    8  A    between atoms: P_13  and  O_17
REMARK    9  A    between atoms: C_19  and  C_20
REMARK   10  A    between atoms: C_23  and  C_28
REMARK   11  A    between atoms: C_28  and  P_29
REMARK   12  A    between atoms: P_29  and  O_31
REMARK   13  A    between atoms: P_29  and  O_33
REMARK                            x       y       z     vdW  Elec       q    Type
REMARK                         _______ _______ _______ _____ _____    ______ ____
ROOT
ATOM      1  C   UNL     1      33.415 -23.609 -17.539  0.00  0.00    +0.005 C 
ENDROOT
BRANCH   1   2
ATOM      2  C   UNL     1      33.376 -22.419 -18.507  0.00  0.00    +0.005 C 
BRANCH   2   3
ATOM      3  C   UNL     1      34.749 -22.094 -19.107  0.00  0.00    +0.026 C 
BRANCH   3   4
ATOM      4  C   UNL     1      34.760 -20.844 -19.952  0.00  0.00    -0.022 C 
ATOM      5  C   UNL     1      35.972 -20.269 -20.332  0.00  0.00    -0.004 C 
ATOM      6  C   UNL     1      33.557 -20.263 -20.352  0.00  0.00    -0.004 C 
ATOM      7  C   UNL     1      34.778 -18.533 -21.514  0.00  0.00    +0.049 C 
ATOM      8  C   UNL     1      35.981 -19.113 -21.114  0.00  0.00    +0.001 C 
ATOM      9  C   UNL     1      33.565 -19.108 -21.133  0.00  0.00    +0.001 C 
BRANCH   7  12
ATOM     10  F   UNL     1      36.025 -16.893 -22.741  0.00  0.00    -0.187 F 
ATOM     11  F   UNL     1      34.031 -17.366 -23.475  0.00  0.00    -0.187 F 
ATOM     12  C   UNL     1      34.788 -17.298 -22.350  0.00  0.00    +0.372 C 
BRANCH  12  13
ATOM     13  P   UNL     1      34.185 -15.791 -21.642  0.00  0.00    +0.401 P 
ATOM     14  O   UNL     1      32.692 -15.707 -21.520  0.00  0.00    -0.252 OA
BRANCH  13  15
ATOM     15  O   UNL     1      34.856 -14.638 -22.556  0.00  0.00    -0.320 OA
ATOM     16  H   UNL     1      35.794 -14.547 -22.325  0.00  0.00    +0.220 HD
ENDBRANCH  13  15
BRANCH  13  17
ATOM     17  O   UNL     1      34.986 -15.662 -20.243  0.00  0.00    -0.320 OA
ATOM     18  H   UNL     1      34.462 -16.064 -19.533  0.00  0.00    +0.220 HD
ENDBRANCH  13  17
ENDBRANCH  12  13
ENDBRANCH   7  12
ENDBRANCH   3   4
ENDBRANCH   2   3
ENDBRANCH   1   2
BRANCH   1  19
ATOM     19  C   UNL     1      33.526 -23.180 -16.071  0.00  0.00    +0.026 C 
BRANCH  19  20
ATOM     20  C   UNL     1      34.778 -23.670 -15.389  0.00  0.00    -0.022 C 
ATOM     21  C   UNL     1      35.024 -25.040 -15.283  0.00  0.00    -0.004 C 
ATOM     22  C   UNL     1      35.692 -22.755 -14.865  0.00  0.00    -0.004 C 
ATOM     23  C   UNL     1      37.095 -24.579 -14.129  0.00  0.00    +0.049 C 
ATOM     24  C   UNL     1      36.183 -25.494 -14.653  0.00  0.00    +0.001 C 
ATOM     25  C   UNL     1      36.850 -23.210 -14.234  0.00  0.00    +0.001 C 
BRANCH  23  28
ATOM     26  F   UNL     1      38.859 -24.198 -12.548  0.00  0.00    -0.187 F 
ATOM     27  F   UNL     1      38.208 -26.258 -12.820  0.00  0.00    -0.187 F 
ATOM     28  C   UNL     1      38.335 -25.064 -13.455  0.00  0.00    +0.372 C 
BRANCH  28  29
ATOM     29  P   UNL     1      39.770 -25.372 -14.444  0.00  0.00    +0.401 P 
ATOM     30  O   UNL     1      40.047 -26.821 -14.714  0.00  0.00    -0.252 OA
BRANCH  29  31
ATOM     31  O   UNL     1      40.953 -24.590 -13.667  0.00  0.00    -0.320 OA
ATOM     32  H   UNL     1      41.148 -23.759 -14.128  0.00  0.00    +0.220 HD
ENDBRANCH  29  31
BRANCH  29  33
ATOM     33  O   UNL     1      39.542 -24.470 -15.767  0.00  0.00    -0.320 OA
ATOM     34  H   UNL     1      40.335 -24.505 -16.324  0.00  0.00    +0.220 HD
ENDBRANCH  29  33
ENDBRANCH  28  29
ENDBRANCH  23  28
ENDBRANCH  19  20
ENDBRANCH   1  19
TORSDOF 13
ENDMDL
MODEL 4
REMARK VINA RESULT:     -10.6      5.428      9.933
REMARK  Name = 446665
REMARK  13 active torsions:
REMARK  status: ('A' for Active; 'I' for Inactive)
REMARK    1  A    between atoms: C_1  and  C_2
REMARK    2  A    between atoms: C_1  and  C_19
REMARK    3  A    between atoms: C_2  and  C_3
REMARK    4  A    between atoms: C_3  and  C_4
REMARK    5  A    between atoms: C_7  and  C_12
REMARK    6  A    between atoms: C_12  and  P_13
REMARK    7  A    between atoms: P_13  and  O_15
REMARK    8  A    between atoms: P_13  and  O_17
REMARK    9  A    between atoms: C_19  and  C_20
REMARK   10  A    between atoms: C_23  and  C_28
REMARK   11  A    between atoms: C_28  and  P_29
REMARK   12  A    between atoms: P_29  and  O_31
REMARK   13  A    between atoms: P_29  and  O_33
REMARK                            x       y       z     vdW  Elec       q    Type
REMARK                         _______ _______ _______ _____ _____    ______ ____
ROOT
ATOM      1  C   UNL     1      36.487 -21.754 -18.278  0.00  0.00    +0.005 C 
ENDROOT
BRANCH   1   2
ATOM      2  C   UNL     1      35.883 -21.899 -16.874  0.00  0.00    +0.005 C 
BRANCH   2   3
ATOM      3  C   UNL     1      35.288 -23.290 -16.623  0.00  0.00    +0.026 C 
BRANCH   3   4
ATOM      4  C   UNL     1      33.831 -23.263 -16.231  0.00  0.00    -0.022 C 
ATOM      5  C   UNL     1      32.847 -23.138 -17.211  0.00  0.00    -0.004 C 
ATOM      6  C   UNL     1      33.469 -23.363 -14.888  0.00  0.00    -0.004 C 
ATOM      7  C   UNL     1      31.138 -23.213 -15.506  0.00  0.00    +0.049 C 
ATOM      8  C   UNL     1      31.500 -23.113 -16.848  0.00  0.00    +0.001 C 
ATOM      9  C   UNL     1      32.123 -23.339 -14.524  0.00  0.00    +0.001 C 
BRANCH   7  12
ATOM     10  F   UNL     1      29.302 -24.239 -14.353  0.00  0.00    -0.187 F 
ATOM     11  F   UNL     1      29.305 -22.066 -14.462  0.00  0.00    -0.187 F 
ATOM     12  C   UNL     1      29.698 -23.188 -15.118  0.00  0.00    +0.372 C 
BRANCH  12  13
ATOM     13  P   UNL     1      28.475 -23.264 -16.395  0.00  0.00    +0.401 P 
ATOM     14  O   UNL     1      28.499 -24.521 -17.214  0.00  0.00    -0.252 OA
BRANCH  13  15
ATOM     15  O   UNL     1      28.708 -21.903 -17.237  0.00  0.00    -0.320 OA
ATOM     16  H   UNL     1      28.034 -21.250 -16.989  0.00  0.00    +0.220 HD
ENDBRANCH  13  15
BRANCH  13  17
ATOM     17  O   UNL     1      27.080 -22.985 -15.626  0.00  0.00    -0.320 OA
ATOM     18  H   UNL     1      26.847 -23.758 -15.090  0.00  0.00    +0.220 HD
ENDBRANCH  13  17
ENDBRANCH  12  13
ENDBRANCH   7  12
ENDBRANCH   3   4
ENDBRANCH   2   3
ENDBRANCH   1   2
BRANCH   1  19
ATOM     19  C   UNL     1      35.438 -21.858 -19.391  0.00  0.00    +0.026 C 
BRANCH  19  20
ATOM     20  C   UNL     1      35.262 -20.584 -20.178  0.00  0.00    -0.022 C 
ATOM     21  C   UNL     1      36.380 -19.851 -20.579  0.00  0.00    -0.004 C 
ATOM     22  C   UNL     1      33.981 -20.138 -20.506  0.00  0.00    -0.004 C 
ATOM     23  C   UNL     1      34.937 -18.227 -21.635  0.00  0.00    +0.049 C 
ATOM     24  C   UNL     1      36.217 -18.674 -21.308  0.00  0.00    +0.001 C 
ATOM     25  C   UNL     1      33.819 -18.959 -21.234  0.00  0.00    +0.001 C 
BRANCH  23  28
ATOM     26  F   UNL     1      35.910 -16.464 -22.937  0.00  0.00    -0.187 F 
ATOM     27  F   UNL     1      33.874 -17.050 -23.439  0.00  0.00    -0.187 F 
ATOM     28  C   UNL     1      34.762 -16.967 -22.415  0.00  0.00    +0.372 C 
BRANCH  28  29
ATOM     29  P   UNL     1      34.156 -15.531 -21.575  0.00  0.00    +0.401 P 
ATOM     30  O   UNL     1      32.663 -15.448 -21.470  0.00  0.00    -0.252 OA
BRANCH  29  31
ATOM     31  O   UNL     1      34.849 -14.300 -22.363  0.00  0.00    -0.320 OA
ATOM     32  H   UNL     1      35.646 -14.615 -22.818  0.00  0.00    +0.220 HD
ENDBRANCH  29  31
BRANCH  29  33
ATOM     33  O   UNL     1      34.935 -15.542 -20.157  0.00  0.00    -0.320 OA
ATOM     34  H   UNL     1      34.304 -15.373 -19.440  0.00  0.00    +0.220 HD
ENDBRANCH  29  33
ENDBRANCH  28  29
ENDBRANCH  23  28
ENDBRANCH  19  20
ENDBRANCH   1  19
TORSDOF 13
ENDMDL
MODEL 5
REMARK VINA RESULT:     -10.5      1.324      1.891
REMARK  Name = 446665
REMARK  13 active torsions:
REMARK  status: ('A' for Active; 'I' for Inactive)
REMARK    1  A    between atoms: C_1  and  C_2
REMARK    2  A    between atoms: C_1  and  C_19
REMARK    3  A    between atoms: C_2  and  C_3
REMARK    4  A    between atoms: C_3  and  C_4
REMARK    5  A    between atoms: C_7  and  C_12
REMARK    6  A    between atoms: C_12  and  P_13
REMARK    7  A    between atoms: P_13  and  O_15
REMARK    8  A    between atoms: P_13  and  O_17
REMARK    9  A    between atoms: C_19  and  C_20
REMARK   10  A    between atoms: C_23  and  C_28
REMARK   11  A    between atoms: C_28  and  P_29
REMARK   12  A    between atoms: P_29  and  O_31
REMARK   13  A    between atoms: P_29  and  O_33
REMARK                            x       y       z     vdW  Elec       q    Type
REMARK                         _______ _______ _______ _____ _____    ______ ____
ROOT
ATOM      1  C   UNL     1      32.431 -23.578 -16.588  0.00  0.00    +0.005 C 
ENDROOT
BRANCH   1   2
ATOM      2  C   UNL     1      32.614 -22.442 -17.605  0.00  0.00    +0.005 C 
BRANCH   2   3
ATOM      3  C   UNL     1      33.723 -22.728 -18.624  0.00  0.00    +0.026 C 
BRANCH   3   4
ATOM      4  C   UNL     1      34.023 -21.563 -19.535  0.00  0.00    -0.022 C 
ATOM      5  C   UNL     1      32.978 -20.826 -20.092  0.00  0.00    -0.004 C 
ATOM      6  C   UNL     1      35.345 -21.223 -19.819  0.00  0.00    -0.004 C 
ATOM      7  C   UNL     1      34.578 -19.409 -21.219  0.00  0.00    +0.049 C 
ATOM      8  C   UNL     1      33.256 -19.749 -20.934  0.00  0.00    +0.001 C 
ATOM      9  C   UNL     1      35.623 -20.146 -20.661  0.00  0.00    +0.001 C 
BRANCH   7  12
ATOM     10  F   UNL     1      36.195 -18.076 -22.384  0.00  0.00    -0.187 F 
ATOM     11  F   UNL     1      34.241 -18.294 -23.318  0.00  0.00    -0.187 F 
ATOM     12  C   UNL     1      34.875 -18.257 -22.118  0.00  0.00    +0.372 C 
BRANCH  12  13
ATOM     13  P   UNL     1      34.449 -16.627 -21.575  0.00  0.00    +0.401 P 
ATOM     14  O   UNL     1      32.975 -16.370 -21.453  0.00  0.00    -0.252 OA
BRANCH  13  15
ATOM     15  O   UNL     1      35.221 -15.658 -22.614  0.00  0.00    -0.320 OA
ATOM     16  H   UNL     1      35.533 -14.867 -22.148  0.00  0.00    +0.220 HD
ENDBRANCH  13  15
BRANCH  13  17
ATOM     17  O   UNL     1      35.284 -16.434 -20.204  0.00  0.00    -0.320 OA
ATOM     18  H   UNL     1      36.017 -15.818 -20.357  0.00  0.00    +0.220 HD
ENDBRANCH  13  17
ENDBRANCH  12  13
ENDBRANCH   7  12
ENDBRANCH   3   4
ENDBRANCH   2   3
ENDBRANCH   1   2
BRANCH   1  19
ATOM     19  C   UNL     1      32.741 -23.146 -15.150  0.00  0.00    +0.026 C 
BRANCH  19  20
ATOM     20  C   UNL     1      34.083 -23.620 -14.652  0.00  0.00    -0.022 C 
ATOM     21  C   UNL     1      34.196 -24.182 -13.379  0.00  0.00    -0.004 C 
ATOM     22  C   UNL     1      35.212 -23.498 -15.463  0.00  0.00    -0.004 C 
ATOM     23  C   UNL     1      36.565 -24.499 -13.730  0.00  0.00    +0.049 C 
ATOM     24  C   UNL     1      35.437 -24.622 -12.919  0.00  0.00    +0.001 C 
ATOM     25  C   UNL     1      36.453 -23.937 -15.001  0.00  0.00    +0.001 C 
BRANCH  23  28
ATOM     26  F   UNL     1      38.651 -24.004 -12.655  0.00  0.00    -0.187 F 
ATOM     27  F   UNL     1      37.840 -26.003 -12.358  0.00  0.00    -0.187 F 
ATOM     28  C   UNL     1      37.893 -24.969 -13.238  0.00  0.00    +0.372 C 
BRANCH  28  29
ATOM     29  P   UNL     1      39.056 -25.600 -14.413  0.00  0.00    +0.401 P 
ATOM     30  O   UNL     1      40.244 -26.291 -13.813  0.00  0.00    -0.252 OA
BRANCH  29  31
ATOM     31  O   UNL     1      39.410 -24.320 -15.335  0.00  0.00    -0.320 OA
ATOM     32  H   UNL     1      39.822 -23.632 -14.788  0.00  0.00    +0.220 HD
ENDBRANCH  29  31
BRANCH  29  33
ATOM     33  O   UNL     1      38.163 -26.523 -15.398  0.00  0.00    -0.320 OA
ATOM     34  H   UNL     1      38.010 -26.053 -16.233  0.00  0.00    +0.220 HD
ENDBRANCH  29  33
ENDBRANCH  28  29
ENDBRANCH  23  28
ENDBRANCH  19  20
ENDBRANCH   1  19
TORSDOF 13
ENDMDL
MODEL 6
REMARK VINA RESULT:     -10.5      5.404      6.302
REMARK  Name = 446665
REMARK  13 active torsions:
REMARK  status: ('A' for Active; 'I' for Inactive)
REMARK    1  A    between atoms: C_1  and  C_2
REMARK    2  A    between atoms: C_1  and  C_19
REMARK    3  A    between atoms: C_2  and  C_3
REMARK    4  A    between atoms: C_3  and  C_4
REMARK    5  A    between atoms: C_7  and  C_12
REMARK    6  A    between atoms: C_12  and  P_13
REMARK    7  A    between atoms: P_13  and  O_15
REMARK    8  A    between atoms: P_13  and  O_17
REMARK    9  A    between atoms: C_19  and  C_20
REMARK   10  A    between atoms: C_23  and  C_28
REMARK   11  A    between atoms: C_28  and  P_29
REMARK   12  A    between atoms: P_29  and  O_31
REMARK   13  A    between atoms: P_29  and  O_33
REMARK                            x       y       z     vdW  Elec       q    Type
REMARK                         _______ _______ _______ _____ _____    ______ ____
ROOT
ATOM      1  C   UNL     1      36.014 -22.142 -16.348  0.00  0.00    +0.005 C 
ENDROOT
BRANCH   1   2
ATOM      2  C   UNL     1      36.650 -21.663 -17.660  0.00  0.00    +0.005 C 
BRANCH   2   3
ATOM      3  C   UNL     1      35.794 -21.988 -18.890  0.00  0.00    +0.026 C 
BRANCH   3   4
ATOM      4  C   UNL     1      35.547 -20.799 -19.787  0.00  0.00    -0.022 C 
ATOM      5  C   UNL     1      36.623 -20.051 -20.265  0.00  0.00    -0.004 C 
ATOM      6  C   UNL     1      34.244 -20.449 -20.135  0.00  0.00    -0.004 C 
ATOM      7  C   UNL     1      35.091 -18.602 -21.443  0.00  0.00    +0.049 C 
ATOM      8  C   UNL     1      36.394 -18.952 -21.094  0.00  0.00    +0.001 C 
ATOM      9  C   UNL     1      34.014 -19.350 -20.964  0.00  0.00    +0.001 C 
BRANCH   7  12
ATOM     10  F   UNL     1      35.958 -16.948 -22.948  0.00  0.00    -0.187 F 
ATOM     11  F   UNL     1      33.922 -17.631 -23.302  0.00  0.00    -0.187 F 
ATOM     12  C   UNL     1      34.846 -17.427 -22.330  0.00  0.00    +0.372 C 
BRANCH  12  13
ATOM     13  P   UNL     1      34.233 -15.933 -21.606  0.00  0.00    +0.401 P 
ATOM     14  O   UNL     1      32.739 -15.862 -21.480  0.00  0.00    -0.252 OA
BRANCH  13  15
ATOM     15  O   UNL     1      34.893 -14.765 -22.509  0.00  0.00    -0.320 OA
ATOM     16  H   UNL     1      34.233 -14.430 -23.137  0.00  0.00    +0.220 HD
ENDBRANCH  13  15
BRANCH  13  17
ATOM     17  O   UNL     1      35.035 -15.811 -20.207  0.00  0.00    -0.320 OA
ATOM     18  H   UNL     1      35.880 -16.282 -20.277  0.00  0.00    +0.220 HD
ENDBRANCH  13  17
ENDBRANCH  12  13
ENDBRANCH   7  12
ENDBRANCH   3   4
ENDBRANCH   2   3
ENDBRANCH   1   2
BRANCH   1  19
ATOM     19  C   UNL     1      35.264 -23.472 -16.501  0.00  0.00    +0.026 C 
BRANCH  19  20
ATOM     20  C   UNL     1      33.805 -23.390 -16.129  0.00  0.00    -0.022 C 
ATOM     21  C   UNL     1      32.846 -23.156 -17.116  0.00  0.00    -0.004 C 
ATOM     22  C   UNL     1      33.413 -23.550 -14.800  0.00  0.00    -0.004 C 
ATOM     23  C   UNL     1      31.105 -23.241 -15.443  0.00  0.00    +0.049 C 
ATOM     24  C   UNL     1      31.496 -23.082 -16.772  0.00  0.00    +0.001 C 
ATOM     25  C   UNL     1      32.063 -23.475 -14.457  0.00  0.00    +0.001 C 
BRANCH  23  28
ATOM     26  F   UNL     1      29.229 -24.167 -14.271  0.00  0.00    -0.187 F 
ATOM     27  F   UNL     1      29.290 -22.000 -14.476  0.00  0.00    -0.187 F 
ATOM     28  C   UNL     1      29.661 -23.161 -15.075  0.00  0.00    +0.372 C 
BRANCH  28  29
ATOM     29  P   UNL     1      28.453 -23.263 -16.365  0.00  0.00    +0.401 P 
ATOM     30  O   UNL     1      28.459 -24.552 -17.132  0.00  0.00    -0.252 OA
BRANCH  29  31
ATOM     31  O   UNL     1      28.726 -21.942 -17.257  0.00  0.00    -0.320 OA
ATOM     32  H   UNL     1      28.646 -21.153 -16.699  0.00  0.00    +0.220 HD
ENDBRANCH  29  31
BRANCH  29  33
ATOM     33  O   UNL     1      27.055 -22.923 -15.626  0.00  0.00    -0.320 OA
ATOM     34  H   UNL     1      26.626 -22.175 -16.072  0.00  0.00    +0.220 HD
ENDBRANCH  29  33
ENDBRANCH  28  29
ENDBRANCH  23  28
ENDBRANCH  19  20
ENDBRANCH   1  19
TORSDOF 13
ENDMDL
MODEL 7
REMARK VINA RESULT:     -10.4      2.040      2.486
REMARK  Name = 446665
REMARK  13 active torsions:
REMARK  status: ('A' for Active; 'I' for Inactive)
REMARK    1  A    between atoms: C_1  and  C_2
REMARK    2  A    between atoms: C_1  and  C_19
REMARK    3  A    between atoms: C_2  and  C_3
REMARK    4  A    between atoms: C_3  and  C_4
REMARK    5  A    between atoms: C_7  and  C_12
REMARK    6  A    between atoms: C_12  and  P_13
REMARK    7  A    between atoms: P_13  and  O_15
REMARK    8  A    between atoms: P_13  and  O_17
REMARK    9  A    between atoms: C_19  and  C_20
REMARK   10  A    between atoms: C_23  and  C_28
REMARK   11  A    between atoms: C_28  and  P_29
REMARK   12  A    between atoms: P_29  and  O_31
REMARK   13  A    between atoms: P_29  and  O_33
REMARK                            x       y       z     vdW  Elec       q    Type
REMARK                         _______ _______ _______ _____ _____    ______ ____
ROOT
ATOM      1  C   UNL     1      33.439 -23.446 -18.060  0.00  0.00    +0.005 C 
ENDROOT
BRANCH   1   2
ATOM      2  C   UNL     1      33.391 -22.149 -18.880  0.00  0.00    +0.005 C 
BRANCH   2   3
ATOM      3  C   UNL     1      34.764 -21.741 -19.430  0.00  0.00    +0.026 C 
BRANCH   3   4
ATOM      4  C   UNL     1      34.739 -20.463 -20.231  0.00  0.00    -0.022 C 
ATOM      5  C   UNL     1      33.521 -19.879 -20.576  0.00  0.00    -0.004 C 
ATOM      6  C   UNL     1      35.935 -19.865 -20.626  0.00  0.00    -0.004 C 
ATOM      7  C   UNL     1      34.695 -18.099 -21.711  0.00  0.00    +0.049 C 
ATOM      8  C   UNL     1      33.498 -18.697 -21.316  0.00  0.00    +0.001 C 
ATOM      9  C   UNL     1      35.914 -18.683 -21.366  0.00  0.00    +0.001 C 
BRANCH   7  12
ATOM     10  F   UNL     1      35.890 -16.419 -22.935  0.00  0.00    -0.187 F 
ATOM     11  F   UNL     1      33.863 -16.861 -23.593  0.00  0.00    -0.187 F 
ATOM     12  C   UNL     1      34.671 -16.835 -22.502  0.00  0.00    +0.372 C 
BRANCH  12  13
ATOM     13  P   UNL     1      34.106 -15.353 -21.714  0.00  0.00    +0.401 P 
ATOM     14  O   UNL     1      32.616 -15.239 -21.585  0.00  0.00    -0.252 OA
BRANCH  13  15
ATOM     15  O   UNL     1      34.805 -14.170 -22.567  0.00  0.00    -0.320 OA
ATOM     16  H   UNL     1      34.219 -13.397 -22.589  0.00  0.00    +0.220 HD
ENDBRANCH  13  15
BRANCH  13  17
ATOM     17  O   UNL     1      34.911 -15.319 -20.312  0.00  0.00    -0.320 OA
ATOM     18  H   UNL     1      35.850 -15.148 -20.483  0.00  0.00    +0.220 HD
ENDBRANCH  13  17
ENDBRANCH  12  13
ENDBRANCH   7  12
ENDBRANCH   3   4
ENDBRANCH   2   3
ENDBRANCH   1   2
BRANCH   1  19
ATOM     19  C   UNL     1      32.752 -23.313 -16.695  0.00  0.00    +0.026 C 
BRANCH  19  20
ATOM     20  C   UNL     1      33.698 -23.431 -15.527  0.00  0.00    -0.022 C 
ATOM     21  C   UNL     1      35.021 -23.002 -15.654  0.00  0.00    -0.004 C 
ATOM     22  C   UNL     1      33.252 -23.967 -14.319  0.00  0.00    -0.004 C 
ATOM     23  C   UNL     1      35.449 -23.647 -13.365  0.00  0.00    +0.049 C 
ATOM     24  C   UNL     1      35.895 -23.110 -14.573  0.00  0.00    +0.001 C 
ATOM     25  C   UNL     1      34.128 -24.075 -13.238  0.00  0.00    +0.001 C 
BRANCH  23  28
ATOM     26  F   UNL     1      36.646 -22.589 -11.577  0.00  0.00    -0.187 F 
ATOM     27  F   UNL     1      35.995 -24.640 -11.248  0.00  0.00    -0.187 F 
ATOM     28  C   UNL     1      36.384 -23.762 -12.209  0.00  0.00    +0.372 C 
BRANCH  28  29
ATOM     29  P   UNL     1      38.036 -24.321 -12.510  0.00  0.00    +0.401 P 
ATOM     30  O   UNL     1      38.444 -24.327 -13.953  0.00  0.00    -0.252 OA
BRANCH  29  31
ATOM     31  O   UNL     1      38.097 -25.764 -11.783  0.00  0.00    -0.320 OA
ATOM     32  H   UNL     1      38.886 -25.811 -11.221  0.00  0.00    +0.220 HD
ENDBRANCH  29  31
BRANCH  29  33
ATOM     33  O   UNL     1      38.950 -23.391 -11.553  0.00  0.00    -0.320 OA
ATOM     34  H   UNL     1      39.355 -23.937 -10.861  0.00  0.00    +0.220 HD
ENDBRANCH  29  33
ENDBRANCH  28  29
ENDBRANCH  23  28
ENDBRANCH  19  20
ENDBRANCH   1  19
TORSDOF 13
ENDMDL
MODEL 8
REMARK VINA RESULT:     -10.1      1.999     10.791
REMARK  Name = 446665
REMARK  13 active torsions:
REMARK  status: ('A' for Active; 'I' for Inactive)
REMARK    1  A    between atoms: C_1  and  C_2
REMARK    2  A    between atoms: C_1  and  C_19
REMARK    3  A    between atoms: C_2  and  C_3
REMARK    4  A    between atoms: C_3  and  C_4
REMARK    5  A    between atoms: C_7  and  C_12
REMARK    6  A    between atoms: C_12  and  P_13
REMARK    7  A    between atoms: P_13  and  O_15
REMARK    8  A    between atoms: P_13  and  O_17
REMARK    9  A    between atoms: C_19  and  C_20
REMARK   10  A    between atoms: C_23  and  C_28
REMARK   11  A    between atoms: C_28  and  P_29
REMARK   12  A    between atoms: P_29  and  O_31
REMARK   13  A    between atoms: P_29  and  O_33
REMARK                            x       y       z     vdW  Elec       q    Type
REMARK                         _______ _______ _______ _____ _____    ______ ____
ROOT
ATOM      1  C   UNL     1      33.559 -21.964 -19.404  0.00  0.00    +0.005 C 
ENDROOT
BRANCH   1   2
ATOM      2  C   UNL     1      33.679 -23.243 -18.564  0.00  0.00    +0.005 C 
BRANCH   2   3
ATOM      3  C   UNL     1      33.298 -23.027 -17.094  0.00  0.00    +0.026 C 
BRANCH   3   4
ATOM      4  C   UNL     1      34.377 -23.436 -16.123  0.00  0.00    -0.022 C 
ATOM      5  C   UNL     1      35.690 -23.008 -16.317  0.00  0.00    -0.004 C 
ATOM      6  C   UNL     1      34.062 -24.243 -15.030  0.00  0.00    -0.004 C 
ATOM      7  C   UNL     1      36.372 -24.193 -14.326  0.00  0.00    +0.049 C 
ATOM      8  C   UNL     1      36.688 -23.386 -15.418  0.00  0.00    +0.001 C 
ATOM      9  C   UNL     1      35.059 -24.622 -14.131  0.00  0.00    +0.001 C 
BRANCH   7  12
ATOM     10  F   UNL     1      37.255 -25.821 -12.801  0.00  0.00    -0.187 F 
ATOM     11  F   UNL     1      38.696 -24.594 -13.875  0.00  0.00    -0.187 F 
ATOM     12  C   UNL     1      37.439 -24.598 -13.365  0.00  0.00    +0.372 C 
BRANCH  12  13
ATOM     13  P   UNL     1      37.677 -23.624 -11.905  0.00  0.00    +0.401 P 
ATOM     14  O   UNL     1      39.103 -23.250 -11.626  0.00  0.00    -0.252 OA
BRANCH  13  15
ATOM     15  O   UNL     1      36.963 -24.489 -10.741  0.00  0.00    -0.320 OA
ATOM     16  H   UNL     1      37.517 -25.254 -10.520  0.00  0.00    +0.220 HD
ENDBRANCH  13  15
BRANCH  13  17
ATOM     17  O   UNL     1      36.674 -22.370 -12.097  0.00  0.00    -0.320 OA
ATOM     18  H   UNL     1      36.856 -21.704 -11.416  0.00  0.00    +0.220 HD
ENDBRANCH  13  17
ENDBRANCH  12  13
ENDBRANCH   7  12
ENDBRANCH   3   4
ENDBRANCH   2   3
ENDBRANCH   1   2
BRANCH   1  19
ATOM     19  C   UNL     1      34.919 -21.334 -19.729  0.00  0.00    +0.026 C 
BRANCH  19  20
ATOM     20  C   UNL     1      34.820 -20.058 -20.527  0.00  0.00    -0.022 C 
ATOM     21  C   UNL     1      33.569 -19.518 -20.827  0.00  0.00    -0.004 C 
ATOM     22  C   UNL     1      35.980 -19.417 -20.963  0.00  0.00    -0.004 C 
ATOM     23  C   UNL     1      34.638 -17.697 -22.000  0.00  0.00    +0.049 C 
ATOM     24  C   UNL     1      33.478 -18.337 -21.563  0.00  0.00    +0.001 C 
ATOM     25  C   UNL     1      35.888 -18.236 -21.700  0.00  0.00    +0.001 C 
BRANCH  23  28
ATOM     26  F   UNL     1      35.732 -15.950 -23.226  0.00  0.00    -0.187 F 
ATOM     27  F   UNL     1      33.729 -16.501 -23.875  0.00  0.00    -0.187 F 
ATOM     28  C   UNL     1      34.541 -16.433 -22.788  0.00  0.00    +0.372 C 
BRANCH  28  29
ATOM     29  P   UNL     1      33.901 -14.987 -21.993  0.00  0.00    +0.401 P 
ATOM     30  O   UNL     1      32.411 -14.972 -21.822  0.00  0.00    -0.252 OA
BRANCH  29  31
ATOM     31  O   UNL     1      34.495 -13.766 -22.871  0.00  0.00    -0.320 OA
ATOM     32  H   UNL     1      33.929 -13.619 -23.645  0.00  0.00    +0.220 HD
ENDBRANCH  29  31
BRANCH  29  33
ATOM     33  O   UNL     1      34.741 -14.888 -20.614  0.00  0.00    -0.320 OA
ATOM     34  H   UNL     1      34.131 -14.912 -19.860  0.00  0.00    +0.220 HD
ENDBRANCH  29  33
ENDBRANCH  28  29
ENDBRANCH  23  28
ENDBRANCH  19  20
ENDBRANCH   1  19
TORSDOF 13
ENDMDL
MODEL 9
REMARK VINA RESULT:     -10.0      2.359      3.138
REMARK  Name = 446665
REMARK  13 active torsions:
REMARK  status: ('A' for Active; 'I' for Inactive)
REMARK    1  A    between atoms: C_1  and  C_2
REMARK    2  A    between atoms: C_1  and  C_19
REMARK    3  A    between atoms: C_2  and  C_3
REMARK    4  A    between atoms: C_3  and  C_4
REMARK    5  A    between atoms: C_7  and  C_12
REMARK    6  A    between atoms: C_12  and  P_13
REMARK    7  A    between atoms: P_13  and  O_15
REMARK    8  A    between atoms: P_13  and  O_17
REMARK    9  A    between atoms: C_19  and  C_20
REMARK   10  A    between atoms: C_23  and  C_28
REMARK   11  A    between atoms: C_28  and  P_29
REMARK   12  A    between atoms: P_29  and  O_31
REMARK   13  A    between atoms: P_29  and  O_33
REMARK                            x       y       z     vdW  Elec       q    Type
REMARK                         _______ _______ _______ _____ _____    ______ ____
ROOT
ATOM      1  C   UNL     1      34.457 -22.462 -19.273  0.00  0.00    +0.005 C 
ENDROOT
BRANCH   1   2
ATOM      2  C   UNL     1      34.261 -21.018 -19.758  0.00  0.00    +0.005 C 
BRANCH   2   3
ATOM      3  C   UNL     1      35.497 -20.457 -20.471  0.00  0.00    +0.026 C 
BRANCH   3   4
ATOM      4  C   UNL     1      35.191 -19.300 -21.391  0.00  0.00    -0.022 C 
ATOM      5  C   UNL     1      34.877 -19.538 -22.729  0.00  0.00    -0.004 C 
ATOM      6  C   UNL     1      35.224 -17.995 -20.903  0.00  0.00    -0.004 C 
ATOM      7  C   UNL     1      34.627 -17.163 -23.091  0.00  0.00    +0.049 C 
ATOM      8  C   UNL     1      34.594 -18.468 -23.579  0.00  0.00    +0.001 C 
ATOM      9  C   UNL     1      34.941 -16.925 -21.752  0.00  0.00    +0.001 C 
BRANCH   7  12
ATOM     10  F   UNL     1      35.420 -15.372 -24.476  0.00  0.00    -0.187 F 
ATOM     11  F   UNL     1      33.565 -16.336 -25.080  0.00  0.00    -0.187 F 
ATOM     12  C   UNL     1      34.324 -16.019 -24.000  0.00  0.00    +0.372 C 
BRANCH  12  13
ATOM     13  P   UNL     1      33.415 -14.643 -23.356  0.00  0.00    +0.401 P 
ATOM     14  O   UNL     1      32.420 -14.991 -22.288  0.00  0.00    -0.252 OA
BRANCH  13  15
ATOM     15  O   UNL     1      32.781 -13.948 -24.671  0.00  0.00    -0.320 OA
ATOM     16  H   UNL     1      32.293 -14.611 -25.184  0.00  0.00    +0.220 HD
ENDBRANCH  13  15
BRANCH  13  17
ATOM     17  O   UNL     1      34.557 -13.592 -22.900  0.00  0.00    -0.320 OA
ATOM     18  H   UNL     1      35.402 -14.057 -22.801  0.00  0.00    +0.220 HD
ENDBRANCH  13  17
ENDBRANCH  12  13
ENDBRANCH   7  12
ENDBRANCH   3   4
ENDBRANCH   2   3
ENDBRANCH   1   2
BRANCH   1  19
ATOM     19  C   UNL     1      33.521 -22.834 -18.117  0.00  0.00    +0.026 C 
BRANCH  19  20
ATOM     20  C   UNL     1      34.231 -23.024 -16.800  0.00  0.00    -0.022 C 
ATOM     21  C   UNL     1      35.594 -22.742 -16.695  0.00  0.00    -0.004 C 
ATOM     22  C   UNL     1      33.525 -23.481 -15.687  0.00  0.00    -0.004 C 
ATOM     23  C   UNL     1      35.544 -23.374 -14.364  0.00  0.00    +0.049 C 
ATOM     24  C   UNL     1      36.250 -22.916 -15.477  0.00  0.00    +0.001 C 
ATOM     25  C   UNL     1      34.183 -23.656 -14.469  0.00  0.00    +0.001 C 
BRANCH  23  28
ATOM     26  F   UNL     1      37.336 -22.770 -12.889  0.00  0.00    -0.187 F 
ATOM     27  F   UNL     1      35.465 -23.386 -11.963  0.00  0.00    -0.187 F 
ATOM     28  C   UNL     1      36.246 -23.561 -13.061  0.00  0.00    +0.372 C 
BRANCH  28  29
ATOM     29  P   UNL     1      36.959 -25.142 -12.703  0.00  0.00    +0.401 P 
ATOM     30  O   UNL     1      38.457 -25.155 -12.639  0.00  0.00    -0.252 OA
BRANCH  29  31
ATOM     31  O   UNL     1      36.320 -26.118 -13.823  0.00  0.00    -0.320 OA
ATOM     32  H   UNL     1      36.195 -25.625 -14.649  0.00  0.00    +0.220 HD
ENDBRANCH  29  31
BRANCH  29  33
ATOM     33  O   UNL     1      36.220 -25.612 -11.343  0.00  0.00    -0.320 OA
ATOM     34  H   UNL     1      36.157 -26.580 -11.327  0.00  0.00    +0.220 HD
ENDBRANCH  29  33
ENDBRANCH  28  29
ENDBRANCH  23  28
ENDBRANCH  19  20
ENDBRANCH   1  19
TORSDOF 13
ENDMDL
