MODEL 1
REMARK VINA RESULT:      -7.7      0.000      0.000
REMARK  Name = 37542
REMARK  6 active torsions:
REMARK  status: ('A' for Active; 'I' for Inactive)
REMARK    1  A    between atoms: C3*_2  and  O3*_18
REMARK    2  A    between atoms: C2*_3  and  O2*_16
REMARK    3  A    between atoms: C4*_4  and  C5*_20
REMARK    4  A    between atoms: C1*_5  and  N_6
REMARK    5  A    between atoms: C_10  and  C_13
REMARK    6  A    between atoms: C5*_20  and  O5*_21
REMARK                            x       y       z     vdW  Elec       q    Type
REMARK                         _______ _______ _______ _____ _____    ______ ____
ROOT
ATOM      1  O4* UNL     1      38.093 -24.074 -14.102  0.00  0.00    -0.332 OA
ATOM      2  C3* UNL     1      37.592 -26.395 -13.934  0.00  0.00    +0.171 C 
ATOM      3  C2* UNL     1      36.719 -25.776 -15.008  0.00  0.00    +0.188 C 
ATOM      4  C4* UNL     1      38.688 -25.348 -13.763  0.00  0.00    +0.175 C 
ATOM      5  C1* UNL     1      36.774 -24.304 -14.631  0.00  0.00    +0.240 C 
ENDROOT
BRANCH   5   6
ATOM      6  N   UNL     1      36.525 -23.394 -15.748  0.00  0.00    -0.172 N 
ATOM      7  N   UNL     1      35.425 -23.517 -16.505  0.00  0.00    -0.120 NA
ATOM      8  N   UNL     1      36.740 -21.780 -17.205  0.00  0.00    -0.191 NA
ATOM      9  C   UNL     1      37.302 -22.361 -16.170  0.00  0.00    +0.250 C 
ATOM     10  C   UNL     1      35.602 -22.518 -17.371  0.00  0.00    +0.104 C 
BRANCH  10  13
ATOM     11  O   UNL     1      34.866 -21.455 -19.352  0.00  0.00    -0.259 OA
ATOM     12  N   UNL     1      33.431 -22.926 -18.366  0.00  0.00    -0.317 N 
ATOM     13  C   UNL     1      34.652 -22.246 -18.407  0.00  0.00    +0.307 C 
ATOM     14  H   UNL     1      32.754 -22.764 -19.062  0.00  0.00    +0.146 HD
ATOM     15  H   UNL     1      33.249 -23.566 -17.640  0.00  0.00    +0.146 HD
ENDBRANCH  10  13
ENDBRANCH   5   6
BRANCH   3  16
ATOM     16  O2* UNL     1      35.397 -26.274 -15.001  0.00  0.00    -0.378 OA
ATOM     17  H2* UNL     1      34.776 -25.542 -14.859  0.00  0.00    +0.211 HD
ENDBRANCH   3  16
BRANCH   2  18
ATOM     18  O3* UNL     1      36.853 -26.490 -12.717  0.00  0.00    -0.379 OA
ATOM     19  H3* UNL     1      36.356 -25.670 -12.575  0.00  0.00    +0.211 HD
ENDBRANCH   2  18
BRANCH   4  20
ATOM     20  C5* UNL     1      39.880 -25.581 -14.682  0.00  0.00    +0.169 C 
BRANCH  20  21
ATOM     21  O5* UNL     1      40.917 -24.689 -14.313  0.00  0.00    -0.379 OA
ATOM     22  H5* UNL     1      41.112 -24.793 -13.368  0.00  0.00    +0.211 HD
ENDBRANCH  20  21
ENDBRANCH   4  20
TORSDOF 6
ENDMDL
MODEL 2
REMARK VINA RESULT:      -7.6      5.765      9.434
REMARK  Name = 37542
REMARK  6 active torsions:
REMARK  status: ('A' for Active; 'I' for Inactive)
REMARK    1  A    between atoms: C3*_2  and  O3*_18
REMARK    2  A    between atoms: C2*_3  and  O2*_16
REMARK    3  A    between atoms: C4*_4  and  C5*_20
REMARK    4  A    between atoms: C1*_5  and  N_6
REMARK    5  A    between atoms: C_10  and  C_13
REMARK    6  A    between atoms: C5*_20  and  O5*_21
REMARK                            x       y       z     vdW  Elec       q    Type
REMARK                         _______ _______ _______ _____ _____    ______ ____
ROOT
ATOM      1  O4* UNL     1      35.278 -17.138 -20.656  0.00  0.00    -0.332 OA
ATOM      2  C3* UNL     1      34.559 -16.680 -22.879  0.00  0.00    +0.171 C 
ATOM      3  C2* UNL     1      34.761 -18.174 -22.721  0.00  0.00    +0.188 C 
ATOM      4  C4* UNL     1      34.486 -16.208 -21.430  0.00  0.00    +0.175 C 
ATOM      5  C1* UNL     1      35.675 -18.230 -21.507  0.00  0.00    +0.240 C 
ENDROOT
BRANCH   5   6
ATOM      6  N   UNL     1      35.601 -19.486 -20.763  0.00  0.00    -0.172 N 
ATOM      7  N   UNL     1      34.427 -20.109 -20.577  0.00  0.00    -0.120 NA
ATOM      8  N   UNL     1      36.153 -21.257 -19.609  0.00  0.00    -0.191 NA
ATOM      9  C   UNL     1      36.621 -20.174 -20.184  0.00  0.00    +0.250 C 
ATOM     10  C   UNL     1      34.815 -21.174 -19.873  0.00  0.00    +0.104 C 
BRANCH  10  13
ATOM     11  O   UNL     1      34.100 -23.391 -19.469  0.00  0.00    -0.259 OA
ATOM     12  N   UNL     1      32.664 -21.716 -18.900  0.00  0.00    -0.317 N 
ATOM     13  C   UNL     1      33.879 -22.161 -19.429  0.00  0.00    +0.307 C 
ATOM     14  H   UNL     1      31.996 -22.366 -18.584  0.00  0.00    +0.146 HD
ATOM     15  H   UNL     1      32.477 -20.750 -18.844  0.00  0.00    +0.146 HD
ENDBRANCH  10  13
ENDBRANCH   5   6
BRANCH   3  16
ATOM     16  O2* UNL     1      35.352 -18.776 -23.854  0.00  0.00    -0.378 OA
ATOM     17  H2* UNL     1      35.208 -18.213 -24.631  0.00  0.00    +0.211 HD
ENDBRANCH   3  16
BRANCH   2  18
ATOM     18  O3* UNL     1      35.713 -16.107 -23.492  0.00  0.00    -0.379 OA
ATOM     19  H3* UNL     1      35.537 -15.178 -23.709  0.00  0.00    +0.211 HD
ENDBRANCH   2  18
BRANCH   4  20
ATOM     20  C5* UNL     1      33.067 -16.208 -20.876  0.00  0.00    +0.169 C 
BRANCH  20  21
ATOM     21  O5* UNL     1      32.290 -15.289 -21.621  0.00  0.00    -0.379 OA
ATOM     22  H5* UNL     1      31.420 -15.190 -21.204  0.00  0.00    +0.211 HD
ENDBRANCH  20  21
ENDBRANCH   4  20
TORSDOF 6
ENDMDL
MODEL 3
REMARK VINA RESULT:      -7.6      4.205      6.111
REMARK  Name = 37542
REMARK  6 active torsions:
REMARK  status: ('A' for Active; 'I' for Inactive)
REMARK    1  A    between atoms: C3*_2  and  O3*_18
REMARK    2  A    between atoms: C2*_3  and  O2*_16
REMARK    3  A    between atoms: C4*_4  and  C5*_20
REMARK    4  A    between atoms: C1*_5  and  N_6
REMARK    5  A    between atoms: C_10  and  C_13
REMARK    6  A    between atoms: C5*_20  and  O5*_21
REMARK                            x       y       z     vdW  Elec       q    Type
REMARK                         _______ _______ _______ _____ _____    ______ ____
ROOT
ATOM      1  O4* UNL     1      30.837 -24.291 -15.883  0.00  0.00    -0.332 OA
ATOM      2  C3* UNL     1      30.408 -23.539 -13.665  0.00  0.00    +0.171 C 
ATOM      3  C2* UNL     1      31.793 -23.086 -14.083  0.00  0.00    +0.188 C 
ATOM      4  C4* UNL     1      29.763 -23.886 -15.003  0.00  0.00    +0.175 C 
ATOM      5  C1* UNL     1      32.093 -24.044 -15.224  0.00  0.00    +0.240 C 
ENDROOT
BRANCH   5   6
ATOM      6  N   UNL     1      33.064 -23.533 -16.191  0.00  0.00    -0.172 N 
ATOM      7  N   UNL     1      32.666 -23.046 -17.376  0.00  0.00    -0.120 NA
ATOM      8  N   UNL     1      34.940 -22.946 -17.145  0.00  0.00    -0.191 NA
ATOM      9  C   UNL     1      34.416 -23.470 -16.061  0.00  0.00    +0.250 C 
ATOM     10  C   UNL     1      33.837 -22.705 -17.915  0.00  0.00    +0.104 C 
BRANCH  10  13
ATOM     11  O   UNL     1      32.924 -21.887 -19.937  0.00  0.00    -0.259 OA
ATOM     12  N   UNL     1      35.189 -21.785 -19.703  0.00  0.00    -0.317 N 
ATOM     13  C   UNL     1      33.921 -22.124 -19.221  0.00  0.00    +0.307 C 
ATOM     14  H   UNL     1      35.285 -21.384 -20.596  0.00  0.00    +0.146 HD
ATOM     15  H   UNL     1      35.986 -21.949 -19.148  0.00  0.00    +0.146 HD
ENDBRANCH  10  13
ENDBRANCH   5   6
BRANCH   3  16
ATOM     16  O2* UNL     1      32.745 -23.187 -13.044  0.00  0.00    -0.378 OA
ATOM     17  H2* UNL     1      32.845 -22.325 -12.611  0.00  0.00    +0.211 HD
ENDBRANCH   3  16
BRANCH   2  18
ATOM     18  O3* UNL     1      30.513 -24.729 -12.883  0.00  0.00    -0.379 OA
ATOM     19  H3* UNL     1      29.868 -24.698 -12.159  0.00  0.00    +0.211 HD
ENDBRANCH   2  18
BRANCH   4  20
ATOM     20  C5* UNL     1      29.041 -22.705 -15.638  0.00  0.00    +0.169 C 
BRANCH  20  21
ATOM     21  O5* UNL     1      29.561 -22.503 -16.940  0.00  0.00    -0.379 OA
ATOM     22  H5* UNL     1      29.594 -23.351 -17.409  0.00  0.00    +0.211 HD
ENDBRANCH  20  21
ENDBRANCH   4  20
TORSDOF 6
ENDMDL
MODEL 4
REMARK VINA RESULT:      -7.6      1.868      1.977
REMARK  Name = 37542
REMARK  6 active torsions:
REMARK  status: ('A' for Active; 'I' for Inactive)
REMARK    1  A    between atoms: C3*_2  and  O3*_18
REMARK    2  A    between atoms: C2*_3  and  O2*_16
REMARK    3  A    between atoms: C4*_4  and  C5*_20
REMARK    4  A    between atoms: C1*_5  and  N_6
REMARK    5  A    between atoms: C_10  and  C_13
REMARK    6  A    between atoms: C5*_20  and  O5*_21
REMARK                            x       y       z     vdW  Elec       q    Type
REMARK                         _______ _______ _______ _____ _____    ______ ____
ROOT
ATOM      1  O4* UNL     1      37.769 -23.359 -13.390  0.00  0.00    -0.332 OA
ATOM      2  C3* UNL     1      37.055 -25.005 -11.825  0.00  0.00    +0.171 C 
ATOM      3  C2* UNL     1      35.976 -24.816 -12.873  0.00  0.00    +0.188 C 
ATOM      4  C4* UNL     1      38.273 -24.380 -12.498  0.00  0.00    +0.175 C 
ATOM      5  C1* UNL     1      36.333 -23.447 -13.431  0.00  0.00    +0.240 C 
ENDROOT
BRANCH   5   6
ATOM      6  N   UNL     1      35.864 -23.221 -14.798  0.00  0.00    -0.172 N 
ATOM      7  N   UNL     1      34.618 -23.555 -15.163  0.00  0.00    -0.120 NA
ATOM      8  N   UNL     1      35.790 -22.645 -16.904  0.00  0.00    -0.191 NA
ATOM      9  C   UNL     1      36.555 -22.681 -15.837  0.00  0.00    +0.250 C 
ATOM     10  C   UNL     1      34.623 -23.187 -16.445  0.00  0.00    +0.104 C 
BRANCH  10  13
ATOM     11  O   UNL     1      33.534 -23.633 -18.497  0.00  0.00    -0.259 OA
ATOM     12  N   UNL     1      32.213 -23.225 -16.685  0.00  0.00    -0.317 N 
ATOM     13  C   UNL     1      33.471 -23.356 -17.279  0.00  0.00    +0.307 C 
ATOM     14  H   UNL     1      31.399 -23.334 -17.228  0.00  0.00    +0.146 HD
ATOM     15  H   UNL     1      32.141 -23.024 -15.724  0.00  0.00    +0.146 HD
ENDBRANCH  10  13
ENDBRANCH   5   6
BRANCH   3  16
ATOM     16  O2* UNL     1      34.671 -24.841 -12.333  0.00  0.00    -0.378 OA
ATOM     17  H2* UNL     1      34.093 -25.369 -12.907  0.00  0.00    +0.211 HD
ENDBRANCH   3  16
BRANCH   2  18
ATOM     18  O3* UNL     1      36.729 -24.242 -10.664  0.00  0.00    -0.379 OA
ATOM     19  H3* UNL     1      36.042 -24.702 -10.157  0.00  0.00    +0.211 HD
ENDBRANCH   2  18
BRANCH   4  20
ATOM     20  C5* UNL     1      39.078 -25.380 -13.317  0.00  0.00    +0.169 C 
BRANCH  20  21
ATOM     21  O5* UNL     1      39.567 -24.727 -14.475  0.00  0.00    -0.379 OA
ATOM     22  H5* UNL     1      40.371 -24.232 -14.251  0.00  0.00    +0.211 HD
ENDBRANCH  20  21
ENDBRANCH   4  20
TORSDOF 6
ENDMDL
MODEL 5
REMARK VINA RESULT:      -7.4      1.869      2.585
REMARK  Name = 37542
REMARK  6 active torsions:
REMARK  status: ('A' for Active; 'I' for Inactive)
REMARK    1  A    between atoms: C3*_2  and  O3*_18
REMARK    2  A    between atoms: C2*_3  and  O2*_16
REMARK    3  A    between atoms: C4*_4  and  C5*_20
REMARK    4  A    between atoms: C1*_5  and  N_6
REMARK    5  A    between atoms: C_10  and  C_13
REMARK    6  A    between atoms: C5*_20  and  O5*_21
REMARK                            x       y       z     vdW  Elec       q    Type
REMARK                         _______ _______ _______ _____ _____    ______ ____
ROOT
ATOM      1  O4* UNL     1      37.363 -24.139 -15.228  0.00  0.00    -0.332 OA
ATOM      2  C3* UNL     1      37.485 -24.533 -12.884  0.00  0.00    +0.171 C 
ATOM      3  C2* UNL     1      36.085 -24.068 -13.236  0.00  0.00    +0.188 C 
ATOM      4  C4* UNL     1      38.039 -24.952 -14.241  0.00  0.00    +0.175 C 
ATOM      5  C1* UNL     1      36.320 -23.390 -14.576  0.00  0.00    +0.240 C 
ENDROOT
BRANCH   5   6
ATOM      6  N   UNL     1      35.138 -23.341 -15.435  0.00  0.00    -0.172 N 
ATOM      7  N   UNL     1      35.251 -23.108 -16.751  0.00  0.00    -0.120 NA
ATOM      8  N   UNL     1      33.067 -23.395 -16.130  0.00  0.00    -0.191 NA
ATOM      9  C   UNL     1      33.838 -23.511 -15.073  0.00  0.00    +0.250 C 
ATOM     10  C   UNL     1      33.971 -23.150 -17.125  0.00  0.00    +0.104 C 
BRANCH  10  13
ATOM     11  O   UNL     1      34.018 -23.632 -19.440  0.00  0.00    -0.259 OA
ATOM     12  N   UNL     1      32.641 -21.949 -18.756  0.00  0.00    -0.317 N 
ATOM     13  C   UNL     1      33.581 -22.949 -18.488  0.00  0.00    +0.307 C 
ATOM     14  H   UNL     1      32.350 -21.782 -19.681  0.00  0.00    +0.146 HD
ATOM     15  H   UNL     1      32.272 -21.411 -18.018  0.00  0.00    +0.146 HD
ENDBRANCH  10  13
ENDBRANCH   5   6
BRANCH   3  16
ATOM     16  O2* UNL     1      35.541 -23.179 -12.282  0.00  0.00    -0.378 OA
ATOM     17  H2* UNL     1      34.761 -22.741 -12.657  0.00  0.00    +0.211 HD
ENDBRANCH   3  16
BRANCH   2  18
ATOM     18  O3* UNL     1      38.245 -23.427 -12.398  0.00  0.00    -0.379 OA
ATOM     19  H3* UNL     1      38.631 -23.652 -11.537  0.00  0.00    +0.211 HD
ENDBRANCH   2  18
BRANCH   4  20
ATOM     20  C5* UNL     1      37.776 -26.417 -14.564  0.00  0.00    +0.169 C 
BRANCH  20  21
ATOM     21  O5* UNL     1      37.228 -26.502 -15.867  0.00  0.00    -0.379 OA
ATOM     22  H5* UNL     1      37.944 -26.478 -16.521  0.00  0.00    +0.211 HD
ENDBRANCH  20  21
ENDBRANCH   4  20
TORSDOF 6
ENDMDL
MODEL 6
REMARK VINA RESULT:      -7.3      3.944      6.078
REMARK  Name = 37542
REMARK  6 active torsions:
REMARK  status: ('A' for Active; 'I' for Inactive)
REMARK    1  A    between atoms: C3*_2  and  O3*_18
REMARK    2  A    between atoms: C2*_3  and  O2*_16
REMARK    3  A    between atoms: C4*_4  and  C5*_20
REMARK    4  A    between atoms: C1*_5  and  N_6
REMARK    5  A    between atoms: C_10  and  C_13
REMARK    6  A    between atoms: C5*_20  and  O5*_21
REMARK                            x       y       z     vdW  Elec       q    Type
REMARK                         _______ _______ _______ _____ _____    ______ ____
ROOT
ATOM      1  O4* UNL     1      31.387 -24.241 -15.843  0.00  0.00    -0.332 OA
ATOM      2  C3* UNL     1      30.557 -23.502 -13.737  0.00  0.00    +0.171 C 
ATOM      3  C2* UNL     1      31.998 -23.054 -13.887  0.00  0.00    +0.188 C 
ATOM      4  C4* UNL     1      30.170 -23.836 -15.174  0.00  0.00    +0.175 C 
ATOM      5  C1* UNL     1      32.501 -24.006 -14.960  0.00  0.00    +0.240 C 
ENDROOT
BRANCH   5   6
ATOM      6  N   UNL     1      33.636 -23.494 -15.726  0.00  0.00    -0.172 N 
ATOM      7  N   UNL     1      34.784 -23.160 -15.117  0.00  0.00    -0.120 NA
ATOM      8  N   UNL     1      34.899 -22.820 -17.376  0.00  0.00    -0.191 NA
ATOM      9  C   UNL     1      33.712 -23.289 -17.068  0.00  0.00    +0.250 C 
ATOM     10  C   UNL     1      35.514 -22.758 -16.158  0.00  0.00    +0.104 C 
BRANCH  10  13
ATOM     11  O   UNL     1      37.695 -22.842 -15.247  0.00  0.00    -0.259 OA
ATOM     12  N   UNL     1      37.255 -21.176 -16.739  0.00  0.00    -0.317 N 
ATOM     13  C   UNL     1      36.858 -22.292 -15.996  0.00  0.00    +0.307 C 
ATOM     14  H   UNL     1      38.172 -20.828 -16.653  0.00  0.00    +0.146 HD
ATOM     15  H   UNL     1      36.616 -20.738 -17.347  0.00  0.00    +0.146 HD
ENDBRANCH  10  13
ENDBRANCH   5   6
BRANCH   3  16
ATOM     16  O2* UNL     1      32.740 -23.168 -12.690  0.00  0.00    -0.378 OA
ATOM     17  H2* UNL     1      33.629 -22.805 -12.825  0.00  0.00    +0.211 HD
ENDBRANCH   3  16
BRANCH   2  18
ATOM     18  O3* UNL     1      30.510 -24.697 -12.958  0.00  0.00    -0.379 OA
ATOM     19  H3* UNL     1      31.357 -24.820 -12.501  0.00  0.00    +0.211 HD
ENDBRANCH   2  18
BRANCH   4  20
ATOM     20  C5* UNL     1      29.585 -22.646 -15.923  0.00  0.00    +0.169 C 
BRANCH  20  21
ATOM     21  O5* UNL     1      30.334 -22.443 -17.107  0.00  0.00    -0.379 OA
ATOM     22  H5* UNL     1      29.729 -22.295 -17.851  0.00  0.00    +0.211 HD
ENDBRANCH  20  21
ENDBRANCH   4  20
TORSDOF 6
ENDMDL
MODEL 7
REMARK VINA RESULT:      -7.3      3.331      4.414
REMARK  Name = 37542
REMARK  6 active torsions:
REMARK  status: ('A' for Active; 'I' for Inactive)
REMARK    1  A    between atoms: C3*_2  and  O3*_18
REMARK    2  A    between atoms: C2*_3  and  O2*_16
REMARK    3  A    between atoms: C4*_4  and  C5*_20
REMARK    4  A    between atoms: C1*_5  and  N_6
REMARK    5  A    between atoms: C_10  and  C_13
REMARK    6  A    between atoms: C5*_20  and  O5*_21
REMARK                            x       y       z     vdW  Elec       q    Type
REMARK                         _______ _______ _______ _____ _____    ______ ____
ROOT
ATOM      1  O4* UNL     1      36.129 -24.506 -15.516  0.00  0.00    -0.332 OA
ATOM      2  C3* UNL     1      37.329 -24.599 -13.461  0.00  0.00    +0.171 C 
ATOM      3  C2* UNL     1      35.883 -24.245 -13.175  0.00  0.00    +0.188 C 
ATOM      4  C4* UNL     1      37.251 -25.159 -14.878  0.00  0.00    +0.175 C 
ATOM      5  C1* UNL     1      35.424 -23.728 -14.530  0.00  0.00    +0.240 C 
ENDROOT
BRANCH   5   6
ATOM      6  N   UNL     1      33.984 -23.839 -14.753  0.00  0.00    -0.172 N 
ATOM      7  N   UNL     1      33.180 -24.365 -13.817  0.00  0.00    -0.120 NA
ATOM      8  N   UNL     1      32.005 -23.723 -15.672  0.00  0.00    -0.191 NA
ATOM      9  C   UNL     1      33.279 -23.460 -15.853  0.00  0.00    +0.250 C 
ATOM     10  C   UNL     1      31.994 -24.272 -14.422  0.00  0.00    +0.104 C 
BRANCH  10  13
ATOM     11  O   UNL     1      30.474 -24.427 -12.617  0.00  0.00    -0.259 OA
ATOM     12  N   UNL     1      29.922 -25.522 -14.538  0.00  0.00    -0.317 N 
ATOM     13  C   UNL     1      30.792 -24.725 -13.789  0.00  0.00    +0.307 C 
ATOM     14  H   UNL     1      29.086 -25.851 -14.136  0.00  0.00    +0.146 HD
ATOM     15  H   UNL     1      30.146 -25.754 -15.469  0.00  0.00    +0.146 HD
ENDBRANCH  10  13
ENDBRANCH   5   6
BRANCH   3  16
ATOM     16  O2* UNL     1      35.742 -23.269 -12.163  0.00  0.00    -0.378 OA
ATOM     17  H2* UNL     1      36.465 -23.360 -11.523  0.00  0.00    +0.211 HD
ENDBRANCH   3  16
BRANCH   2  18
ATOM     18  O3* UNL     1      38.116 -23.409 -13.479  0.00  0.00    -0.379 OA
ATOM     19  H3* UNL     1      37.687 -22.746 -14.043  0.00  0.00    +0.211 HD
ENDBRANCH   2  18
BRANCH   4  20
ATOM     20  C5* UNL     1      37.013 -26.663 -14.911  0.00  0.00    +0.169 C 
BRANCH  20  21
ATOM     21  O5* UNL     1      36.209 -26.969 -16.036  0.00  0.00    -0.379 OA
ATOM     22  H5* UNL     1      35.370 -26.486 -15.975  0.00  0.00    +0.211 HD
ENDBRANCH  20  21
ENDBRANCH   4  20
TORSDOF 6
ENDMDL
MODEL 8
REMARK VINA RESULT:      -7.1      4.776      7.308
REMARK  Name = 37542
REMARK  6 active torsions:
REMARK  status: ('A' for Active; 'I' for Inactive)
REMARK    1  A    between atoms: C3*_2  and  O3*_18
REMARK    2  A    between atoms: C2*_3  and  O2*_16
REMARK    3  A    between atoms: C4*_4  and  C5*_20
REMARK    4  A    between atoms: C1*_5  and  N_6
REMARK    5  A    between atoms: C_10  and  C_13
REMARK    6  A    between atoms: C5*_20  and  O5*_21
REMARK                            x       y       z     vdW  Elec       q    Type
REMARK                         _______ _______ _______ _____ _____    ______ ____
ROOT
ATOM      1  O4* UNL     1      31.485 -24.578 -15.778  0.00  0.00    -0.332 OA
ATOM      2  C3* UNL     1      29.444 -24.242 -14.599  0.00  0.00    +0.171 C 
ATOM      3  C2* UNL     1      30.603 -24.124 -13.628  0.00  0.00    +0.188 C 
ATOM      4  C4* UNL     1      30.135 -24.086 -15.949  0.00  0.00    +0.175 C 
ATOM      5  C1* UNL     1      31.704 -24.852 -14.381  0.00  0.00    +0.240 C 
ENDROOT
BRANCH   5   6
ATOM      6  N   UNL     1      33.056 -24.441 -14.005  0.00  0.00    -0.172 N 
ATOM      7  N   UNL     1      33.509 -24.626 -12.756  0.00  0.00    -0.120 NA
ATOM      8  N   UNL     1      35.085 -23.637 -14.087  0.00  0.00    -0.191 NA
ATOM      9  C   UNL     1      33.997 -23.853 -14.790  0.00  0.00    +0.250 C 
ATOM     10  C   UNL     1      34.741 -24.122 -12.858  0.00  0.00    +0.104 C 
BRANCH  10  13
ATOM     11  O   UNL     1      35.512 -24.836 -10.740  0.00  0.00    -0.259 OA
ATOM     12  N   UNL     1      36.718 -23.214 -11.793  0.00  0.00    -0.317 N 
ATOM     13  C   UNL     1      35.636 -24.098 -11.741  0.00  0.00    +0.307 C 
ATOM     14  H   UNL     1      37.355 -23.171 -11.043  0.00  0.00    +0.146 HD
ATOM     15  H   UNL     1      36.844 -22.636 -12.580  0.00  0.00    +0.146 HD
ENDBRANCH  10  13
ENDBRANCH   5   6
BRANCH   3  16
ATOM     16  O2* UNL     1      30.337 -24.719 -12.375  0.00  0.00    -0.378 OA
ATOM     17  H2* UNL     1      30.028 -25.629 -12.507  0.00  0.00    +0.211 HD
ENDBRANCH   3  16
BRANCH   2  18
ATOM     18  O3* UNL     1      28.886 -25.553 -14.516  0.00  0.00    -0.379 OA
ATOM     19  H3* UNL     1      28.534 -25.811 -15.382  0.00  0.00    +0.211 HD
ENDBRANCH   2  18
BRANCH   4  20
ATOM     20  C5* UNL     1      30.208 -22.639 -16.416  0.00  0.00    +0.169 C 
BRANCH  20  21
ATOM     21  O5* UNL     1      28.978 -22.299 -17.032  0.00  0.00    -0.379 OA
ATOM     22  H5* UNL     1      29.124 -21.584 -17.671  0.00  0.00    +0.211 HD
ENDBRANCH  20  21
ENDBRANCH   4  20
TORSDOF 6
ENDMDL
MODEL 9
REMARK VINA RESULT:      -6.9      2.975      5.965
REMARK  Name = 37542
REMARK  6 active torsions:
REMARK  status: ('A' for Active; 'I' for Inactive)
REMARK    1  A    between atoms: C3*_2  and  O3*_18
REMARK    2  A    between atoms: C2*_3  and  O2*_16
REMARK    3  A    between atoms: C4*_4  and  C5*_20
REMARK    4  A    between atoms: C1*_5  and  N_6
REMARK    5  A    between atoms: C_10  and  C_13
REMARK    6  A    between atoms: C5*_20  and  O5*_21
REMARK                            x       y       z     vdW  Elec       q    Type
REMARK                         _______ _______ _______ _____ _____    ______ ____
ROOT
ATOM      1  O4* UNL     1      34.371 -24.207 -16.630  0.00  0.00    -0.332 OA
ATOM      2  C3* UNL     1      32.271 -23.123 -16.343  0.00  0.00    +0.171 C 
ATOM      3  C2* UNL     1      33.152 -22.823 -15.146  0.00  0.00    +0.188 C 
ATOM      4  C4* UNL     1      33.282 -23.614 -17.374  0.00  0.00    +0.175 C 
ATOM      5  C1* UNL     1      34.169 -23.950 -15.227  0.00  0.00    +0.240 C 
ENDROOT
BRANCH   5   6
ATOM      6  N   UNL     1      35.450 -23.644 -14.593  0.00  0.00    -0.172 N 
ATOM      7  N   UNL     1      35.580 -23.667 -13.258  0.00  0.00    -0.120 NA
ATOM      8  N   UNL     1      37.546 -23.111 -14.287  0.00  0.00    -0.191 NA
ATOM      9  C   UNL     1      36.622 -23.312 -15.198  0.00  0.00    +0.250 C 
ATOM     10  C   UNL     1      36.866 -23.338 -13.125  0.00  0.00    +0.104 C 
BRANCH  10  13
ATOM     11  O   UNL     1      38.652 -22.821 -11.663  0.00  0.00    -0.259 OA
ATOM     12  N   UNL     1      36.723 -23.584 -10.719  0.00  0.00    -0.317 N 
ATOM     13  C   UNL     1      37.484 -23.231 -11.837  0.00  0.00    +0.307 C 
ATOM     14  H   UNL     1      37.115 -23.523  -9.818  0.00  0.00    +0.146 HD
ATOM     15  H   UNL     1      35.795 -23.894 -10.833  0.00  0.00    +0.146 HD
ENDBRANCH  10  13
ENDBRANCH   5   6
BRANCH   3  16
ATOM     16  O2* UNL     1      32.446 -22.836 -13.922  0.00  0.00    -0.378 OA
ATOM     17  H2* UNL     1      32.749 -23.582 -13.382  0.00  0.00    +0.211 HD
ENDBRANCH   3  16
BRANCH   2  18
ATOM     18  O3* UNL     1      31.383 -24.194 -16.022  0.00  0.00    -0.379 OA
ATOM     19  H3* UNL     1      30.733 -24.299 -16.734  0.00  0.00    +0.211 HD
ENDBRANCH   2  18
BRANCH   4  20
ATOM     20  C5* UNL     1      33.845 -22.492 -18.236  0.00  0.00    +0.169 C 
BRANCH  20  21
ATOM     21  O5* UNL     1      32.823 -22.029 -19.101  0.00  0.00    -0.379 OA
ATOM     22  H5* UNL     1      32.762 -21.063 -19.041  0.00  0.00    +0.211 HD
ENDBRANCH  20  21
ENDBRANCH   4  20
TORSDOF 6
ENDMDL
