MODEL 1
REMARK VINA RESULT:      -8.4      0.000      0.000
REMARK  Name = 5287415
REMARK  10 active torsions:
REMARK  status: ('A' for Active; 'I' for Inactive)
REMARK    1  A    between atoms: N_1  and  S_12
REMARK    2  A    between atoms: C_2  and  N_26
REMARK    3  A    between atoms: C_3  and  C_8
REMARK    4  A    between atoms: N_7  and  O_10
REMARK    5  A    between atoms: S_12  and  C_15
REMARK    6  A    between atoms: C_20  and  O_21
REMARK    7  A    between atoms: O_21  and  C_22
REMARK    8  A    between atoms: C_22  and  C_23
REMARK    9  A    between atoms: C_23  and  C_24
REMARK   10  A    between atoms: N_26  and  S_28
REMARK                            x       y       z     vdW  Elec       q    Type
REMARK                         _______ _______ _______ _____ _____    ______ ____
ROOT
ATOM      1  N   UNL     1      33.849 -16.083 -22.903  0.00  0.00    -0.147 NA
ATOM      2  C   UNL     1      33.001 -14.027 -23.810  0.00  0.00    +0.095 C 
ATOM      3  C   UNL     1      34.283 -15.973 -24.323  0.00  0.00    +0.159 C 
ATOM      4  C   UNL     1      33.307 -14.983 -24.950  0.00  0.00    +0.046 C 
ATOM      5  C   UNL     1      32.938 -14.938 -22.590  0.00  0.00    +0.114 C 
ENDROOT
BRANCH   3   8
ATOM      6  O   UNL     1      33.391 -17.567 -25.840  0.00  0.00    -0.272 OA
ATOM      7  N   UNL     1      34.987 -18.251 -24.314  0.00  0.00    -0.196 N 
ATOM      8  C   UNL     1      34.161 -17.335 -24.910  0.00  0.00    +0.261 C 
ATOM      9  H   UNL     1      35.585 -18.012 -23.569  0.00  0.00    +0.182 HD
BRANCH   7  10
ATOM     10  O   UNL     1      34.928 -19.554 -24.831  0.00  0.00    -0.295 OA
ATOM     11  H   UNL     1      34.083 -19.682 -25.288  0.00  0.00    +0.241 HD
ENDBRANCH   7  10
ENDBRANCH   3   8
BRANCH   1  12
ATOM     12  S   UNL     1      35.022 -16.499 -21.742  0.00  0.00    +0.064 S 
ATOM     13  O   UNL     1      34.933 -15.586 -20.618  0.00  0.00    -0.153 OA
ATOM     14  O   UNL     1      36.291 -16.731 -22.404  0.00  0.00    -0.153 OA
BRANCH  12  15
ATOM     15  C   UNL     1      34.400 -18.065 -21.207  0.00  0.00    +0.122 C 
ATOM     16  C   UNL     1      33.028 -18.248 -21.033  0.00  0.00    +0.023 C 
ATOM     17  C   UNL     1      35.281 -19.116 -20.959  0.00  0.00    +0.023 C 
ATOM     18  C   UNL     1      32.538 -19.483 -20.610  0.00  0.00    +0.038 C 
ATOM     19  C   UNL     1      34.792 -20.352 -20.536  0.00  0.00    +0.038 C 
ATOM     20  C   UNL     1      33.419 -20.535 -20.362  0.00  0.00    +0.139 C 
BRANCH  20  21
ATOM     21  O   UNL     1      32.941 -21.741 -19.949  0.00  0.00    -0.475 OA
BRANCH  21  22
ATOM     22  C   UNL     1      33.790 -22.526 -19.114  0.00  0.00    +0.205 C 
BRANCH  22  23
ATOM     23  C   UNL     1      33.057 -22.832 -17.816  0.00  0.00    +0.047 C 
BRANCH  23  24
ATOM     24  C   UNL     1      34.025 -23.196 -16.694  0.00  0.00    +0.004 C 
ATOM     25  C   UNL     1      33.297 -23.407 -15.376  0.00  0.00    +0.000 C 
ENDBRANCH  23  24
ENDBRANCH  22  23
ENDBRANCH  21  22
ENDBRANCH  20  21
ENDBRANCH  12  15
ENDBRANCH   1  12
BRANCH   2  26
ATOM     26  N   UNL     1      34.110 -13.051 -23.654  0.00  0.00    -0.183 NA
ATOM     27  H   UNL     1      34.279 -12.949 -22.653  0.00  0.00    +0.148 HD
BRANCH  26  28
ATOM     28  S   UNL     1      33.921 -11.483 -24.291  0.00  0.00    +0.043 S 
ATOM     29  O   UNL     1      33.469 -11.558 -25.666  0.00  0.00    -0.157 OA
ATOM     30  O   UNL     1      35.092 -10.705 -23.936  0.00  0.00    -0.157 OA
ATOM     31  C   UNL     1      32.568 -10.887 -23.302  0.00  0.00    +0.196 C 
ENDBRANCH  26  28
ENDBRANCH   2  26
TORSDOF 10
ENDMDL
MODEL 2
REMARK VINA RESULT:      -8.4     10.030     12.796
REMARK  Name = 5287415
REMARK  10 active torsions:
REMARK  status: ('A' for Active; 'I' for Inactive)
REMARK    1  A    between atoms: N_1  and  S_12
REMARK    2  A    between atoms: C_2  and  N_26
REMARK    3  A    between atoms: C_3  and  C_8
REMARK    4  A    between atoms: N_7  and  O_10
REMARK    5  A    between atoms: S_12  and  C_15
REMARK    6  A    between atoms: C_20  and  O_21
REMARK    7  A    between atoms: O_21  and  C_22
REMARK    8  A    between atoms: C_22  and  C_23
REMARK    9  A    between atoms: C_23  and  C_24
REMARK   10  A    between atoms: N_26  and  S_28
REMARK                            x       y       z     vdW  Elec       q    Type
REMARK                         _______ _______ _______ _____ _____    ______ ____
ROOT
ATOM      1  N   UNL     1      35.594 -24.994 -14.292  0.00  0.00    -0.147 NA
ATOM      2  C   UNL     1      37.304 -26.631 -14.701  0.00  0.00    +0.095 C 
ATOM      3  C   UNL     1      36.630 -24.877 -13.230  0.00  0.00    +0.159 C 
ATOM      4  C   UNL     1      37.347 -26.224 -13.239  0.00  0.00    +0.046 C 
ATOM      5  C   UNL     1      35.925 -26.169 -15.157  0.00  0.00    +0.114 C 
ENDROOT
BRANCH   3   8
ATOM      6  O   UNL     1      34.698 -24.846 -11.851  0.00  0.00    -0.272 OA
ATOM      7  N   UNL     1      36.719 -24.169 -10.954  0.00  0.00    -0.196 N 
ATOM      8  C   UNL     1      35.904 -24.632 -11.954  0.00  0.00    +0.261 C 
ATOM      9  H   UNL     1      37.681 -24.014 -11.092  0.00  0.00    +0.182 HD
BRANCH   7  10
ATOM     10  O   UNL     1      36.095 -23.930  -9.721  0.00  0.00    -0.295 OA
ATOM     11  H   UNL     1      36.332 -23.044  -9.406  0.00  0.00    +0.241 HD
ENDBRANCH   7  10
ENDBRANCH   3   8
BRANCH   1  12
ATOM     12  S   UNL     1      35.079 -23.567 -15.062  0.00  0.00    +0.064 S 
ATOM     13  O   UNL     1      35.503 -23.587 -16.449  0.00  0.00    -0.153 OA
ATOM     14  O   UNL     1      35.381 -22.429 -14.215  0.00  0.00    -0.153 OA
BRANCH  12  15
ATOM     15  C   UNL     1      33.327 -23.806 -15.037  0.00  0.00    +0.122 C 
ATOM     16  C   UNL     1      32.751 -24.643 -14.082  0.00  0.00    +0.023 C 
ATOM     17  C   UNL     1      32.522 -23.157 -15.973  0.00  0.00    +0.023 C 
ATOM     18  C   UNL     1      31.370 -24.832 -14.063  0.00  0.00    +0.038 C 
ATOM     19  C   UNL     1      31.140 -23.346 -15.954  0.00  0.00    +0.038 C 
ATOM     20  C   UNL     1      30.564 -24.183 -14.999  0.00  0.00    +0.139 C 
BRANCH  20  21
ATOM     21  O   UNL     1      29.216 -24.367 -14.980  0.00  0.00    -0.475 OA
BRANCH  21  22
ATOM     22  C   UNL     1      28.515 -24.169 -16.207  0.00  0.00    +0.205 C 
BRANCH  22  23
ATOM     23  C   UNL     1      27.705 -22.884 -16.109  0.00  0.00    +0.047 C 
BRANCH  23  24
ATOM     24  C   UNL     1      27.256 -22.394 -17.482  0.00  0.00    +0.004 C 
ATOM     25  C   UNL     1      26.184 -21.322 -17.368  0.00  0.00    +0.000 C 
ENDBRANCH  23  24
ENDBRANCH  22  23
ENDBRANCH  21  22
ENDBRANCH  20  21
ENDBRANCH  12  15
ENDBRANCH   1  12
BRANCH   2  26
ATOM     26  N   UNL     1      38.355 -25.908 -15.461  0.00  0.00    -0.183 NA
ATOM     27  H   UNL     1      38.248 -26.169 -16.442  0.00  0.00    +0.148 HD
BRANCH  26  28
ATOM     28  S   UNL     1      39.988 -26.164 -15.053  0.00  0.00    +0.043 S 
ATOM     29  O   UNL     1      40.817 -26.065 -16.238  0.00  0.00    -0.157 OA
ATOM     30  O   UNL     1      40.063 -27.327 -14.190  0.00  0.00    -0.157 OA
ATOM     31  C   UNL     1      40.303 -24.733 -14.044  0.00  0.00    +0.196 C 
ENDBRANCH  26  28
ENDBRANCH   2  26
TORSDOF 10
ENDMDL
MODEL 3
REMARK VINA RESULT:      -8.4      7.381     12.234
REMARK  Name = 5287415
REMARK  10 active torsions:
REMARK  status: ('A' for Active; 'I' for Inactive)
REMARK    1  A    between atoms: N_1  and  S_12
REMARK    2  A    between atoms: C_2  and  N_26
REMARK    3  A    between atoms: C_3  and  C_8
REMARK    4  A    between atoms: N_7  and  O_10
REMARK    5  A    between atoms: S_12  and  C_15
REMARK    6  A    between atoms: C_20  and  O_21
REMARK    7  A    between atoms: O_21  and  C_22
REMARK    8  A    between atoms: C_22  and  C_23
REMARK    9  A    between atoms: C_23  and  C_24
REMARK   10  A    between atoms: N_26  and  S_28
REMARK                            x       y       z     vdW  Elec       q    Type
REMARK                         _______ _______ _______ _____ _____    ______ ____
ROOT
ATOM      1  N   UNL     1      36.695 -24.509 -14.551  0.00  0.00    -0.147 NA
ATOM      2  C   UNL     1      37.841 -26.489 -13.818  0.00  0.00    +0.095 C 
ATOM      3  C   UNL     1      36.466 -24.680 -13.090  0.00  0.00    +0.159 C 
ATOM      4  C   UNL     1      36.741 -26.157 -12.825  0.00  0.00    +0.046 C 
ATOM      5  C   UNL     1      37.449 -25.697 -15.060  0.00  0.00    +0.114 C 
ENDROOT
BRANCH   3   8
ATOM      6  O   UNL     1      34.735 -23.507 -11.965  0.00  0.00    -0.272 OA
ATOM      7  N   UNL     1      34.171 -24.959 -13.673  0.00  0.00    -0.196 N 
ATOM      8  C   UNL     1      35.045 -24.315 -12.838  0.00  0.00    +0.261 C 
ATOM      9  H   UNL     1      34.474 -25.600 -14.357  0.00  0.00    +0.182 HD
BRANCH   7  10
ATOM     10  O   UNL     1      32.815 -24.648 -13.493  0.00  0.00    -0.295 OA
ATOM     11  H   UNL     1      32.629 -24.545 -12.548  0.00  0.00    +0.241 HD
ENDBRANCH   7  10
ENDBRANCH   3   8
BRANCH   1  12
ATOM     12  S   UNL     1      37.173 -22.973 -15.107  0.00  0.00    +0.064 S 
ATOM     13  O   UNL     1      38.481 -23.070 -15.727  0.00  0.00    -0.153 OA
ATOM     14  O   UNL     1      36.918 -21.988 -14.073  0.00  0.00    -0.153 OA
BRANCH  12  15
ATOM     15  C   UNL     1      35.989 -22.719 -16.395  0.00  0.00    +0.122 C 
ATOM     16  C   UNL     1      34.702 -23.243 -16.274  0.00  0.00    +0.023 C 
ATOM     17  C   UNL     1      36.343 -21.994 -17.533  0.00  0.00    +0.023 C 
ATOM     18  C   UNL     1      33.770 -23.043 -17.291  0.00  0.00    +0.038 C 
ATOM     19  C   UNL     1      35.410 -21.795 -18.551  0.00  0.00    +0.038 C 
ATOM     20  C   UNL     1      34.123 -22.319 -18.429  0.00  0.00    +0.139 C 
BRANCH  20  21
ATOM     21  O   UNL     1      33.213 -22.123 -19.422  0.00  0.00    -0.475 OA
BRANCH  21  22
ATOM     22  C   UNL     1      32.714 -20.798 -19.595  0.00  0.00    +0.205 C 
BRANCH  22  23
ATOM     23  C   UNL     1      33.061 -20.321 -20.998  0.00  0.00    +0.047 C 
BRANCH  23  24
ATOM     24  C   UNL     1      34.094 -19.198 -20.972  0.00  0.00    +0.004 C 
ATOM     25  C   UNL     1      34.967 -19.216 -22.217  0.00  0.00    +0.000 C 
ENDBRANCH  23  24
ENDBRANCH  22  23
ENDBRANCH  21  22
ENDBRANCH  20  21
ENDBRANCH  12  15
ENDBRANCH   1  12
BRANCH   2  26
ATOM     26  N   UNL     1      39.150 -26.010 -13.306  0.00  0.00    -0.183 NA
ATOM     27  H   UNL     1      38.992 -25.089 -12.899  0.00  0.00    +0.148 HD
BRANCH  26  28
ATOM     28  S   UNL     1      40.453 -25.860 -14.392  0.00  0.00    +0.043 S 
ATOM     29  O   UNL     1      41.095 -24.572 -14.220  0.00  0.00    -0.157 OA
ATOM     30  O   UNL     1      40.005 -26.298 -15.700  0.00  0.00    -0.157 OA
ATOM     31  C   UNL     1      41.551 -27.108 -13.762  0.00  0.00    +0.196 C 
ENDBRANCH  26  28
ENDBRANCH   2  26
TORSDOF 10
ENDMDL
MODEL 4
REMARK VINA RESULT:      -8.3      6.920     11.284
REMARK  Name = 5287415
REMARK  10 active torsions:
REMARK  status: ('A' for Active; 'I' for Inactive)
REMARK    1  A    between atoms: N_1  and  S_12
REMARK    2  A    between atoms: C_2  and  N_26
REMARK    3  A    between atoms: C_3  and  C_8
REMARK    4  A    between atoms: N_7  and  O_10
REMARK    5  A    between atoms: S_12  and  C_15
REMARK    6  A    between atoms: C_20  and  O_21
REMARK    7  A    between atoms: O_21  and  C_22
REMARK    8  A    between atoms: C_22  and  C_23
REMARK    9  A    between atoms: C_23  and  C_24
REMARK   10  A    between atoms: N_26  and  S_28
REMARK                            x       y       z     vdW  Elec       q    Type
REMARK                         _______ _______ _______ _____ _____    ______ ____
ROOT
ATOM      1  N   UNL     1      35.031 -23.406 -14.148  0.00  0.00    -0.147 NA
ATOM      2  C   UNL     1      32.649 -23.100 -14.095  0.00  0.00    +0.095 C 
ATOM      3  C   UNL     1      34.459 -24.290 -13.095  0.00  0.00    +0.159 C 
ATOM      4  C   UNL     1      33.105 -23.671 -12.764  0.00  0.00    +0.046 C 
ATOM      5  C   UNL     1      33.935 -22.555 -14.707  0.00  0.00    +0.114 C 
ENDROOT
BRANCH   3   8
ATOM      6  O   UNL     1      35.401 -25.112 -11.077  0.00  0.00    -0.272 OA
ATOM      7  N   UNL     1      36.234 -23.153 -11.980  0.00  0.00    -0.196 N 
ATOM      8  C   UNL     1      35.401 -24.240 -11.944  0.00  0.00    +0.261 C 
ATOM      9  H   UNL     1      36.191 -22.482 -12.700  0.00  0.00    +0.182 HD
BRANCH   7  10
ATOM     10  O   UNL     1      37.155 -23.055 -10.926  0.00  0.00    -0.295 OA
ATOM     11  H   UNL     1      36.726 -22.647 -10.159  0.00  0.00    +0.241 HD
ENDBRANCH   7  10
ENDBRANCH   3   8
BRANCH   1  12
ATOM     12  S   UNL     1      36.136 -24.090 -15.247  0.00  0.00    +0.064 S 
ATOM     13  O   UNL     1      35.745 -25.456 -15.538  0.00  0.00    -0.153 OA
ATOM     14  O   UNL     1      37.488 -23.786 -14.819  0.00  0.00    -0.153 OA
BRANCH  12  15
ATOM     15  C   UNL     1      35.797 -23.120 -16.685  0.00  0.00    +0.122 C 
ATOM     16  C   UNL     1      36.737 -22.196 -17.142  0.00  0.00    +0.023 C 
ATOM     17  C   UNL     1      34.589 -23.278 -17.363  0.00  0.00    +0.023 C 
ATOM     18  C   UNL     1      36.469 -21.431 -18.275  0.00  0.00    +0.038 C 
ATOM     19  C   UNL     1      34.319 -22.512 -18.497  0.00  0.00    +0.038 C 
ATOM     20  C   UNL     1      35.261 -21.588 -18.954  0.00  0.00    +0.139 C 
BRANCH  20  21
ATOM     21  O   UNL     1      34.998 -20.841 -20.061  0.00  0.00    -0.475 OA
BRANCH  21  22
ATOM     22  C   UNL     1      33.640 -20.471 -20.289  0.00  0.00    +0.205 C 
BRANCH  22  23
ATOM     23  C   UNL     1      33.597 -19.388 -21.356  0.00  0.00    +0.047 C 
BRANCH  23  24
ATOM     24  C   UNL     1      34.976 -19.135 -21.958  0.00  0.00    +0.004 C 
ATOM     25  C   UNL     1      34.934 -19.158 -23.478  0.00  0.00    +0.000 C 
ENDBRANCH  23  24
ENDBRANCH  22  23
ENDBRANCH  21  22
ENDBRANCH  20  21
ENDBRANCH  12  15
ENDBRANCH   1  12
BRANCH   2  26
ATOM     26  N   UNL     1      32.101 -24.182 -14.952  0.00  0.00    -0.183 NA
ATOM     27  H   UNL     1      32.835 -24.440 -15.612  0.00  0.00    +0.148 HD
BRANCH  26  28
ATOM     28  S   UNL     1      30.695 -23.878 -15.862  0.00  0.00    +0.043 S 
ATOM     29  O   UNL     1      29.925 -25.098 -16.006  0.00  0.00    -0.157 OA
ATOM     30  O   UNL     1      31.067 -23.093 -17.023  0.00  0.00    -0.157 OA
ATOM     31  C   UNL     1      29.812 -22.802 -14.754  0.00  0.00    +0.196 C 
ENDBRANCH  26  28
ENDBRANCH   2  26
TORSDOF 10
ENDMDL
MODEL 5
REMARK VINA RESULT:      -7.8      3.366      9.553
REMARK  Name = 5287415
REMARK  10 active torsions:
REMARK  status: ('A' for Active; 'I' for Inactive)
REMARK    1  A    between atoms: N_1  and  S_12
REMARK    2  A    between atoms: C_2  and  N_26
REMARK    3  A    between atoms: C_3  and  C_8
REMARK    4  A    between atoms: N_7  and  O_10
REMARK    5  A    between atoms: S_12  and  C_15
REMARK    6  A    between atoms: C_20  and  O_21
REMARK    7  A    between atoms: O_21  and  C_22
REMARK    8  A    between atoms: C_22  and  C_23
REMARK    9  A    between atoms: C_23  and  C_24
REMARK   10  A    between atoms: N_26  and  S_28
REMARK                            x       y       z     vdW  Elec       q    Type
REMARK                         _______ _______ _______ _____ _____    ______ ____
ROOT
ATOM      1  N   UNL     1      33.913 -14.441 -23.935  0.00  0.00    -0.147 NA
ATOM      2  C   UNL     1      35.062 -16.524 -23.598  0.00  0.00    +0.095 C 
ATOM      3  C   UNL     1      33.419 -15.426 -24.935  0.00  0.00    +0.159 C 
ATOM      4  C   UNL     1      34.517 -16.482 -25.015  0.00  0.00    +0.046 C 
ATOM      5  C   UNL     1      35.034 -15.063 -23.164  0.00  0.00    +0.114 C 
ENDROOT
BRANCH   3   8
ATOM      6  O   UNL     1      34.180 -14.571 -27.015  0.00  0.00    -0.272 OA
ATOM      7  N   UNL     1      31.992 -14.178 -26.381  0.00  0.00    -0.196 N 
ATOM      8  C   UNL     1      33.254 -14.684 -26.215  0.00  0.00    +0.261 C 
ATOM      9  H   UNL     1      31.285 -14.298 -25.706  0.00  0.00    +0.182 HD
BRANCH   7  10
ATOM     10  O   UNL     1      31.769 -13.476 -27.575  0.00  0.00    -0.295 OA
ATOM     11  H   UNL     1      32.391 -12.736 -27.636  0.00  0.00    +0.241 HD
ENDBRANCH   7  10
ENDBRANCH   3   8
BRANCH   1  12
ATOM     12  S   UNL     1      32.758 -13.544 -23.063  0.00  0.00    +0.064 S 
ATOM     13  O   UNL     1      32.961 -13.749 -21.642  0.00  0.00    -0.153 OA
ATOM     14  O   UNL     1      31.450 -13.740 -23.658  0.00  0.00    -0.153 OA
BRANCH  12  15
ATOM     15  C   UNL     1      33.280 -11.898 -23.444  0.00  0.00    +0.122 C 
ATOM     16  C   UNL     1      34.254 -11.683 -24.419  0.00  0.00    +0.023 C 
ATOM     17  C   UNL     1      32.718 -10.815 -22.770  0.00  0.00    +0.023 C 
ATOM     18  C   UNL     1      34.667 -10.386 -24.718  0.00  0.00    +0.038 C 
ATOM     19  C   UNL     1      33.130  -9.517 -23.069  0.00  0.00    +0.038 C 
ATOM     20  C   UNL     1      34.104  -9.302 -24.044  0.00  0.00    +0.139 C 
BRANCH  20  21
ATOM     21  O   UNL     1      34.506  -8.035 -24.337  0.00  0.00    -0.475 OA
BRANCH  21  22
ATOM     22  C   UNL     1      33.812  -6.968 -23.692  0.00  0.00    +0.205 C 
BRANCH  22  23
ATOM     23  C   UNL     1      33.015  -6.199 -24.736  0.00  0.00    +0.047 C 
BRANCH  23  24
ATOM     24  C   UNL     1      31.523  -6.196 -24.416  0.00  0.00    +0.004 C 
ATOM     25  C   UNL     1      31.274  -6.264 -22.918  0.00  0.00    +0.000 C 
ENDBRANCH  23  24
ENDBRANCH  22  23
ENDBRANCH  21  22
ENDBRANCH  20  21
ENDBRANCH  12  15
ENDBRANCH   1  12
BRANCH   2  26
ATOM     26  N   UNL     1      34.162 -17.325 -22.731  0.00  0.00    -0.183 NA
ATOM     27  H   UNL     1      34.041 -16.804 -21.862  0.00  0.00    +0.148 HD
BRANCH  26  28
ATOM     28  S   UNL     1      34.625 -18.907 -22.303  0.00  0.00    +0.043 S 
ATOM     29  O   UNL     1      34.988 -19.655 -23.491  0.00  0.00    -0.157 OA
ATOM     30  O   UNL     1      33.648 -19.428 -21.367  0.00  0.00    -0.157 OA
ATOM     31  C   UNL     1      36.114 -18.577 -21.388  0.00  0.00    +0.196 C 
ENDBRANCH  26  28
ENDBRANCH   2  26
TORSDOF 10
ENDMDL
MODEL 6
REMARK VINA RESULT:      -7.7      1.901      2.440
REMARK  Name = 5287415
REMARK  10 active torsions:
REMARK  status: ('A' for Active; 'I' for Inactive)
REMARK    1  A    between atoms: N_1  and  S_12
REMARK    2  A    between atoms: C_2  and  N_26
REMARK    3  A    between atoms: C_3  and  C_8
REMARK    4  A    between atoms: N_7  and  O_10
REMARK    5  A    between atoms: S_12  and  C_15
REMARK    6  A    between atoms: C_20  and  O_21
REMARK    7  A    between atoms: O_21  and  C_22
REMARK    8  A    between atoms: C_22  and  C_23
REMARK    9  A    between atoms: C_23  and  C_24
REMARK   10  A    between atoms: N_26  and  S_28
REMARK                            x       y       z     vdW  Elec       q    Type
REMARK                         _______ _______ _______ _____ _____    ______ ____
ROOT
ATOM      1  N   UNL     1      33.260 -14.887 -22.316  0.00  0.00    -0.147 NA
ATOM      2  C   UNL     1      32.355 -12.973 -23.452  0.00  0.00    +0.095 C 
ATOM      3  C   UNL     1      34.222 -14.457 -23.368  0.00  0.00    +0.159 C 
ATOM      4  C   UNL     1      33.386 -13.640 -24.347  0.00  0.00    +0.046 C 
ATOM      5  C   UNL     1      32.023 -14.053 -22.429  0.00  0.00    +0.114 C 
ENDROOT
BRANCH   3   8
ATOM      6  O   UNL     1      35.849 -16.163 -23.649  0.00  0.00    -0.272 OA
ATOM      7  N   UNL     1      33.918 -16.242 -24.919  0.00  0.00    -0.196 N 
ATOM      8  C   UNL     1      34.760 -15.700 -23.983  0.00  0.00    +0.261 C 
ATOM      9  H   UNL     1      33.055 -15.829 -25.150  0.00  0.00    +0.182 HD
BRANCH   7  10
ATOM     10  O   UNL     1      34.364 -17.424 -25.528  0.00  0.00    -0.295 OA
ATOM     11  H   UNL     1      35.183 -17.719 -25.102  0.00  0.00    +0.241 HD
ENDBRANCH   7  10
ENDBRANCH   3   8
BRANCH   1  12
ATOM     12  S   UNL     1      33.868 -15.189 -20.755  0.00  0.00    +0.064 S 
ATOM     13  O   UNL     1      32.802 -15.035 -19.784  0.00  0.00    -0.153 OA
ATOM     14  O   UNL     1      35.126 -14.486 -20.587  0.00  0.00    -0.153 OA
BRANCH  12  15
ATOM     15  C   UNL     1      34.230 -16.915 -20.883  0.00  0.00    +0.122 C 
ATOM     16  C   UNL     1      33.190 -17.840 -20.971  0.00  0.00    +0.023 C 
ATOM     17  C   UNL     1      35.554 -17.350 -20.895  0.00  0.00    +0.023 C 
ATOM     18  C   UNL     1      33.475 -19.201 -21.070  0.00  0.00    +0.038 C 
ATOM     19  C   UNL     1      35.840 -18.712 -20.994  0.00  0.00    +0.038 C 
ATOM     20  C   UNL     1      34.800 -19.637 -21.082  0.00  0.00    +0.139 C 
BRANCH  20  21
ATOM     21  O   UNL     1      35.079 -20.966 -21.180  0.00  0.00    -0.475 OA
BRANCH  21  22
ATOM     22  C   UNL     1      35.969 -21.516 -20.211  0.00  0.00    +0.205 C 
BRANCH  22  23
ATOM     23  C   UNL     1      35.214 -21.714 -18.904  0.00  0.00    +0.047 C 
BRANCH  23  24
ATOM     24  C   UNL     1      33.935 -22.520 -19.109  0.00  0.00    +0.004 C 
ATOM     25  C   UNL     1      33.448 -23.135 -17.806  0.00  0.00    +0.000 C 
ENDBRANCH  23  24
ENDBRANCH  22  23
ENDBRANCH  21  22
ENDBRANCH  20  21
ENDBRANCH  12  15
ENDBRANCH   1  12
BRANCH   2  26
ATOM     26  N   UNL     1      32.957 -11.800 -22.771  0.00  0.00    -0.183 NA
ATOM     27  H   UNL     1      33.407 -12.145 -21.923  0.00  0.00    +0.148 HD
BRANCH  26  28
ATOM     28  S   UNL     1      31.946 -10.509 -22.310  0.00  0.00    +0.043 S 
ATOM     29  O   UNL     1      32.385  -9.966 -21.039  0.00  0.00    -0.157 OA
ATOM     30  O   UNL     1      30.569 -10.919 -22.506  0.00  0.00    -0.157 OA
ATOM     31  C   UNL     1      32.333  -9.321 -23.575  0.00  0.00    +0.196 C 
ENDBRANCH  26  28
ENDBRANCH   2  26
TORSDOF 10
ENDMDL
MODEL 7
REMARK VINA RESULT:      -7.6      7.127     11.136
REMARK  Name = 5287415
REMARK  10 active torsions:
REMARK  status: ('A' for Active; 'I' for Inactive)
REMARK    1  A    between atoms: N_1  and  S_12
REMARK    2  A    between atoms: C_2  and  N_26
REMARK    3  A    between atoms: C_3  and  C_8
REMARK    4  A    between atoms: N_7  and  O_10
REMARK    5  A    between atoms: S_12  and  C_15
REMARK    6  A    between atoms: C_20  and  O_21
REMARK    7  A    between atoms: O_21  and  C_22
REMARK    8  A    between atoms: C_22  and  C_23
REMARK    9  A    between atoms: C_23  and  C_24
REMARK   10  A    between atoms: N_26  and  S_28
REMARK                            x       y       z     vdW  Elec       q    Type
REMARK                         _______ _______ _______ _____ _____    ______ ____
ROOT
ATOM      1  N   UNL     1      36.238 -24.251 -14.049  0.00  0.00    -0.147 NA
ATOM      2  C   UNL     1      33.910 -24.306 -13.458  0.00  0.00    +0.095 C 
ATOM      3  C   UNL     1      35.516 -25.105 -15.032  0.00  0.00    +0.159 C 
ATOM      4  C   UNL     1      34.232 -25.516 -14.318  0.00  0.00    +0.046 C 
ATOM      5  C   UNL     1      35.279 -23.838 -12.977  0.00  0.00    +0.114 C 
ENDROOT
BRANCH   3   8
ATOM      6  O   UNL     1      36.190 -27.019 -16.264  0.00  0.00    -0.272 OA
ATOM      7  N   UNL     1      37.441 -26.375 -14.429  0.00  0.00    -0.196 N 
ATOM      8  C   UNL     1      36.402 -26.266 -15.315  0.00  0.00    +0.261 C 
ATOM      9  H   UNL     1      37.564 -25.744 -13.684  0.00  0.00    +0.182 HD
BRANCH   7  10
ATOM     10  O   UNL     1      38.321 -27.445 -14.650  0.00  0.00    -0.295 OA
ATOM     11  H   UNL     1      39.128 -27.118 -15.076  0.00  0.00    +0.241 HD
ENDBRANCH   7  10
ENDBRANCH   3   8
BRANCH   1  12
ATOM     12  S   UNL     1      37.302 -23.068 -14.654  0.00  0.00    +0.064 S 
ATOM     13  O   UNL     1      38.566 -23.689 -15.000  0.00  0.00    -0.153 OA
ATOM     14  O   UNL     1      37.266 -21.904 -13.790  0.00  0.00    -0.153 OA
BRANCH  12  15
ATOM     15  C   UNL     1      36.484 -22.644 -16.162  0.00  0.00    +0.122 C 
ATOM     16  C   UNL     1      37.174 -21.957 -17.160  0.00  0.00    +0.023 C 
ATOM     17  C   UNL     1      35.149 -22.998 -16.354  0.00  0.00    +0.023 C 
ATOM     18  C   UNL     1      36.528 -21.621 -18.350  0.00  0.00    +0.038 C 
ATOM     19  C   UNL     1      34.502 -22.663 -17.543  0.00  0.00    +0.038 C 
ATOM     20  C   UNL     1      35.192 -21.975 -18.542  0.00  0.00    +0.139 C 
BRANCH  20  21
ATOM     21  O   UNL     1      34.562 -21.648 -19.703  0.00  0.00    -0.475 OA
BRANCH  21  22
ATOM     22  C   UNL     1      33.223 -21.166 -19.602  0.00  0.00    +0.205 C 
BRANCH  22  23
ATOM     23  C   UNL     1      33.041 -20.013 -20.579  0.00  0.00    +0.047 C 
BRANCH  23  24
ATOM     24  C   UNL     1      34.374 -19.364 -20.940  0.00  0.00    +0.004 C 
ATOM     25  C   UNL     1      34.583 -19.320 -22.445  0.00  0.00    +0.000 C 
ENDBRANCH  23  24
ENDBRANCH  22  23
ENDBRANCH  21  22
ENDBRANCH  20  21
ENDBRANCH  12  15
ENDBRANCH   1  12
BRANCH   2  26
ATOM     26  N   UNL     1      33.276 -23.249 -14.285  0.00  0.00    -0.183 NA
ATOM     27  H   UNL     1      33.321 -22.382 -13.748  0.00  0.00    +0.148 HD
BRANCH  26  28
ATOM     28  S   UNL     1      31.659 -23.449 -14.777  0.00  0.00    +0.043 S 
ATOM     29  O   UNL     1      31.613 -24.042 -16.099  0.00  0.00    -0.157 OA
ATOM     30  O   UNL     1      30.942 -22.221 -14.489  0.00  0.00    -0.157 OA
ATOM     31  C   UNL     1      31.108 -24.671 -13.609  0.00  0.00    +0.196 C 
ENDBRANCH  26  28
ENDBRANCH   2  26
TORSDOF 10
ENDMDL
MODEL 8
REMARK VINA RESULT:      -7.6      2.969      8.923
REMARK  Name = 5287415
REMARK  10 active torsions:
REMARK  status: ('A' for Active; 'I' for Inactive)
REMARK    1  A    between atoms: N_1  and  S_12
REMARK    2  A    between atoms: C_2  and  N_26
REMARK    3  A    between atoms: C_3  and  C_8
REMARK    4  A    between atoms: N_7  and  O_10
REMARK    5  A    between atoms: S_12  and  C_15
REMARK    6  A    between atoms: C_20  and  O_21
REMARK    7  A    between atoms: O_21  and  C_22
REMARK    8  A    between atoms: C_22  and  C_23
REMARK    9  A    between atoms: C_23  and  C_24
REMARK   10  A    between atoms: N_26  and  S_28
REMARK                            x       y       z     vdW  Elec       q    Type
REMARK                         _______ _______ _______ _____ _____    ______ ____
ROOT
ATOM      1  N   UNL     1      34.133 -14.805 -23.587  0.00  0.00    -0.147 NA
ATOM      2  C   UNL     1      35.265 -16.871 -24.060  0.00  0.00    +0.095 C 
ATOM      3  C   UNL     1      33.380 -15.530 -24.648  0.00  0.00    +0.159 C 
ATOM      4  C   UNL     1      34.394 -16.500 -25.248  0.00  0.00    +0.046 C 
ATOM      5  C   UNL     1      35.388 -15.562 -23.288  0.00  0.00    +0.114 C 
ENDROOT
BRANCH   3   8
ATOM      6  O   UNL     1      31.913 -13.841 -25.442  0.00  0.00    -0.272 OA
ATOM      7  N   UNL     1      33.771 -14.388 -26.704  0.00  0.00    -0.196 N 
ATOM      8  C   UNL     1      32.933 -14.503 -25.627  0.00  0.00    +0.261 C 
ATOM      9  H   UNL     1      34.577 -14.946 -26.804  0.00  0.00    +0.182 HD
BRANCH   7  10
ATOM     10  O   UNL     1      33.410 -13.427 -27.659  0.00  0.00    -0.295 OA
ATOM     11  H   UNL     1      34.085 -12.732 -27.690  0.00  0.00    +0.241 HD
ENDBRANCH   7  10
ENDBRANCH   3   8
BRANCH   1  12
ATOM     12  S   UNL     1      33.253 -14.185 -22.269  0.00  0.00    +0.064 S 
ATOM     13  O   UNL     1      34.083 -14.211 -21.080  0.00  0.00    -0.153 OA
ATOM     14  O   UNL     1      31.928 -14.775 -22.257  0.00  0.00    -0.153 OA
BRANCH  12  15
ATOM     15  C   UNL     1      33.084 -12.496 -22.766  0.00  0.00    +0.122 C 
ATOM     16  C   UNL     1      33.976 -11.948 -23.687  0.00  0.00    +0.023 C 
ATOM     17  C   UNL     1      32.059 -11.714 -22.236  0.00  0.00    +0.023 C 
ATOM     18  C   UNL     1      33.844 -10.616 -24.077  0.00  0.00    +0.038 C 
ATOM     19  C   UNL     1      31.927 -10.381 -22.626  0.00  0.00    +0.038 C 
ATOM     20  C   UNL     1      32.819  -9.832 -23.548  0.00  0.00    +0.139 C 
BRANCH  20  21
ATOM     21  O   UNL     1      32.690  -8.532 -23.929  0.00  0.00    -0.475 OA
BRANCH  21  22
ATOM     22  C   UNL     1      31.633  -7.782 -23.333  0.00  0.00    +0.205 C 
BRANCH  22  23
ATOM     23  C   UNL     1      32.221  -6.543 -22.673  0.00  0.00    +0.047 C 
BRANCH  23  24
ATOM     24  C   UNL     1      31.951  -6.522 -21.172  0.00  0.00    +0.004 C 
ATOM     25  C   UNL     1      32.762  -7.582 -20.444  0.00  0.00    +0.000 C 
ENDBRANCH  23  24
ENDBRANCH  22  23
ENDBRANCH  21  22
ENDBRANCH  20  21
ENDBRANCH  12  15
ENDBRANCH   1  12
BRANCH   2  26
ATOM     26  N   UNL     1      34.578 -17.888 -23.224  0.00  0.00    -0.183 NA
ATOM     27  H   UNL     1      33.631 -17.547 -23.056  0.00  0.00    +0.148 HD
BRANCH  26  28
ATOM     28  S   UNL     1      35.240 -18.289 -21.707  0.00  0.00    +0.043 S 
ATOM     29  O   UNL     1      34.820 -17.322 -20.712  0.00  0.00    -0.157 OA
ATOM     30  O   UNL     1      36.645 -18.600 -21.894  0.00  0.00    -0.157 OA
ATOM     31  C   UNL     1      34.397 -19.819 -21.375  0.00  0.00    +0.196 C 
ENDBRANCH  26  28
ENDBRANCH   2  26
TORSDOF 10
ENDMDL
MODEL 9
REMARK VINA RESULT:      -7.3      5.623      9.229
REMARK  Name = 5287415
REMARK  10 active torsions:
REMARK  status: ('A' for Active; 'I' for Inactive)
REMARK    1  A    between atoms: N_1  and  S_12
REMARK    2  A    between atoms: C_2  and  N_26
REMARK    3  A    between atoms: C_3  and  C_8
REMARK    4  A    between atoms: N_7  and  O_10
REMARK    5  A    between atoms: S_12  and  C_15
REMARK    6  A    between atoms: C_20  and  O_21
REMARK    7  A    between atoms: O_21  and  C_22
REMARK    8  A    between atoms: C_22  and  C_23
REMARK    9  A    between atoms: C_23  and  C_24
REMARK   10  A    between atoms: N_26  and  S_28
REMARK                            x       y       z     vdW  Elec       q    Type
REMARK                         _______ _______ _______ _____ _____    ______ ____
ROOT
ATOM      1  N   UNL     1      32.136  -7.201 -22.652  0.00  0.00    -0.147 NA
ATOM      2  C   UNL     1      31.351  -5.488 -24.142  0.00  0.00    +0.095 C 
ATOM      3  C   UNL     1      33.311  -6.561 -23.304  0.00  0.00    +0.159 C 
ATOM      4  C   UNL     1      32.748  -5.910 -24.564  0.00  0.00    +0.046 C 
ATOM      5  C   UNL     1      30.888  -6.635 -23.252  0.00  0.00    +0.114 C 
ENDROOT
BRANCH   3   8
ATOM      6  O   UNL     1      35.451  -7.588 -23.273  0.00  0.00    -0.272 OA
ATOM      7  N   UNL     1      33.695  -8.700 -24.284  0.00  0.00    -0.196 N 
ATOM      8  C   UNL     1      34.272  -7.654 -23.613  0.00  0.00    +0.261 C 
ATOM      9  H   UNL     1      32.742  -8.702 -24.534  0.00  0.00    +0.182 HD
BRANCH   7  10
ATOM     10  O   UNL     1      34.547  -9.770 -24.595  0.00  0.00    -0.295 OA
ATOM     11  H   UNL     1      34.782  -9.734 -25.535  0.00  0.00    +0.241 HD
ENDBRANCH   7  10
ENDBRANCH   3   8
BRANCH   1  12
ATOM     12  S   UNL     1      32.176  -7.407 -20.963  0.00  0.00    +0.064 S 
ATOM     13  O   UNL     1      30.995  -6.805 -20.375  0.00  0.00    -0.153 OA
ATOM     14  O   UNL     1      33.498  -7.069 -20.470  0.00  0.00    -0.153 OA
BRANCH  12  15
ATOM     15  C   UNL     1      31.993  -9.162 -20.851  0.00  0.00    +0.122 C 
ATOM     16  C   UNL     1      31.915  -9.930 -22.013  0.00  0.00    +0.023 C 
ATOM     17  C   UNL     1      31.927  -9.777 -19.602  0.00  0.00    +0.023 C 
ATOM     18  C   UNL     1      31.770 -11.314 -21.924  0.00  0.00    +0.038 C 
ATOM     19  C   UNL     1      31.780 -11.161 -19.513  0.00  0.00    +0.038 C 
ATOM     20  C   UNL     1      31.703 -11.930 -20.675  0.00  0.00    +0.139 C 
BRANCH  20  21
ATOM     21  O   UNL     1      31.561 -13.281 -20.588  0.00  0.00    -0.475 OA
BRANCH  21  22
ATOM     22  C   UNL     1      32.384 -14.076 -21.440  0.00  0.00    +0.205 C 
BRANCH  22  23
ATOM     23  C   UNL     1      32.867 -15.291 -20.661  0.00  0.00    +0.047 C 
BRANCH  23  24
ATOM     24  C   UNL     1      34.391 -15.357 -20.608  0.00  0.00    +0.004 C 
ATOM     25  C   UNL     1      34.906 -16.722 -21.037  0.00  0.00    +0.000 C 
ENDBRANCH  23  24
ENDBRANCH  22  23
ENDBRANCH  21  22
ENDBRANCH  20  21
ENDBRANCH  12  15
ENDBRANCH   1  12
BRANCH   2  26
ATOM     26  N   UNL     1      31.416  -4.231 -23.354  0.00  0.00    -0.183 NA
ATOM     27  H   UNL     1      30.763  -4.332 -22.577  0.00  0.00    +0.148 HD
BRANCH  26  28
ATOM     28  S   UNL     1      31.053  -2.757 -24.125  0.00  0.00    +0.043 S 
ATOM     29  O   UNL     1      29.964  -2.944 -25.064  0.00  0.00    -0.157 OA
ATOM     30  O   UNL     1      32.299  -2.146 -24.544  0.00  0.00    -0.157 OA
ATOM     31  C   UNL     1      30.433  -1.812 -22.751  0.00  0.00    +0.196 C 
ENDBRANCH  26  28
ENDBRANCH   2  26
TORSDOF 10
ENDMDL
