MODEL 1
REMARK VINA RESULT:      -9.0      0.000      0.000
REMARK  Name = 96647
REMARK  8 active torsions:
REMARK  status: ('A' for Active; 'I' for Inactive)
REMARK    1  A    between atoms: C_2  and  O_7
REMARK    2  A    between atoms: C_3  and  O_9
REMARK    3  A    between atoms: C_4  and  O_11
REMARK    4  A    between atoms: C_5  and  C_23
REMARK    5  A    between atoms: C_6  and  O_13
REMARK    6  A    between atoms: O_13  and  C_14
REMARK    7  A    between atoms: C_15  and  N_22
REMARK    8  A    between atoms: C_23  and  O_24
REMARK                            x       y       z     vdW  Elec       q    Type
REMARK                         _______ _______ _______ _____ _____    ______ ____
ROOT
ATOM      1  O   UNL     1      36.358 -23.627 -14.026  0.00  0.00    -0.316 OA
ATOM      2  C   UNL     1      37.547 -26.235 -14.024  0.00  0.00    +0.173 C 
ATOM      3  C   UNL     1      38.101 -25.088 -13.178  0.00  0.00    +0.169 C 
ATOM      4  C   UNL     1      36.775 -25.704 -15.232  0.00  0.00    +0.210 C 
ATOM      5  C   UNL     1      36.973 -24.112 -12.826  0.00  0.00    +0.177 C 
ATOM      6  C   UNL     1      35.745 -24.658 -14.798  0.00  0.00    +0.318 C 
ENDROOT
BRANCH   2   7
ATOM      7  O   UNL     1      38.611 -27.069 -14.478  0.00  0.00    -0.379 OA
ATOM      8  H   UNL     1      38.501 -27.245 -15.426  0.00  0.00    +0.211 HD
ENDBRANCH   2   7
BRANCH   3   9
ATOM      9  O   UNL     1      39.108 -24.392 -13.914  0.00  0.00    -0.379 OA
ATOM     10  H   UNL     1      38.704 -23.650 -14.392  0.00  0.00    +0.211 HD
ENDBRANCH   3   9
BRANCH   4  11
ATOM     11  O   UNL     1      36.087 -26.784 -15.861  0.00  0.00    -0.377 OA
ATOM     12  H   UNL     1      36.675 -27.212 -16.502  0.00  0.00    +0.211 HD
ENDBRANCH   4  11
BRANCH   6  13
ATOM     13  O   UNL     1      35.166 -24.099 -15.977  0.00  0.00    -0.449 OA
BRANCH  13  14
ATOM     14  C   UNL     1      33.850 -23.736 -15.898  0.00  0.00    +0.164 C 
ATOM     15  C   UNL     1      33.174 -23.249 -17.014  0.00  0.00    +0.177 C 
ATOM     16  C   UNL     1      33.191 -23.864 -14.678  0.00  0.00    +0.039 C 
ATOM     17  C   UNL     1      31.830 -22.887 -16.909  0.00  0.00    +0.027 C 
ATOM     18  C   UNL     1      31.848 -23.503 -14.573  0.00  0.00    +0.003 C 
ATOM     19  C   UNL     1      31.167 -23.014 -15.688  0.00  0.00    +0.002 C 
BRANCH  15  22
ATOM     20  O   UNL     1      34.404 -22.029 -18.536  0.00  0.00    -0.126 OA
ATOM     21  O   UNL     1      33.826 -24.080 -19.064  0.00  0.00    -0.126 OA
ATOM     22  N   UNL     1      33.834 -23.113 -18.266  0.00  0.00    +0.061 N 
ENDBRANCH  15  22
ENDBRANCH  13  14
ENDBRANCH   6  13
BRANCH   5  23
ATOM     23  C   UNL     1      37.477 -22.901 -12.050  0.00  0.00    +0.169 C 
BRANCH  23  24
ATOM     24  O   UNL     1      38.750 -23.209 -11.510  0.00  0.00    -0.379 OA
ATOM     25  H   UNL     1      39.441 -22.916 -12.126  0.00  0.00    +0.211 HD
ENDBRANCH  23  24
ENDBRANCH   5  23
TORSDOF 8
ENDMDL
MODEL 2
REMARK VINA RESULT:      -8.7      2.291      3.533
REMARK  Name = 96647
REMARK  8 active torsions:
REMARK  status: ('A' for Active; 'I' for Inactive)
REMARK    1  A    between atoms: C_2  and  O_7
REMARK    2  A    between atoms: C_3  and  O_9
REMARK    3  A    between atoms: C_4  and  O_11
REMARK    4  A    between atoms: C_5  and  C_23
REMARK    5  A    between atoms: C_6  and  O_13
REMARK    6  A    between atoms: O_13  and  C_14
REMARK    7  A    between atoms: C_15  and  N_22
REMARK    8  A    between atoms: C_23  and  O_24
REMARK                            x       y       z     vdW  Elec       q    Type
REMARK                         _______ _______ _______ _____ _____    ______ ____
ROOT
ATOM      1  O   UNL     1      36.660 -25.096 -14.394  0.00  0.00    -0.316 OA
ATOM      2  C   UNL     1      36.737 -23.868 -11.805  0.00  0.00    +0.173 C 
ATOM      3  C   UNL     1      37.928 -24.641 -12.375  0.00  0.00    +0.169 C 
ATOM      4  C   UNL     1      35.425 -24.339 -12.433  0.00  0.00    +0.210 C 
ATOM      5  C   UNL     1      37.902 -24.576 -13.906  0.00  0.00    +0.177 C 
ATOM      6  C   UNL     1      35.528 -24.344 -13.960  0.00  0.00    +0.318 C 
ENDROOT
BRANCH   2   7
ATOM      7  O   UNL     1      36.669 -24.044 -10.391  0.00  0.00    -0.379 OA
ATOM      8  H   UNL     1      37.374 -24.647 -10.107  0.00  0.00    +0.211 HD
ENDBRANCH   2   7
BRANCH   3   9
ATOM      9  O   UNL     1      37.854 -26.007 -11.965  0.00  0.00    -0.379 OA
ATOM     10  H   UNL     1      38.557 -26.191 -11.322  0.00  0.00    +0.211 HD
ENDBRANCH   3   9
BRANCH   4  11
ATOM     11  O   UNL     1      34.376 -23.450 -12.052  0.00  0.00    -0.377 OA
ATOM     12  H   UNL     1      34.523 -23.149 -11.141  0.00  0.00    +0.211 HD
ENDBRANCH   4  11
BRANCH   6  13
ATOM     13  O   UNL     1      34.332 -24.928 -14.477  0.00  0.00    -0.449 OA
BRANCH  13  14
ATOM     14  C   UNL     1      33.628 -24.182 -15.381  0.00  0.00    +0.164 C 
ATOM     15  C   UNL     1      32.284 -23.886 -15.172  0.00  0.00    +0.177 C 
ATOM     16  C   UNL     1      34.281 -23.717 -16.520  0.00  0.00    +0.039 C 
ATOM     17  C   UNL     1      31.588 -23.121 -16.109  0.00  0.00    +0.027 C 
ATOM     18  C   UNL     1      33.586 -22.952 -17.456  0.00  0.00    +0.003 C 
ATOM     19  C   UNL     1      32.238 -22.654 -17.251  0.00  0.00    +0.002 C 
BRANCH  15  22
ATOM     20  O   UNL     1      31.538 -23.607 -13.008  0.00  0.00    -0.126 OA
ATOM     21  O   UNL     1      31.092 -25.496 -14.032  0.00  0.00    -0.126 OA
ATOM     22  N   UNL     1      31.604 -24.353 -14.014  0.00  0.00    +0.061 N 
ENDBRANCH  15  22
ENDBRANCH  13  14
ENDBRANCH   6  13
BRANCH   5  23
ATOM     23  C   UNL     1      39.020 -25.396 -14.539  0.00  0.00    +0.169 C 
BRANCH  23  24
ATOM     24  O   UNL     1      38.612 -26.752 -14.588  0.00  0.00    -0.379 OA
ATOM     25  H   UNL     1      37.851 -26.839 -15.185  0.00  0.00    +0.211 HD
ENDBRANCH  23  24
ENDBRANCH   5  23
TORSDOF 8
ENDMDL
MODEL 3
REMARK VINA RESULT:      -8.3      2.716      6.504
REMARK  Name = 96647
REMARK  8 active torsions:
REMARK  status: ('A' for Active; 'I' for Inactive)
REMARK    1  A    between atoms: C_2  and  O_7
REMARK    2  A    between atoms: C_3  and  O_9
REMARK    3  A    between atoms: C_4  and  O_11
REMARK    4  A    between atoms: C_5  and  C_23
REMARK    5  A    between atoms: C_6  and  O_13
REMARK    6  A    between atoms: O_13  and  C_14
REMARK    7  A    between atoms: C_15  and  N_22
REMARK    8  A    between atoms: C_23  and  O_24
REMARK                            x       y       z     vdW  Elec       q    Type
REMARK                         _______ _______ _______ _____ _____    ______ ____
ROOT
ATOM      1  O   UNL     1      34.057 -23.060 -15.492  0.00  0.00    -0.316 OA
ATOM      2  C   UNL     1      32.237 -24.634 -13.933  0.00  0.00    +0.173 C 
ATOM      3  C   UNL     1      31.768 -23.769 -15.104  0.00  0.00    +0.169 C 
ATOM      4  C   UNL     1      33.546 -24.103 -13.348  0.00  0.00    +0.210 C 
ATOM      5  C   UNL     1      32.902 -23.622 -16.126  0.00  0.00    +0.177 C 
ATOM      6  C   UNL     1      34.583 -23.885 -14.452  0.00  0.00    +0.318 C 
ENDROOT
BRANCH   2   7
ATOM      7  O   UNL     1      31.243 -24.657 -12.911  0.00  0.00    -0.379 OA
ATOM      8  H   UNL     1      31.457 -25.350 -12.267  0.00  0.00    +0.211 HD
ENDBRANCH   2   7
BRANCH   3   9
ATOM      9  O   UNL     1      31.399 -22.475 -14.628  0.00  0.00    -0.379 OA
ATOM     10  H   UNL     1      32.175 -22.037 -14.245  0.00  0.00    +0.211 HD
ENDBRANCH   3   9
BRANCH   4  11
ATOM     11  O   UNL     1      34.065 -25.054 -12.420  0.00  0.00    -0.377 OA
ATOM     12  H   UNL     1      34.659 -25.666 -12.882  0.00  0.00    +0.211 HD
ENDBRANCH   4  11
BRANCH   6  13
ATOM     13  O   UNL     1      35.722 -23.255 -13.866  0.00  0.00    -0.449 OA
BRANCH  13  14
ATOM     14  C   UNL     1      36.863 -24.005 -13.788  0.00  0.00    +0.164 C 
ATOM     15  C   UNL     1      37.523 -24.179 -12.574  0.00  0.00    +0.177 C 
ATOM     16  C   UNL     1      37.356 -24.596 -14.948  0.00  0.00    +0.039 C 
ATOM     17  C   UNL     1      38.685 -24.950 -12.521  0.00  0.00    +0.027 C 
ATOM     18  C   UNL     1      38.517 -25.368 -14.894  0.00  0.00    +0.003 C 
ATOM     19  C   UNL     1      39.182 -25.544 -13.681  0.00  0.00    +0.002 C 
BRANCH  15  22
ATOM     20  O   UNL     1      37.301 -22.379 -11.150  0.00  0.00    -0.126 OA
ATOM     21  O   UNL     1      36.340 -24.273 -10.597  0.00  0.00    -0.126 OA
ATOM     22  N   UNL     1      37.030 -23.581 -11.382  0.00  0.00    +0.061 N 
ENDBRANCH  15  22
ENDBRANCH  13  14
ENDBRANCH   6  13
BRANCH   5  23
ATOM     23  C   UNL     1      32.524 -22.703 -17.282  0.00  0.00    +0.169 C 
BRANCH  23  24
ATOM     24  O   UNL     1      31.114 -22.565 -17.306  0.00  0.00    -0.379 OA
ATOM     25  H   UNL     1      30.702 -23.420 -17.097  0.00  0.00    +0.211 HD
ENDBRANCH  23  24
ENDBRANCH   5  23
TORSDOF 8
ENDMDL
MODEL 4
REMARK VINA RESULT:      -8.3      2.516      3.756
REMARK  Name = 96647
REMARK  8 active torsions:
REMARK  status: ('A' for Active; 'I' for Inactive)
REMARK    1  A    between atoms: C_2  and  O_7
REMARK    2  A    between atoms: C_3  and  O_9
REMARK    3  A    between atoms: C_4  and  O_11
REMARK    4  A    between atoms: C_5  and  C_23
REMARK    5  A    between atoms: C_6  and  O_13
REMARK    6  A    between atoms: O_13  and  C_14
REMARK    7  A    between atoms: C_15  and  N_22
REMARK    8  A    between atoms: C_23  and  O_24
REMARK                            x       y       z     vdW  Elec       q    Type
REMARK                         _______ _______ _______ _____ _____    ______ ____
ROOT
ATOM      1  O   UNL     1      36.908 -24.285 -15.498  0.00  0.00    -0.316 OA
ATOM      2  C   UNL     1      35.523 -24.242 -12.989  0.00  0.00    +0.173 C 
ATOM      3  C   UNL     1      36.779 -25.086 -13.210  0.00  0.00    +0.169 C 
ATOM      4  C   UNL     1      34.803 -23.972 -14.310  0.00  0.00    +0.210 C 
ATOM      5  C   UNL     1      37.657 -24.436 -14.286  0.00  0.00    +0.177 C 
ATOM      6  C   UNL     1      35.777 -23.426 -15.355  0.00  0.00    +0.318 C 
ENDROOT
BRANCH   2   7
ATOM      7  O   UNL     1      34.634 -24.912 -12.098  0.00  0.00    -0.379 OA
ATOM      8  H   UNL     1      35.102 -25.642 -11.662  0.00  0.00    +0.211 HD
ENDBRANCH   2   7
BRANCH   3   9
ATOM      9  O   UNL     1      36.408 -26.396 -13.641  0.00  0.00    -0.379 OA
ATOM     10  H   UNL     1      36.745 -27.052 -13.011  0.00  0.00    +0.211 HD
ENDBRANCH   3   9
BRANCH   4  11
ATOM     11  O   UNL     1      33.778 -23.002 -14.095  0.00  0.00    -0.377 OA
ATOM     12  H   UNL     1      33.405 -23.117 -13.207  0.00  0.00    +0.211 HD
ENDBRANCH   4  11
BRANCH   6  13
ATOM     13  O   UNL     1      35.081 -23.335 -16.598  0.00  0.00    -0.449 OA
BRANCH  13  14
ATOM     14  C   UNL     1      35.574 -22.446 -17.512  0.00  0.00    +0.164 C 
ATOM     15  C   UNL     1      34.929 -22.237 -18.728  0.00  0.00    +0.177 C 
ATOM     16  C   UNL     1      36.738 -21.745 -17.204  0.00  0.00    +0.039 C 
ATOM     17  C   UNL     1      35.452 -21.323 -19.644  0.00  0.00    +0.027 C 
ATOM     18  C   UNL     1      37.260 -20.831 -18.119  0.00  0.00    +0.003 C 
ATOM     19  C   UNL     1      36.618 -20.620 -19.339  0.00  0.00    +0.002 C 
BRANCH  15  22
ATOM     20  O   UNL     1      33.835 -24.059 -19.623  0.00  0.00    -0.126 OA
ATOM     21  O   UNL     1      32.633 -22.434 -18.768  0.00  0.00    -0.126 OA
ATOM     22  N   UNL     1      33.740 -22.945 -19.056  0.00  0.00    +0.061 N 
ENDBRANCH  15  22
ENDBRANCH  13  14
ENDBRANCH   6  13
BRANCH   5  23
ATOM     23  C   UNL     1      38.889 -25.273 -14.612  0.00  0.00    +0.169 C 
BRANCH  23  24
ATOM     24  O   UNL     1      38.521 -26.272 -15.547  0.00  0.00    -0.379 OA
ATOM     25  H   UNL     1      37.564 -26.230 -15.705  0.00  0.00    +0.211 HD
ENDBRANCH  23  24
ENDBRANCH   5  23
TORSDOF 8
ENDMDL
MODEL 5
REMARK VINA RESULT:      -8.1      1.882      2.236
REMARK  Name = 96647
REMARK  8 active torsions:
REMARK  status: ('A' for Active; 'I' for Inactive)
REMARK    1  A    between atoms: C_2  and  O_7
REMARK    2  A    between atoms: C_3  and  O_9
REMARK    3  A    between atoms: C_4  and  O_11
REMARK    4  A    between atoms: C_5  and  C_23
REMARK    5  A    between atoms: C_6  and  O_13
REMARK    6  A    between atoms: O_13  and  C_14
REMARK    7  A    between atoms: C_15  and  N_22
REMARK    8  A    between atoms: C_23  and  O_24
REMARK                            x       y       z     vdW  Elec       q    Type
REMARK                         _______ _______ _______ _____ _____    ______ ____
ROOT
ATOM      1  O   UNL     1      35.228 -23.821 -13.411  0.00  0.00    -0.316 OA
ATOM      2  C   UNL     1      37.424 -23.987 -15.247  0.00  0.00    +0.173 C 
ATOM      3  C   UNL     1      37.594 -24.247 -13.749  0.00  0.00    +0.169 C 
ATOM      4  C   UNL     1      36.218 -23.086 -15.515  0.00  0.00    +0.210 C 
ATOM      5  C   UNL     1      36.277 -24.764 -13.160  0.00  0.00    +0.177 C 
ATOM      6  C   UNL     1      34.974 -23.621 -14.802  0.00  0.00    +0.318 C 
ENDROOT
BRANCH   2   7
ATOM      7  O   UNL     1      38.596 -23.369 -15.774  0.00  0.00    -0.379 OA
ATOM      8  H   UNL     1      38.639 -23.522 -16.731  0.00  0.00    +0.211 HD
ENDBRANCH   2   7
BRANCH   3   9
ATOM      9  O   UNL     1      37.954 -23.032 -13.089  0.00  0.00    -0.379 OA
ATOM     10  H   UNL     1      38.467 -22.475 -13.695  0.00  0.00    +0.211 HD
ENDBRANCH   3   9
BRANCH   4  11
ATOM     11  O   UNL     1      35.958 -23.055 -16.918  0.00  0.00    -0.377 OA
ATOM     12  H   UNL     1      35.296 -23.728 -17.139  0.00  0.00    +0.211 HD
ENDBRANCH   4  11
BRANCH   6  13
ATOM     13  O   UNL     1      33.928 -22.665 -14.969  0.00  0.00    -0.449 OA
BRANCH  13  14
ATOM     14  C   UNL     1      32.650 -23.152 -14.981  0.00  0.00    +0.164 C 
ATOM     15  C   UNL     1      31.980 -23.374 -16.181  0.00  0.00    +0.177 C 
ATOM     16  C   UNL     1      32.026 -23.426 -13.767  0.00  0.00    +0.039 C 
ATOM     17  C   UNL     1      30.677 -23.873 -16.167  0.00  0.00    +0.027 C 
ATOM     18  C   UNL     1      30.724 -23.926 -13.752  0.00  0.00    +0.003 C 
ATOM     19  C   UNL     1      30.049 -24.149 -14.953  0.00  0.00    +0.002 C 
BRANCH  15  22
ATOM     20  O   UNL     1      32.237 -22.094 -18.082  0.00  0.00    -0.126 OA
ATOM     21  O   UNL     1      33.505 -23.869 -17.839  0.00  0.00    -0.126 OA
ATOM     22  N   UNL     1      32.605 -23.099 -17.428  0.00  0.00    +0.061 N 
ENDBRANCH  15  22
ENDBRANCH  13  14
ENDBRANCH   6  13
BRANCH   5  23
ATOM     23  C   UNL     1      36.356 -24.967 -11.652  0.00  0.00    +0.169 C 
BRANCH  23  24
ATOM     24  O   UNL     1      35.041 -24.966 -11.127  0.00  0.00    -0.379 OA
ATOM     25  H   UNL     1      34.595 -25.793 -11.369  0.00  0.00    +0.211 HD
ENDBRANCH  23  24
ENDBRANCH   5  23
TORSDOF 8
ENDMDL
MODEL 6
REMARK VINA RESULT:      -7.9      3.219      4.849
REMARK  Name = 96647
REMARK  8 active torsions:
REMARK  status: ('A' for Active; 'I' for Inactive)
REMARK    1  A    between atoms: C_2  and  O_7
REMARK    2  A    between atoms: C_3  and  O_9
REMARK    3  A    between atoms: C_4  and  O_11
REMARK    4  A    between atoms: C_5  and  C_23
REMARK    5  A    between atoms: C_6  and  O_13
REMARK    6  A    between atoms: O_13  and  C_14
REMARK    7  A    between atoms: C_15  and  N_22
REMARK    8  A    between atoms: C_23  and  O_24
REMARK                            x       y       z     vdW  Elec       q    Type
REMARK                         _______ _______ _______ _____ _____    ______ ____
ROOT
ATOM      1  O   UNL     1      36.072 -23.091 -16.658  0.00  0.00    -0.316 OA
ATOM      2  C   UNL     1      33.593 -23.382 -15.248  0.00  0.00    +0.173 C 
ATOM      3  C   UNL     1      34.923 -23.855 -14.660  0.00  0.00    +0.169 C 
ATOM      4  C   UNL     1      33.650 -23.342 -16.775  0.00  0.00    +0.210 C 
ATOM      5  C   UNL     1      36.070 -23.010 -15.228  0.00  0.00    +0.177 C 
ATOM      6  C   UNL     1      34.882 -22.571 -17.251  0.00  0.00    +0.318 C 
ENDROOT
BRANCH   2   7
ATOM      7  O   UNL     1      32.540 -24.252 -14.840  0.00  0.00    -0.379 OA
ATOM      8  H   UNL     1      32.602 -24.410 -13.885  0.00  0.00    +0.211 HD
ENDBRANCH   2   7
BRANCH   3   9
ATOM      9  O   UNL     1      35.140 -25.224 -15.003  0.00  0.00    -0.379 OA
ATOM     10  H   UNL     1      34.297 -25.631 -15.258  0.00  0.00    +0.211 HD
ENDBRANCH   3   9
BRANCH   4  11
ATOM     11  O   UNL     1      32.484 -22.686 -17.271  0.00  0.00    -0.377 OA
ATOM     12  H   UNL     1      32.250 -23.054 -18.137  0.00  0.00    +0.211 HD
ENDBRANCH   4  11
BRANCH   6  13
ATOM     13  O   UNL     1      34.956 -22.696 -18.671  0.00  0.00    -0.449 OA
BRANCH  13  14
ATOM     14  C   UNL     1      35.410 -21.604 -19.358  0.00  0.00    +0.164 C 
ATOM     15  C   UNL     1      34.527 -20.770 -20.039  0.00  0.00    +0.177 C 
ATOM     16  C   UNL     1      36.776 -21.337 -19.365  0.00  0.00    +0.039 C 
ATOM     17  C   UNL     1      35.015 -19.661 -20.732  0.00  0.00    +0.027 C 
ATOM     18  C   UNL     1      37.264 -20.228 -20.057  0.00  0.00    +0.003 C 
ATOM     19  C   UNL     1      36.383 -19.390 -20.741  0.00  0.00    +0.002 C 
BRANCH  15  22
ATOM     20  O   UNL     1      32.734 -22.219 -20.060  0.00  0.00    -0.126 OA
ATOM     21  O   UNL     1      32.333 -20.062 -20.022  0.00  0.00    -0.126 OA
ATOM     22  N   UNL     1      33.129 -21.029 -20.040  0.00  0.00    +0.061 N 
ENDBRANCH  15  22
ENDBRANCH  13  14
ENDBRANCH   6  13
BRANCH   5  23
ATOM     23  C   UNL     1      37.434 -23.484 -14.742  0.00  0.00    +0.169 C 
BRANCH  23  24
ATOM     24  O   UNL     1      38.363 -23.345 -15.802  0.00  0.00    -0.379 OA
ATOM     25  H   UNL     1      38.053 -22.660 -16.417  0.00  0.00    +0.211 HD
ENDBRANCH  23  24
ENDBRANCH   5  23
TORSDOF 8
ENDMDL
MODEL 7
REMARK VINA RESULT:      -7.9      3.053      4.824
REMARK  Name = 96647
REMARK  8 active torsions:
REMARK  status: ('A' for Active; 'I' for Inactive)
REMARK    1  A    between atoms: C_2  and  O_7
REMARK    2  A    between atoms: C_3  and  O_9
REMARK    3  A    between atoms: C_4  and  O_11
REMARK    4  A    between atoms: C_5  and  C_23
REMARK    5  A    between atoms: C_6  and  O_13
REMARK    6  A    between atoms: O_13  and  C_14
REMARK    7  A    between atoms: C_15  and  N_22
REMARK    8  A    between atoms: C_23  and  O_24
REMARK                            x       y       z     vdW  Elec       q    Type
REMARK                         _______ _______ _______ _____ _____    ______ ____
ROOT
ATOM      1  O   UNL     1      35.526 -23.050 -16.753  0.00  0.00    -0.316 OA
ATOM      2  C   UNL     1      33.088 -23.373 -15.279  0.00  0.00    +0.173 C 
ATOM      3  C   UNL     1      34.445 -23.782 -14.706  0.00  0.00    +0.169 C 
ATOM      4  C   UNL     1      33.111 -23.384 -16.807  0.00  0.00    +0.210 C 
ATOM      5  C   UNL     1      35.551 -22.921 -15.326  0.00  0.00    +0.177 C 
ATOM      6  C   UNL     1      34.307 -22.589 -17.336  0.00  0.00    +0.318 C 
ENDROOT
BRANCH   2   7
ATOM      7  O   UNL     1      32.073 -24.263 -14.820  0.00  0.00    -0.379 OA
ATOM      8  H   UNL     1      31.204 -23.842 -14.921  0.00  0.00    +0.211 HD
ENDBRANCH   2   7
BRANCH   3   9
ATOM      9  O   UNL     1      34.700 -25.155 -15.008  0.00  0.00    -0.379 OA
ATOM     10  H   UNL     1      34.819 -25.259 -15.965  0.00  0.00    +0.211 HD
ENDBRANCH   3   9
BRANCH   4  11
ATOM     11  O   UNL     1      31.914 -22.782 -17.299  0.00  0.00    -0.377 OA
ATOM     12  H   UNL     1      31.947 -22.741 -18.268  0.00  0.00    +0.211 HD
ENDBRANCH   4  11
BRANCH   6  13
ATOM     13  O   UNL     1      34.356 -22.760 -18.752  0.00  0.00    -0.449 OA
BRANCH  13  14
ATOM     14  C   UNL     1      34.191 -21.634 -19.510  0.00  0.00    +0.164 C 
ATOM     15  C   UNL     1      35.278 -20.833 -19.848  0.00  0.00    +0.177 C 
ATOM     16  C   UNL     1      32.910 -21.299 -19.944  0.00  0.00    +0.039 C 
ATOM     17  C   UNL     1      35.084 -19.689 -20.624  0.00  0.00    +0.027 C 
ATOM     18  C   UNL     1      32.716 -20.156 -20.720  0.00  0.00    +0.003 C 
ATOM     19  C   UNL     1      33.803 -19.351 -21.060  0.00  0.00    +0.002 C 
BRANCH  15  22
ATOM     20  O   UNL     1      36.998 -20.708 -18.317  0.00  0.00    -0.126 OA
ATOM     21  O   UNL     1      37.304 -21.896 -20.137  0.00  0.00    -0.126 OA
ATOM     22  N   UNL     1      36.591 -21.162 -19.413  0.00  0.00    +0.061 N 
ENDBRANCH  15  22
ENDBRANCH  13  14
ENDBRANCH   6  13
BRANCH   5  23
ATOM     23  C   UNL     1      36.940 -23.334 -14.855  0.00  0.00    +0.169 C 
BRANCH  23  24
ATOM     24  O   UNL     1      37.361 -24.452 -15.618  0.00  0.00    -0.379 OA
ATOM     25  H   UNL     1      38.174 -24.818 -15.233  0.00  0.00    +0.211 HD
ENDBRANCH  23  24
ENDBRANCH   5  23
TORSDOF 8
ENDMDL
MODEL 8
REMARK VINA RESULT:      -7.9      2.168      3.672
REMARK  Name = 96647
REMARK  8 active torsions:
REMARK  status: ('A' for Active; 'I' for Inactive)
REMARK    1  A    between atoms: C_2  and  O_7
REMARK    2  A    between atoms: C_3  and  O_9
REMARK    3  A    between atoms: C_4  and  O_11
REMARK    4  A    between atoms: C_5  and  C_23
REMARK    5  A    between atoms: C_6  and  O_13
REMARK    6  A    between atoms: O_13  and  C_14
REMARK    7  A    between atoms: C_15  and  N_22
REMARK    8  A    between atoms: C_23  and  O_24
REMARK                            x       y       z     vdW  Elec       q    Type
REMARK                         _______ _______ _______ _____ _____    ______ ____
ROOT
ATOM      1  O   UNL     1      36.264 -25.026 -14.644  0.00  0.00    -0.316 OA
ATOM      2  C   UNL     1      38.197 -24.542 -12.584  0.00  0.00    +0.173 C 
ATOM      3  C   UNL     1      37.825 -25.955 -13.034  0.00  0.00    +0.169 C 
ATOM      4  C   UNL     1      37.063 -23.557 -12.870  0.00  0.00    +0.210 C 
ATOM      5  C   UNL     1      37.366 -25.929 -14.496  0.00  0.00    +0.177 C 
ATOM      6  C   UNL     1      36.598 -23.676 -14.323  0.00  0.00    +0.318 C 
ENDROOT
BRANCH   2   7
ATOM      7  O   UNL     1      38.485 -24.531 -11.187  0.00  0.00    -0.379 OA
ATOM      8  H   UNL     1      38.985 -23.730 -10.967  0.00  0.00    +0.211 HD
ENDBRANCH   2   7
BRANCH   3   9
ATOM      9  O   UNL     1      36.762 -26.453 -12.221  0.00  0.00    -0.379 OA
ATOM     10  H   UNL     1      36.915 -27.391 -12.025  0.00  0.00    +0.211 HD
ENDBRANCH   3   9
BRANCH   4  11
ATOM     11  O   UNL     1      37.530 -22.227 -12.651  0.00  0.00    -0.377 OA
ATOM     12  H   UNL     1      37.088 -21.854 -11.873  0.00  0.00    +0.211 HD
ENDBRANCH   4  11
BRANCH   6  13
ATOM     13  O   UNL     1      35.449 -22.844 -14.485  0.00  0.00    -0.449 OA
BRANCH  13  14
ATOM     14  C   UNL     1      34.853 -22.857 -15.715  0.00  0.00    +0.164 C 
ATOM     15  C   UNL     1      33.522 -23.236 -15.862  0.00  0.00    +0.177 C 
ATOM     16  C   UNL     1      35.603 -22.479 -16.827  0.00  0.00    +0.039 C 
ATOM     17  C   UNL     1      32.936 -23.239 -17.128  0.00  0.00    +0.027 C 
ATOM     18  C   UNL     1      35.017 -22.481 -18.093  0.00  0.00    +0.003 C 
ATOM     19  C   UNL     1      33.683 -22.862 -18.244  0.00  0.00    +0.002 C 
BRANCH  15  22
ATOM     20  O   UNL     1      31.921 -22.807 -14.258  0.00  0.00    -0.126 OA
ATOM     21  O   UNL     1      32.904 -24.770 -14.254  0.00  0.00    -0.126 OA
ATOM     22  N   UNL     1      32.744 -23.624 -14.736  0.00  0.00    +0.061 N 
ENDBRANCH  15  22
ENDBRANCH  13  14
ENDBRANCH   6  13
BRANCH   5  23
ATOM     23  C   UNL     1      36.903 -27.297 -14.982  0.00  0.00    +0.169 C 
BRANCH  23  24
ATOM     24  O   UNL     1      36.828 -27.271 -16.397  0.00  0.00    -0.379 OA
ATOM     25  H   UNL     1      37.482 -27.886 -16.767  0.00  0.00    +0.211 HD
ENDBRANCH  23  24
ENDBRANCH   5  23
TORSDOF 8
ENDMDL
MODEL 9
REMARK VINA RESULT:      -7.9      1.679      2.062
REMARK  Name = 96647
REMARK  8 active torsions:
REMARK  status: ('A' for Active; 'I' for Inactive)
REMARK    1  A    between atoms: C_2  and  O_7
REMARK    2  A    between atoms: C_3  and  O_9
REMARK    3  A    between atoms: C_4  and  O_11
REMARK    4  A    between atoms: C_5  and  C_23
REMARK    5  A    between atoms: C_6  and  O_13
REMARK    6  A    between atoms: O_13  and  C_14
REMARK    7  A    between atoms: C_15  and  N_22
REMARK    8  A    between atoms: C_23  and  O_24
REMARK                            x       y       z     vdW  Elec       q    Type
REMARK                         _______ _______ _______ _____ _____    ______ ____
ROOT
ATOM      1  O   UNL     1      36.739 -23.116 -13.781  0.00  0.00    -0.316 OA
ATOM      2  C   UNL     1      37.118 -25.955 -13.643  0.00  0.00    +0.173 C 
ATOM      3  C   UNL     1      37.536 -25.022 -12.505  0.00  0.00    +0.169 C 
ATOM      4  C   UNL     1      37.085 -25.212 -14.978  0.00  0.00    +0.210 C 
ATOM      5  C   UNL     1      36.650 -23.771 -12.509  0.00  0.00    +0.177 C 
ATOM      6  C   UNL     1      36.268 -23.923 -14.860  0.00  0.00    +0.318 C 
ENDROOT
BRANCH   2   7
ATOM      7  O   UNL     1      38.027 -27.049 -13.738  0.00  0.00    -0.379 OA
ATOM      8  H   UNL     1      37.551 -27.838 -14.044  0.00  0.00    +0.211 HD
ENDBRANCH   2   7
BRANCH   3   9
ATOM      9  O   UNL     1      38.897 -24.629 -12.681  0.00  0.00    -0.379 OA
ATOM     10  H   UNL     1      38.939 -23.858 -13.268  0.00  0.00    +0.211 HD
ENDBRANCH   3   9
BRANCH   4  11
ATOM     11  O   UNL     1      36.477 -26.045 -15.964  0.00  0.00    -0.377 OA
ATOM     12  H   UNL     1      36.989 -26.864 -16.055  0.00  0.00    +0.211 HD
ENDBRANCH   4  11
BRANCH   6  13
ATOM     13  O   UNL     1      36.398 -23.208 -16.089  0.00  0.00    -0.449 OA
BRANCH  13  14
ATOM     14  C   UNL     1      35.245 -22.971 -16.784  0.00  0.00    +0.164 C 
ATOM     15  C   UNL     1      35.246 -22.165 -17.919  0.00  0.00    +0.177 C 
ATOM     16  C   UNL     1      34.062 -23.554 -16.336  0.00  0.00    +0.039 C 
ATOM     17  C   UNL     1      34.055 -21.940 -18.612  0.00  0.00    +0.027 C 
ATOM     18  C   UNL     1      32.872 -23.329 -17.029  0.00  0.00    +0.003 C 
ATOM     19  C   UNL     1      32.868 -22.522 -18.167  0.00  0.00    +0.002 C 
BRANCH  15  22
ATOM     20  O   UNL     1      36.814 -21.784 -19.566  0.00  0.00    -0.126 OA
ATOM     21  O   UNL     1      37.101 -20.832 -17.610  0.00  0.00    -0.126 OA
ATOM     22  N   UNL     1      36.446 -21.564 -18.388  0.00  0.00    +0.061 N 
ENDBRANCH  15  22
ENDBRANCH  13  14
ENDBRANCH   6  13
BRANCH   5  23
ATOM     23  C   UNL     1      37.068 -22.761 -11.447  0.00  0.00    +0.169 C 
BRANCH  23  24
ATOM     24  O   UNL     1      38.131 -21.979 -11.961  0.00  0.00    -0.379 OA
ATOM     25  H   UNL     1      37.800 -21.097 -12.194  0.00  0.00    +0.211 HD
ENDBRANCH  23  24
ENDBRANCH   5  23
TORSDOF 8
ENDMDL
