MODEL 1
REMARK VINA RESULT:     -10.6      0.000      0.000
REMARK  Name = 444617
REMARK  5 active torsions:
REMARK  status: ('A' for Active; 'I' for Inactive)
REMARK    1  A    between atoms: C_5  and  N_17
REMARK    2  A    between atoms: N_17  and  C_19
REMARK    3  A    between atoms: C_19  and  C_20
REMARK    4  A    between atoms: C_21  and  O_26
REMARK    5  A    between atoms: C_23  and  O_28
REMARK                            x       y       z     vdW  Elec       q    Type
REMARK                         _______ _______ _______ _____ _____    ______ ____
ROOT
ATOM      1  N   UNL     1      32.523 -20.585 -20.496  0.00  0.00    -0.180 NA
ATOM      2  N   UNL     1      32.808 -22.042 -18.720  0.00  0.00    -0.273 NA
ATOM      3  N   UNL     1      34.999 -22.610 -17.897  0.00  0.00    -0.312 NA
ATOM      4  N   UNL     1      33.078 -23.524 -16.919  0.00  0.00    -0.283 N 
ATOM      5  C   UNL     1      34.421 -19.574 -21.596  0.00  0.00    +0.069 C 
ATOM      6  C   UNL     1      35.264 -20.248 -20.731  0.00  0.00    +0.031 C 
ATOM      7  C   UNL     1      34.721 -21.090 -19.749  0.00  0.00    +0.121 C 
ATOM      8  C   UNL     1      33.066 -19.776 -21.438  0.00  0.00    +0.125 C 
ATOM      9  C   UNL     1      33.333 -21.241 -19.654  0.00  0.00    +0.105 C 
ATOM     10  C   UNL     1      35.504 -21.800 -18.843  0.00  0.00    +0.201 C 
ATOM     11  C   UNL     1      33.660 -22.683 -17.893  0.00  0.00    +0.206 C 
ATOM     12  H   UNL     1      32.099 -23.615 -16.870  0.00  0.00    +0.156 HD
ATOM     13  H   UNL     1      33.651 -24.018 -16.289  0.00  0.00    +0.156 HD
ATOM     14  N   UNL     1      36.915 -21.680 -18.896  0.00  0.00    -0.332 N 
ATOM     15  H   UNL     1      37.476 -22.178 -18.259  0.00  0.00    +0.145 HD
ATOM     16  H   UNL     1      37.334 -21.098 -19.571  0.00  0.00    +0.145 HD
ENDROOT
BRANCH   5  17
ATOM     17  N   UNL     1      34.921 -18.726 -22.594  0.00  0.00    -0.300 N 
ATOM     18  C   UNL     1      34.987 -19.164 -23.978  0.00  0.00    +0.113 C 
BRANCH  17  19
ATOM     19  C   UNL     1      35.372 -17.382 -22.268  0.00  0.00    +0.121 C 
BRANCH  19  20
ATOM     20  C   UNL     1      34.556 -16.324 -22.957  0.00  0.00    +0.035 C 
ATOM     21  C   UNL     1      33.851 -15.384 -22.214  0.00  0.00    +0.137 C 
ATOM     22  C   UNL     1      34.517 -16.304 -24.347  0.00  0.00    +0.037 C 
ATOM     23  C   UNL     1      33.765 -15.330 -25.002  0.00  0.00    +0.139 C 
ATOM     24  C   UNL     1      33.099 -14.410 -22.871  0.00  0.00    +0.040 C 
ATOM     25  C   UNL     1      33.055 -14.383 -24.265  0.00  0.00    +0.040 C 
BRANCH  21  26
ATOM     26  O   UNL     1      33.882 -15.398 -20.853  0.00  0.00    -0.472 OA
ATOM     27  C   UNL     1      32.674 -15.057 -20.174  0.00  0.00    +0.252 C 
ENDBRANCH  21  26
BRANCH  23  28
ATOM     28  O   UNL     1      33.724 -15.303 -26.362  0.00  0.00    -0.471 OA
ATOM     29  C   UNL     1      33.203 -14.123 -26.972  0.00  0.00    +0.252 C 
ENDBRANCH  23  28
ENDBRANCH  19  20
ENDBRANCH  17  19
ENDBRANCH   5  17
TORSDOF 5
ENDMDL
MODEL 2
REMARK VINA RESULT:     -10.1      0.972      2.662
REMARK  Name = 444617
REMARK  5 active torsions:
REMARK  status: ('A' for Active; 'I' for Inactive)
REMARK    1  A    between atoms: C_5  and  N_17
REMARK    2  A    between atoms: N_17  and  C_19
REMARK    3  A    between atoms: C_19  and  C_20
REMARK    4  A    between atoms: C_21  and  O_26
REMARK    5  A    between atoms: C_23  and  O_28
REMARK                            x       y       z     vdW  Elec       q    Type
REMARK                         _______ _______ _______ _____ _____    ______ ____
ROOT
ATOM      1  N   UNL     1      32.542 -20.579 -20.425  0.00  0.00    -0.180 NA
ATOM      2  N   UNL     1      32.759 -22.067 -18.664  0.00  0.00    -0.273 NA
ATOM      3  N   UNL     1      34.919 -22.692 -17.803  0.00  0.00    -0.312 NA
ATOM      4  N   UNL     1      32.958 -23.579 -16.880  0.00  0.00    -0.283 N 
ATOM      5  C   UNL     1      34.484 -19.594 -21.470  0.00  0.00    +0.069 C 
ATOM      6  C   UNL     1      35.294 -20.297 -20.596  0.00  0.00    +0.031 C 
ATOM      7  C   UNL     1      34.712 -21.140 -19.639  0.00  0.00    +0.121 C 
ATOM      8  C   UNL     1      33.122 -19.768 -21.343  0.00  0.00    +0.125 C 
ATOM      9  C   UNL     1      33.320 -21.263 -19.575  0.00  0.00    +0.105 C 
ATOM     10  C   UNL     1      35.461 -21.880 -18.726  0.00  0.00    +0.201 C 
ATOM     11  C   UNL     1      33.579 -22.737 -17.828  0.00  0.00    +0.206 C 
ATOM     12  H   UNL     1      31.977 -23.650 -16.853  0.00  0.00    +0.156 HD
ATOM     13  H   UNL     1      33.507 -24.093 -16.245  0.00  0.00    +0.156 HD
ATOM     14  N   UNL     1      36.875 -21.789 -18.748  0.00  0.00    -0.332 N 
ATOM     15  H   UNL     1      37.412 -22.308 -18.106  0.00  0.00    +0.145 HD
ATOM     16  H   UNL     1      37.320 -21.206 -19.405  0.00  0.00    +0.145 HD
ENDROOT
BRANCH   5  17
ATOM     17  N   UNL     1      35.023 -18.742 -22.445  0.00  0.00    -0.300 N 
ATOM     18  C   UNL     1      35.000 -19.112 -23.850  0.00  0.00    +0.113 C 
BRANCH  17  19
ATOM     19  C   UNL     1      35.606 -17.462 -22.071  0.00  0.00    +0.121 C 
BRANCH  19  20
ATOM     20  C   UNL     1      34.625 -16.331 -22.199  0.00  0.00    +0.035 C 
ATOM     21  C   UNL     1      34.317 -15.806 -23.449  0.00  0.00    +0.137 C 
ATOM     22  C   UNL     1      34.034 -15.819 -21.050  0.00  0.00    +0.037 C 
ATOM     23  C   UNL     1      33.122 -14.769 -21.152  0.00  0.00    +0.139 C 
ATOM     24  C   UNL     1      33.404 -14.756 -23.550  0.00  0.00    +0.040 C 
ATOM     25  C   UNL     1      32.806 -14.237 -22.402  0.00  0.00    +0.040 C 
BRANCH  21  26
ATOM     26  O   UNL     1      34.891 -16.300 -24.581  0.00  0.00    -0.472 OA
ATOM     27  C   UNL     1      34.107 -16.272 -25.772  0.00  0.00    +0.252 C 
ENDBRANCH  21  26
BRANCH  23  28
ATOM     28  O   UNL     1      32.538 -14.264 -20.031  0.00  0.00    -0.471 OA
ATOM     29  C   UNL     1      32.068 -12.918 -20.094  0.00  0.00    +0.252 C 
ENDBRANCH  23  28
ENDBRANCH  19  20
ENDBRANCH  17  19
ENDBRANCH   5  17
TORSDOF 5
ENDMDL
MODEL 3
REMARK VINA RESULT:     -10.0      5.021      7.584
REMARK  Name = 444617
REMARK  5 active torsions:
REMARK  status: ('A' for Active; 'I' for Inactive)
REMARK    1  A    between atoms: C_5  and  N_17
REMARK    2  A    between atoms: N_17  and  C_19
REMARK    3  A    between atoms: C_19  and  C_20
REMARK    4  A    between atoms: C_21  and  O_26
REMARK    5  A    between atoms: C_23  and  O_28
REMARK                            x       y       z     vdW  Elec       q    Type
REMARK                         _______ _______ _______ _____ _____    ______ ____
ROOT
ATOM      1  N   UNL     1      33.563 -14.751 -21.041  0.00  0.00    -0.180 NA
ATOM      2  N   UNL     1      34.408 -16.307 -22.533  0.00  0.00    -0.273 NA
ATOM      3  N   UNL     1      34.128 -16.053 -24.911  0.00  0.00    -0.312 NA
ATOM      4  N   UNL     1      35.270 -17.897 -24.029  0.00  0.00    -0.283 N 
ATOM      5  C   UNL     1      32.363 -12.804 -21.818  0.00  0.00    +0.069 C 
ATOM      6  C   UNL     1      32.545 -13.229 -23.122  0.00  0.00    +0.031 C 
ATOM      7  C   UNL     1      33.240 -14.421 -23.371  0.00  0.00    +0.121 C 
ATOM      8  C   UNL     1      32.889 -13.596 -20.819  0.00  0.00    +0.125 C 
ATOM      9  C   UNL     1      33.744 -15.169 -22.302  0.00  0.00    +0.105 C 
ATOM     10  C   UNL     1      33.464 -14.913 -24.655  0.00  0.00    +0.201 C 
ATOM     11  C   UNL     1      34.567 -16.691 -23.817  0.00  0.00    +0.206 C 
ATOM     12  H   UNL     1      35.616 -18.407 -23.262  0.00  0.00    +0.156 HD
ATOM     13  H   UNL     1      35.415 -18.227 -24.946  0.00  0.00    +0.156 HD
ATOM     14  N   UNL     1      32.976 -14.192 -25.773  0.00  0.00    -0.332 N 
ATOM     15  H   UNL     1      33.129 -14.533 -26.684  0.00  0.00    +0.145 HD
ATOM     16  H   UNL     1      32.484 -13.350 -25.638  0.00  0.00    +0.145 HD
ENDROOT
BRANCH   5  17
ATOM     17  N   UNL     1      31.671 -11.621 -21.523  0.00  0.00    -0.300 N 
ATOM     18  C   UNL     1      31.268 -11.316 -20.160  0.00  0.00    +0.113 C 
BRANCH  17  19
ATOM     19  C   UNL     1      31.354 -10.665 -22.573  0.00  0.00    +0.121 C 
BRANCH  19  20
ATOM     20  C   UNL     1      32.504  -9.745 -22.871  0.00  0.00    +0.035 C 
ATOM     21  C   UNL     1      32.619  -8.527 -22.212  0.00  0.00    +0.137 C 
ATOM     22  C   UNL     1      33.447 -10.132 -23.817  0.00  0.00    +0.037 C 
ATOM     23  C   UNL     1      34.520  -9.290 -24.106  0.00  0.00    +0.139 C 
ATOM     24  C   UNL     1      33.693  -7.685 -22.501  0.00  0.00    +0.040 C 
ATOM     25  C   UNL     1      34.643  -8.066 -23.449  0.00  0.00    +0.040 C 
BRANCH  21  26
ATOM     26  O   UNL     1      31.700  -8.139 -21.285  0.00  0.00    -0.472 OA
ATOM     27  C   UNL     1      32.199  -7.625 -20.052  0.00  0.00    +0.252 C 
ENDBRANCH  21  26
BRANCH  23  28
ATOM     28  O   UNL     1      35.448  -9.662 -25.029  0.00  0.00    -0.471 OA
ATOM     29  C   UNL     1      35.109 -10.748 -25.890  0.00  0.00    +0.252 C 
ENDBRANCH  23  28
ENDBRANCH  19  20
ENDBRANCH  17  19
ENDBRANCH   5  17
TORSDOF 5
ENDMDL
MODEL 4
REMARK VINA RESULT:      -9.9      4.668      7.729
REMARK  Name = 444617
REMARK  5 active torsions:
REMARK  status: ('A' for Active; 'I' for Inactive)
REMARK    1  A    between atoms: C_5  and  N_17
REMARK    2  A    between atoms: N_17  and  C_19
REMARK    3  A    between atoms: C_19  and  C_20
REMARK    4  A    between atoms: C_21  and  O_26
REMARK    5  A    between atoms: C_23  and  O_28
REMARK                            x       y       z     vdW  Elec       q    Type
REMARK                         _______ _______ _______ _____ _____    ______ ____
ROOT
ATOM      1  N   UNL     1      33.701 -15.207 -20.912  0.00  0.00    -0.180 NA
ATOM      2  N   UNL     1      34.593 -16.733 -22.408  0.00  0.00    -0.273 NA
ATOM      3  N   UNL     1      34.363 -16.446 -24.788  0.00  0.00    -0.312 NA
ATOM      4  N   UNL     1      35.502 -18.293 -23.908  0.00  0.00    -0.283 N 
ATOM      5  C   UNL     1      32.499 -13.260 -21.687  0.00  0.00    +0.069 C 
ATOM      6  C   UNL     1      32.714 -13.663 -22.993  0.00  0.00    +0.031 C 
ATOM      7  C   UNL     1      33.426 -14.845 -23.244  0.00  0.00    +0.121 C 
ATOM      8  C   UNL     1      33.010 -14.062 -20.689  0.00  0.00    +0.125 C 
ATOM      9  C   UNL     1      33.913 -15.605 -22.175  0.00  0.00    +0.105 C 
ATOM     10  C   UNL     1      33.682 -15.316 -24.530  0.00  0.00    +0.201 C 
ATOM     11  C   UNL     1      34.784 -17.096 -23.693  0.00  0.00    +0.206 C 
ATOM     12  H   UNL     1      35.836 -18.811 -23.141  0.00  0.00    +0.156 HD
ATOM     13  H   UNL     1      35.670 -18.607 -24.826  0.00  0.00    +0.156 HD
ATOM     14  N   UNL     1      33.213 -14.582 -25.648  0.00  0.00    -0.332 N 
ATOM     15  H   UNL     1      33.389 -14.908 -26.560  0.00  0.00    +0.145 HD
ATOM     16  H   UNL     1      32.710 -13.747 -25.512  0.00  0.00    +0.145 HD
ENDROOT
BRANCH   5  17
ATOM     17  N   UNL     1      31.790 -12.087 -21.390  0.00  0.00    -0.300 N 
ATOM     18  C   UNL     1      31.515 -11.714 -20.013  0.00  0.00    +0.113 C 
BRANCH  17  19
ATOM     19  C   UNL     1      31.326 -11.211 -22.455  0.00  0.00    +0.121 C 
BRANCH  19  20
ATOM     20  C   UNL     1      32.175  -9.978 -22.588  0.00  0.00    +0.035 C 
ATOM     21  C   UNL     1      33.202  -9.931 -23.523  0.00  0.00    +0.137 C 
ATOM     22  C   UNL     1      31.916  -8.891 -21.762  0.00  0.00    +0.037 C 
ATOM     23  C   UNL     1      32.695  -7.740 -21.873  0.00  0.00    +0.139 C 
ATOM     24  C   UNL     1      33.980  -8.779 -23.634  0.00  0.00    +0.040 C 
ATOM     25  C   UNL     1      33.728  -7.683 -22.809  0.00  0.00    +0.040 C 
BRANCH  21  26
ATOM     26  O   UNL     1      33.463 -10.992 -24.336  0.00  0.00    -0.472 OA
ATOM     27  C   UNL     1      34.621 -10.905 -25.164  0.00  0.00    +0.252 C 
ENDBRANCH  21  26
BRANCH  23  28
ATOM     28  O   UNL     1      32.447  -6.670 -21.069  0.00  0.00    -0.471 OA
ATOM     29  C   UNL     1      31.373  -5.809 -21.446  0.00  0.00    +0.252 C 
ENDBRANCH  23  28
ENDBRANCH  19  20
ENDBRANCH  17  19
ENDBRANCH   5  17
TORSDOF 5
ENDMDL
MODEL 5
REMARK VINA RESULT:      -9.8      4.742      8.436
REMARK  Name = 444617
REMARK  5 active torsions:
REMARK  status: ('A' for Active; 'I' for Inactive)
REMARK    1  A    between atoms: C_5  and  N_17
REMARK    2  A    between atoms: N_17  and  C_19
REMARK    3  A    between atoms: C_19  and  C_20
REMARK    4  A    between atoms: C_21  and  O_26
REMARK    5  A    between atoms: C_23  and  O_28
REMARK                            x       y       z     vdW  Elec       q    Type
REMARK                         _______ _______ _______ _____ _____    ______ ____
ROOT
ATOM      1  N   UNL     1      31.330 -11.656 -21.007  0.00  0.00    -0.180 NA
ATOM      2  N   UNL     1      31.421  -9.703 -22.248  0.00  0.00    -0.273 NA
ATOM      3  N   UNL     1      32.915  -9.471 -24.122  0.00  0.00    -0.312 NA
ATOM      4  N   UNL     1      31.502  -7.714 -23.491  0.00  0.00    -0.283 N 
ATOM      5  C   UNL     1      32.736 -13.544 -21.550  0.00  0.00    +0.069 C 
ATOM      6  C   UNL     1      33.277 -12.822 -22.599  0.00  0.00    +0.031 C 
ATOM      7  C   UNL     1      32.833 -11.514 -22.841  0.00  0.00    +0.121 C 
ATOM      8  C   UNL     1      31.771 -12.919 -20.789  0.00  0.00    +0.125 C 
ATOM      9  C   UNL     1      31.849 -10.950 -22.022  0.00  0.00    +0.105 C 
ATOM     10  C   UNL     1      33.329 -10.725 -23.877  0.00  0.00    +0.201 C 
ATOM     11  C   UNL     1      31.971  -9.029 -23.279  0.00  0.00    +0.206 C 
ATOM     12  H   UNL     1      30.809  -7.337 -22.903  0.00  0.00    +0.156 HD
ATOM     13  H   UNL     1      31.868  -7.174 -24.229  0.00  0.00    +0.156 HD
ATOM     14  N   UNL     1      34.326 -11.250 -24.737  0.00  0.00    -0.332 N 
ATOM     15  H   UNL     1      34.682 -10.700 -25.471  0.00  0.00    +0.145 HD
ATOM     16  H   UNL     1      34.662 -12.165 -24.599  0.00  0.00    +0.145 HD
ENDROOT
BRANCH   5  17
ATOM     17  N   UNL     1      33.153 -14.853 -21.270  0.00  0.00    -0.300 N 
ATOM     18  C   UNL     1      32.243 -15.807 -20.658  0.00  0.00    +0.113 C 
BRANCH  17  19
ATOM     19  C   UNL     1      34.501 -15.289 -21.598  0.00  0.00    +0.121 C 
BRANCH  19  20
ATOM     20  C   UNL     1      34.532 -16.183 -22.806  0.00  0.00    +0.035 C 
ATOM     21  C   UNL     1      34.969 -17.498 -22.696  0.00  0.00    +0.137 C 
ATOM     22  C   UNL     1      34.119 -15.673 -24.032  0.00  0.00    +0.037 C 
ATOM     23  C   UNL     1      34.142 -16.489 -25.161  0.00  0.00    +0.139 C 
ATOM     24  C   UNL     1      34.992 -18.314 -23.826  0.00  0.00    +0.040 C 
ATOM     25  C   UNL     1      34.579 -17.810 -25.060  0.00  0.00    +0.040 C 
BRANCH  21  26
ATOM     26  O   UNL     1      35.377 -18.005 -21.499  0.00  0.00    -0.472 OA
ATOM     27  C   UNL     1      34.638 -19.108 -20.977  0.00  0.00    +0.252 C 
ENDBRANCH  21  26
BRANCH  23  28
ATOM     28  O   UNL     1      33.737 -15.998 -26.364  0.00  0.00    -0.471 OA
ATOM     29  C   UNL     1      32.886 -14.854 -26.346  0.00  0.00    +0.252 C 
ENDBRANCH  23  28
ENDBRANCH  19  20
ENDBRANCH  17  19
ENDBRANCH   5  17
TORSDOF 5
ENDMDL
MODEL 6
REMARK VINA RESULT:      -9.8      1.270      3.461
REMARK  Name = 444617
REMARK  5 active torsions:
REMARK  status: ('A' for Active; 'I' for Inactive)
REMARK    1  A    between atoms: C_5  and  N_17
REMARK    2  A    between atoms: N_17  and  C_19
REMARK    3  A    between atoms: C_19  and  C_20
REMARK    4  A    between atoms: C_21  and  O_26
REMARK    5  A    between atoms: C_23  and  O_28
REMARK                            x       y       z     vdW  Elec       q    Type
REMARK                         _______ _______ _______ _____ _____    ______ ____
ROOT
ATOM      1  N   UNL     1      37.084 -19.364 -20.816  0.00  0.00    -0.180 NA
ATOM      2  N   UNL     1      36.596 -20.867 -19.123  0.00  0.00    -0.273 NA
ATOM      3  N   UNL     1      34.379 -21.761 -18.833  0.00  0.00    -0.312 NA
ATOM      4  N   UNL     1      36.120 -22.388 -17.400  0.00  0.00    -0.283 N 
ATOM      5  C   UNL     1      35.378 -18.632 -22.361  0.00  0.00    +0.069 C 
ATOM      6  C   UNL     1      34.459 -19.432 -21.706  0.00  0.00    +0.031 C 
ATOM      7  C   UNL     1      34.868 -20.195 -20.603  0.00  0.00    +0.121 C 
ATOM      8  C   UNL     1      36.670 -18.634 -21.880  0.00  0.00    +0.125 C 
ATOM      9  C   UNL     1      36.200 -20.142 -20.175  0.00  0.00    +0.105 C 
ATOM     10  C   UNL     1      34.003 -21.024 -19.892  0.00  0.00    +0.201 C 
ATOM     11  C   UNL     1      35.673 -21.636 -18.508  0.00  0.00    +0.206 C 
ATOM     12  H   UNL     1      37.062 -22.336 -17.116  0.00  0.00    +0.156 HD
ATOM     13  H   UNL     1      35.491 -22.966 -16.911  0.00  0.00    +0.156 HD
ATOM     14  N   UNL     1      32.645 -21.115 -20.286  0.00  0.00    -0.332 N 
ATOM     15  H   UNL     1      32.026 -21.698 -19.789  0.00  0.00    +0.145 HD
ATOM     16  H   UNL     1      32.320 -20.595 -21.056  0.00  0.00    +0.145 HD
ENDROOT
BRANCH   5  17
ATOM     17  N   UNL     1      35.012 -17.850 -23.467  0.00  0.00    -0.300 N 
ATOM     18  C   UNL     1      34.157 -18.392 -24.510  0.00  0.00    +0.113 C 
BRANCH  17  19
ATOM     19  C   UNL     1      35.469 -16.474 -23.586  0.00  0.00    +0.121 C 
BRANCH  19  20
ATOM     20  C   UNL     1      34.373 -15.485 -23.304  0.00  0.00    +0.035 C 
ATOM     21  C   UNL     1      33.668 -14.901 -24.350  0.00  0.00    +0.137 C 
ATOM     22  C   UNL     1      34.081 -15.163 -21.983  0.00  0.00    +0.037 C 
ATOM     23  C   UNL     1      33.068 -14.246 -21.705  0.00  0.00    +0.139 C 
ATOM     24  C   UNL     1      32.654 -13.984 -24.070  0.00  0.00    +0.040 C 
ATOM     25  C   UNL     1      32.354 -13.656 -22.748  0.00  0.00    +0.040 C 
BRANCH  21  26
ATOM     26  O   UNL     1      33.948 -15.209 -25.646  0.00  0.00    -0.472 OA
ATOM     27  C   UNL     1      32.939 -14.927 -26.613  0.00  0.00    +0.252 C 
ENDBRANCH  21  26
BRANCH  23  28
ATOM     28  O   UNL     1      32.774 -13.927 -20.415  0.00  0.00    -0.471 OA
ATOM     29  C   UNL     1      32.055 -12.714 -20.194  0.00  0.00    +0.252 C 
ENDBRANCH  23  28
ENDBRANCH  19  20
ENDBRANCH  17  19
ENDBRANCH   5  17
TORSDOF 5
ENDMDL
MODEL 7
REMARK VINA RESULT:      -9.8      1.099      2.082
REMARK  Name = 444617
REMARK  5 active torsions:
REMARK  status: ('A' for Active; 'I' for Inactive)
REMARK    1  A    between atoms: C_5  and  N_17
REMARK    2  A    between atoms: N_17  and  C_19
REMARK    3  A    between atoms: C_19  and  C_20
REMARK    4  A    between atoms: C_21  and  O_26
REMARK    5  A    between atoms: C_23  and  O_28
REMARK                            x       y       z     vdW  Elec       q    Type
REMARK                         _______ _______ _______ _____ _____    ______ ____
ROOT
ATOM      1  N   UNL     1      37.184 -20.029 -19.613  0.00  0.00    -0.180 NA
ATOM      2  N   UNL     1      36.743 -21.517 -17.894  0.00  0.00    -0.273 NA
ATOM      3  N   UNL     1      34.670 -22.737 -17.785  0.00  0.00    -0.312 NA
ATOM      4  N   UNL     1      36.314 -23.020 -16.142  0.00  0.00    -0.283 N 
ATOM      5  C   UNL     1      35.572 -19.643 -21.369  0.00  0.00    +0.069 C 
ATOM      6  C   UNL     1      34.718 -20.550 -20.767  0.00  0.00    +0.031 C 
ATOM      7  C   UNL     1      35.111 -21.191 -19.584  0.00  0.00    +0.121 C 
ATOM      8  C   UNL     1      36.786 -19.420 -20.756  0.00  0.00    +0.125 C 
ATOM      9  C   UNL     1      36.362 -20.909 -19.023  0.00  0.00    +0.105 C 
ATOM     10  C   UNL     1      34.308 -22.114 -18.919  0.00  0.00    +0.201 C 
ATOM     11  C   UNL     1      35.885 -22.395 -17.334  0.00  0.00    +0.206 C 
ATOM     12  H   UNL     1      37.198 -22.807 -15.765  0.00  0.00    +0.156 HD
ATOM     13  H   UNL     1      35.729 -23.669 -15.689  0.00  0.00    +0.156 HD
ATOM     14  N   UNL     1      33.033 -22.436 -19.447  0.00  0.00    -0.332 N 
ATOM     15  H   UNL     1      32.458 -23.088 -18.984  0.00  0.00    +0.145 HD
ATOM     16  H   UNL     1      32.721 -22.007 -20.277  0.00  0.00    +0.145 HD
ENDROOT
BRANCH   5  17
ATOM     17  N   UNL     1      35.218 -18.976 -22.551  0.00  0.00    -0.300 N 
ATOM     18  C   UNL     1      34.157 -19.488 -23.403  0.00  0.00    +0.113 C 
BRANCH  17  19
ATOM     19  C   UNL     1      35.896 -17.751 -22.943  0.00  0.00    +0.121 C 
BRANCH  19  20
ATOM     20  C   UNL     1      34.935 -16.693 -23.409  0.00  0.00    +0.035 C 
ATOM     21  C   UNL     1      34.233 -15.926 -22.486  0.00  0.00    +0.137 C 
ATOM     22  C   UNL     1      34.760 -16.496 -24.774  0.00  0.00    +0.037 C 
ATOM     23  C   UNL     1      33.873 -15.519 -25.222  0.00  0.00    +0.139 C 
ATOM     24  C   UNL     1      33.346 -14.948 -22.935  0.00  0.00    +0.040 C 
ATOM     25  C   UNL     1      33.165 -14.744 -24.303  0.00  0.00    +0.040 C 
BRANCH  21  26
ATOM     26  O   UNL     1      34.397 -16.112 -21.147  0.00  0.00    -0.472 OA
ATOM     27  C   UNL     1      34.605 -14.947 -20.350  0.00  0.00    +0.252 C 
ENDBRANCH  21  26
BRANCH  23  28
ATOM     28  O   UNL     1      33.697 -15.319 -26.556  0.00  0.00    -0.471 OA
ATOM     29  C   UNL     1      33.127 -14.074 -26.957  0.00  0.00    +0.252 C 
ENDBRANCH  23  28
ENDBRANCH  19  20
ENDBRANCH  17  19
ENDBRANCH   5  17
TORSDOF 5
ENDMDL
MODEL 8
REMARK VINA RESULT:      -9.8      4.607      6.980
REMARK  Name = 444617
REMARK  5 active torsions:
REMARK  status: ('A' for Active; 'I' for Inactive)
REMARK    1  A    between atoms: C_5  and  N_17
REMARK    2  A    between atoms: N_17  and  C_19
REMARK    3  A    between atoms: C_19  and  C_20
REMARK    4  A    between atoms: C_21  and  O_26
REMARK    5  A    between atoms: C_23  and  O_28
REMARK                            x       y       z     vdW  Elec       q    Type
REMARK                         _______ _______ _______ _____ _____    ______ ____
ROOT
ATOM      1  N   UNL     1      33.085 -14.439 -24.253  0.00  0.00    -0.180 NA
ATOM      2  N   UNL     1      34.356 -16.362 -24.035  0.00  0.00    -0.273 NA
ATOM      3  N   UNL     1      35.202 -17.077 -21.897  0.00  0.00    -0.312 NA
ATOM      4  N   UNL     1      35.646 -18.313 -23.835  0.00  0.00    -0.283 N 
ATOM      5  C   UNL     1      32.557 -13.071 -22.333  0.00  0.00    +0.069 C 
ATOM      6  C   UNL     1      33.264 -13.948 -21.530  0.00  0.00    +0.031 C 
ATOM      7  C   UNL     1      33.879 -15.070 -22.104  0.00  0.00    +0.121 C 
ATOM      8  C   UNL     1      32.498 -13.360 -23.680  0.00  0.00    +0.125 C 
ATOM      9  C   UNL     1      33.772 -15.293 -23.482  0.00  0.00    +0.105 C 
ATOM     10  C   UNL     1      34.607 -15.998 -21.363  0.00  0.00    +0.201 C 
ATOM     11  C   UNL     1      35.038 -17.196 -23.222  0.00  0.00    +0.206 C 
ATOM     12  H   UNL     1      35.558 -18.451 -24.806  0.00  0.00    +0.156 HD
ATOM     13  H   UNL     1      36.157 -18.955 -23.292  0.00  0.00    +0.156 HD
ATOM     14  N   UNL     1      34.743 -15.818 -19.963  0.00  0.00    -0.332 N 
ATOM     15  H   UNL     1      35.256 -16.469 -19.431  0.00  0.00    +0.145 HD
ATOM     16  H   UNL     1      34.325 -15.043 -19.524  0.00  0.00    +0.145 HD
ENDROOT
BRANCH   5  17
ATOM     17  N   UNL     1      31.929 -11.935 -21.802  0.00  0.00    -0.300 N 
ATOM     18  C   UNL     1      31.700 -11.813 -20.372  0.00  0.00    +0.113 C 
BRANCH  17  19
ATOM     19  C   UNL     1      31.506 -10.847 -22.670  0.00  0.00    +0.121 C 
BRANCH  19  20
ATOM     20  C   UNL     1      32.621  -9.881 -22.957  0.00  0.00    +0.035 C 
ATOM     21  C   UNL     1      32.680  -8.660 -22.294  0.00  0.00    +0.137 C 
ATOM     22  C   UNL     1      33.587 -10.227 -23.894  0.00  0.00    +0.037 C 
ATOM     23  C   UNL     1      34.628  -9.342 -24.172  0.00  0.00    +0.139 C 
ATOM     24  C   UNL     1      33.722  -7.775 -22.572  0.00  0.00    +0.040 C 
ATOM     25  C   UNL     1      34.696  -8.115 -23.511  0.00  0.00    +0.040 C 
BRANCH  21  26
ATOM     26  O   UNL     1      31.737  -8.312 -21.375  0.00  0.00    -0.472 OA
ATOM     27  C   UNL     1      32.188  -8.074 -20.043  0.00  0.00    +0.252 C 
ENDBRANCH  21  26
BRANCH  23  28
ATOM     28  O   UNL     1      35.579  -9.674 -25.087  0.00  0.00    -0.471 OA
ATOM     29  C   UNL     1      35.236 -10.672 -26.047  0.00  0.00    +0.252 C 
ENDBRANCH  23  28
ENDBRANCH  19  20
ENDBRANCH  17  19
ENDBRANCH   5  17
TORSDOF 5
ENDMDL
MODEL 9
REMARK VINA RESULT:      -9.6      4.217      6.405
REMARK  Name = 444617
REMARK  5 active torsions:
REMARK  status: ('A' for Active; 'I' for Inactive)
REMARK    1  A    between atoms: C_5  and  N_17
REMARK    2  A    between atoms: N_17  and  C_19
REMARK    3  A    between atoms: C_19  and  C_20
REMARK    4  A    between atoms: C_21  and  O_26
REMARK    5  A    between atoms: C_23  and  O_28
REMARK                            x       y       z     vdW  Elec       q    Type
REMARK                         _______ _______ _______ _____ _____    ______ ____
ROOT
ATOM      1  N   UNL     1      34.118 -15.006 -20.558  0.00  0.00    -0.180 NA
ATOM      2  N   UNL     1      35.135 -17.086 -20.610  0.00  0.00    -0.273 NA
ATOM      3  N   UNL     1      35.721 -18.149 -22.690  0.00  0.00    -0.312 NA
ATOM      4  N   UNL     1      36.163 -19.196 -20.643  0.00  0.00    -0.283 N 
ATOM      5  C   UNL     1      33.604 -13.820 -22.598  0.00  0.00    +0.069 C 
ATOM      6  C   UNL     1      34.139 -14.867 -23.327  0.00  0.00    +0.031 C 
ATOM      7  C   UNL     1      34.661 -15.982 -22.655  0.00  0.00    +0.121 C 
ATOM      8  C   UNL     1      33.617 -13.937 -21.225  0.00  0.00    +0.125 C 
ATOM      9  C   UNL     1      34.638 -16.025 -21.257  0.00  0.00    +0.105 C 
ATOM     10  C   UNL     1      35.216 -17.074 -23.318  0.00  0.00    +0.201 C 
ATOM     11  C   UNL     1      35.648 -18.089 -21.352  0.00  0.00    +0.206 C 
ATOM     12  H   UNL     1      36.137 -19.205 -19.659  0.00  0.00    +0.156 HD
ATOM     13  H   UNL     1      36.549 -19.957 -21.132  0.00  0.00    +0.156 HD
ATOM     14  N   UNL     1      35.266 -17.078 -24.735  0.00  0.00    -0.332 N 
ATOM     15  H   UNL     1      35.656 -17.846 -25.211  0.00  0.00    +0.145 HD
ATOM     16  H   UNL     1      34.909 -16.313 -25.241  0.00  0.00    +0.145 HD
ENDROOT
BRANCH   5  17
ATOM     17  N   UNL     1      33.067 -12.687 -23.229  0.00  0.00    -0.300 N 
ATOM     18  C   UNL     1      33.692 -12.133 -24.418  0.00  0.00    +0.113 C 
BRANCH  17  19
ATOM     19  C   UNL     1      31.865 -12.052 -22.713  0.00  0.00    +0.121 C 
BRANCH  19  20
ATOM     20  C   UNL     1      32.124 -10.654 -22.226  0.00  0.00    +0.035 C 
ATOM     21  C   UNL     1      31.922 -10.327 -20.890  0.00  0.00    +0.137 C 
ATOM     22  C   UNL     1      32.566  -9.696 -23.132  0.00  0.00    +0.037 C 
ATOM     23  C   UNL     1      32.810  -8.395 -22.695  0.00  0.00    +0.139 C 
ATOM     24  C   UNL     1      32.167  -9.025 -20.454  0.00  0.00    +0.040 C 
ATOM     25  C   UNL     1      32.611  -8.058 -21.356  0.00  0.00    +0.040 C 
BRANCH  21  26
ATOM     26  O   UNL     1      31.488 -11.258 -19.996  0.00  0.00    -0.472 OA
ATOM     27  C   UNL     1      31.260 -10.816 -18.659  0.00  0.00    +0.252 C 
ENDBRANCH  21  26
BRANCH  23  28
ATOM     28  O   UNL     1      33.245  -7.452 -23.576  0.00  0.00    -0.471 OA
ATOM     29  C   UNL     1      34.652  -7.372 -23.800  0.00  0.00    +0.252 C 
ENDBRANCH  23  28
ENDBRANCH  19  20
ENDBRANCH  17  19
ENDBRANCH   5  17
TORSDOF 5
ENDMDL
