MODEL 1
REMARK VINA RESULT:      -4.9      0.000      0.000
REMARK  Name = 5288834
REMARK  4 active torsions:
REMARK  status: ('A' for Active; 'I' for Inactive)
REMARK    1  A    between atoms: C_1  and  O_4
REMARK    2  A    between atoms: C_1  and  C_6
REMARK    3  A    between atoms: C_6  and  C_7
REMARK    4  A    between atoms: C_7  and  O_9
REMARK                            x       y       z     vdW  Elec       q    Type
REMARK                         _______ _______ _______ _____ _____    ______ ____
ROOT
ATOM      1  C   UNL     1      35.408 -18.662 -21.357  0.00  0.00    +0.091 C 
ATOM      2  C   UNL     1      34.071 -19.375 -21.118  0.00  0.00    +0.029 C 
ATOM      3  C   UNL     1      36.533 -19.445 -20.680  0.00  0.00    +0.029 C 
ENDROOT
BRANCH   1   4
ATOM      4  O   UNL     1      35.335 -17.384 -20.725  0.00  0.00    -0.387 OA
ATOM      5  H   UNL     1      35.981 -17.344 -20.003  0.00  0.00    +0.210 HD
ENDBRANCH   1   4
BRANCH   1   6
ATOM      6  C   UNL     1      35.642 -18.489 -22.876  0.00  0.00    +0.056 C 
BRANCH   6   7
ATOM      7  C   UNL     1      34.893 -17.323 -23.544  0.00  0.00    +0.113 C 
ATOM      8  C   UNL     1      34.614 -17.626 -25.011  0.00  0.00    +0.032 C 
BRANCH   7   9
ATOM      9  O   UNL     1      35.667 -16.129 -23.494  0.00  0.00    -0.384 OA
ATOM     10  H   UNL     1      36.210 -16.063 -24.295  0.00  0.00    +0.210 HD
ENDBRANCH   7   9
ENDBRANCH   6   7
ENDBRANCH   1   6
TORSDOF 4
ENDMDL
MODEL 2
REMARK VINA RESULT:      -4.7      1.636      3.634
REMARK  Name = 5288834
REMARK  4 active torsions:
REMARK  status: ('A' for Active; 'I' for Inactive)
REMARK    1  A    between atoms: C_1  and  O_4
REMARK    2  A    between atoms: C_1  and  C_6
REMARK    3  A    between atoms: C_6  and  C_7
REMARK    4  A    between atoms: C_7  and  O_9
REMARK                            x       y       z     vdW  Elec       q    Type
REMARK                         _______ _______ _______ _____ _____    ______ ____
ROOT
ATOM      1  C   UNL     1      35.187 -17.981 -22.993  0.00  0.00    +0.091 C 
ATOM      2  C   UNL     1      34.770 -18.911 -24.140  0.00  0.00    +0.029 C 
ATOM      3  C   UNL     1      35.010 -16.525 -23.424  0.00  0.00    +0.029 C 
ENDROOT
BRANCH   1   4
ATOM      4  O   UNL     1      36.578 -18.190 -22.751  0.00  0.00    -0.387 OA
ATOM      5  H   UNL     1      36.716 -18.402 -21.815  0.00  0.00    +0.210 HD
ENDBRANCH   1   4
BRANCH   1   6
ATOM      6  C   UNL     1      34.372 -18.323 -21.723  0.00  0.00    +0.056 C 
BRANCH   6   7
ATOM      7  C   UNL     1      34.544 -19.751 -21.177  0.00  0.00    +0.113 C 
ATOM      8  C   UNL     1      33.297 -20.196 -20.422  0.00  0.00    +0.032 C 
BRANCH   7   9
ATOM      9  O   UNL     1      35.639 -19.819 -20.272  0.00  0.00    -0.384 OA
ATOM     10  H   UNL     1      36.370 -19.278 -20.607  0.00  0.00    +0.210 HD
ENDBRANCH   7   9
ENDBRANCH   6   7
ENDBRANCH   1   6
TORSDOF 4
ENDMDL
MODEL 3
REMARK VINA RESULT:      -4.5      0.929      1.406
REMARK  Name = 5288834
REMARK  4 active torsions:
REMARK  status: ('A' for Active; 'I' for Inactive)
REMARK    1  A    between atoms: C_1  and  O_4
REMARK    2  A    between atoms: C_1  and  C_6
REMARK    3  A    between atoms: C_6  and  C_7
REMARK    4  A    between atoms: C_7  and  O_9
REMARK                            x       y       z     vdW  Elec       q    Type
REMARK                         _______ _______ _______ _____ _____    ______ ____
ROOT
ATOM      1  C   UNL     1      35.037 -18.397 -21.381  0.00  0.00    +0.091 C 
ATOM      2  C   UNL     1      34.517 -17.016 -20.960  0.00  0.00    +0.029 C 
ATOM      3  C   UNL     1      33.939 -19.441 -21.176  0.00  0.00    +0.029 C 
ENDROOT
BRANCH   1   4
ATOM      4  O   UNL     1      36.118 -18.735 -20.512  0.00  0.00    -0.387 OA
ATOM      5  H   UNL     1      36.820 -18.072 -20.597  0.00  0.00    +0.210 HD
ENDBRANCH   1   4
BRANCH   1   6
ATOM      6  C   UNL     1      35.532 -18.342 -22.846  0.00  0.00    +0.056 C 
BRANCH   6   7
ATOM      7  C   UNL     1      34.860 -17.290 -23.745  0.00  0.00    +0.113 C 
ATOM      8  C   UNL     1      34.542 -17.873 -25.116  0.00  0.00    +0.032 C 
BRANCH   7   9
ATOM      9  O   UNL     1      35.717 -16.172 -23.944  0.00  0.00    -0.384 OA
ATOM     10  H   UNL     1      36.467 -16.434 -24.500  0.00  0.00    +0.210 HD
ENDBRANCH   7   9
ENDBRANCH   6   7
ENDBRANCH   1   6
TORSDOF 4
ENDMDL
MODEL 4
REMARK VINA RESULT:      -4.4      2.416      3.589
REMARK  Name = 5288834
REMARK  4 active torsions:
REMARK  status: ('A' for Active; 'I' for Inactive)
REMARK    1  A    between atoms: C_1  and  O_4
REMARK    2  A    between atoms: C_1  and  C_6
REMARK    3  A    between atoms: C_6  and  C_7
REMARK    4  A    between atoms: C_7  and  O_9
REMARK                            x       y       z     vdW  Elec       q    Type
REMARK                         _______ _______ _______ _____ _____    ______ ____
ROOT
ATOM      1  C   UNL     1      34.018 -15.690 -21.094  0.00  0.00    +0.091 C 
ATOM      2  C   UNL     1      34.464 -15.003 -22.390  0.00  0.00    +0.029 C 
ATOM      3  C   UNL     1      32.708 -15.068 -20.608  0.00  0.00    +0.029 C 
ENDROOT
BRANCH   1   4
ATOM      4  O   UNL     1      35.010 -15.427 -20.101  0.00  0.00    -0.387 OA
ATOM      5  H   UNL     1      35.446 -14.582 -20.296  0.00  0.00    +0.210 HD
ENDBRANCH   1   4
BRANCH   1   6
ATOM      6  C   UNL     1      33.895 -17.214 -21.327  0.00  0.00    +0.056 C 
BRANCH   6   7
ATOM      7  C   UNL     1      35.193 -17.943 -21.713  0.00  0.00    +0.113 C 
ATOM      8  C   UNL     1      34.891 -19.190 -22.535  0.00  0.00    +0.032 C 
BRANCH   7   9
ATOM      9  O   UNL     1      35.904 -18.359 -20.553  0.00  0.00    -0.384 OA
ATOM     10  H   UNL     1      36.629 -18.948 -20.812  0.00  0.00    +0.210 HD
ENDBRANCH   7   9
ENDBRANCH   6   7
ENDBRANCH   1   6
TORSDOF 4
ENDMDL
MODEL 5
REMARK VINA RESULT:      -4.4      2.199      4.200
REMARK  Name = 5288834
REMARK  4 active torsions:
REMARK  status: ('A' for Active; 'I' for Inactive)
REMARK    1  A    between atoms: C_1  and  O_4
REMARK    2  A    between atoms: C_1  and  C_6
REMARK    3  A    between atoms: C_6  and  C_7
REMARK    4  A    between atoms: C_7  and  O_9
REMARK                            x       y       z     vdW  Elec       q    Type
REMARK                         _______ _______ _______ _____ _____    ______ ____
ROOT
ATOM      1  C   UNL     1      34.962 -19.103 -21.642  0.00  0.00    +0.091 C 
ATOM      2  C   UNL     1      36.366 -18.537 -21.399  0.00  0.00    +0.029 C 
ATOM      3  C   UNL     1      34.737 -19.289 -23.142  0.00  0.00    +0.029 C 
ENDROOT
BRANCH   1   4
ATOM      4  O   UNL     1      34.020 -18.133 -21.184  0.00  0.00    -0.387 OA
ATOM      5  H   UNL     1      33.120 -18.477 -21.298  0.00  0.00    +0.210 HD
ENDBRANCH   1   4
BRANCH   1   6
ATOM      6  C   UNL     1      34.788 -20.422 -20.852  0.00  0.00    +0.056 C 
BRANCH   6   7
ATOM      7  C   UNL     1      33.504 -20.541 -20.014  0.00  0.00    +0.113 C 
ATOM      8  C   UNL     1      33.473 -21.861 -19.254  0.00  0.00    +0.032 C 
BRANCH   7   9
ATOM      9  O   UNL     1      32.350 -20.500 -20.845  0.00  0.00    -0.384 OA
ATOM     10  H   UNL     1      32.322 -21.295 -21.399  0.00  0.00    +0.210 HD
ENDBRANCH   7   9
ENDBRANCH   6   7
ENDBRANCH   1   6
TORSDOF 4
ENDMDL
MODEL 6
REMARK VINA RESULT:      -4.3      2.055      2.938
REMARK  Name = 5288834
REMARK  4 active torsions:
REMARK  status: ('A' for Active; 'I' for Inactive)
REMARK    1  A    between atoms: C_1  and  O_4
REMARK    2  A    between atoms: C_1  and  C_6
REMARK    3  A    between atoms: C_6  and  C_7
REMARK    4  A    between atoms: C_7  and  O_9
REMARK                            x       y       z     vdW  Elec       q    Type
REMARK                         _______ _______ _______ _____ _____    ______ ____
ROOT
ATOM      1  C   UNL     1      35.310 -18.021 -22.655  0.00  0.00    +0.091 C 
ATOM      2  C   UNL     1      34.789 -18.883 -21.498  0.00  0.00    +0.029 C 
ATOM      3  C   UNL     1      34.743 -18.540 -23.976  0.00  0.00    +0.029 C 
ENDROOT
BRANCH   1   4
ATOM      4  O   UNL     1      36.728 -18.179 -22.706  0.00  0.00    -0.387 OA
ATOM      5  H   UNL     1      36.988 -18.943 -22.167  0.00  0.00    +0.210 HD
ENDBRANCH   1   4
BRANCH   1   6
ATOM      6  C   UNL     1      34.952 -16.537 -22.402  0.00  0.00    +0.056 C 
BRANCH   6   7
ATOM      7  C   UNL     1      34.152 -16.247 -21.121  0.00  0.00    +0.113 C 
ATOM      8  C   UNL     1      32.932 -15.387 -21.427  0.00  0.00    +0.032 C 
BRANCH   7   9
ATOM      9  O   UNL     1      34.947 -15.540 -20.177  0.00  0.00    -0.384 OA
ATOM     10  H   UNL     1      34.731 -15.842 -19.281  0.00  0.00    +0.210 HD
ENDBRANCH   7   9
ENDBRANCH   6   7
ENDBRANCH   1   6
TORSDOF 4
ENDMDL
MODEL 7
REMARK VINA RESULT:      -4.3      1.997      2.692
REMARK  Name = 5288834
REMARK  4 active torsions:
REMARK  status: ('A' for Active; 'I' for Inactive)
REMARK    1  A    between atoms: C_1  and  O_4
REMARK    2  A    between atoms: C_1  and  C_6
REMARK    3  A    between atoms: C_6  and  C_7
REMARK    4  A    between atoms: C_7  and  O_9
REMARK                            x       y       z     vdW  Elec       q    Type
REMARK                         _______ _______ _______ _____ _____    ______ ____
ROOT
ATOM      1  C   UNL     1      34.595 -19.038 -21.404  0.00  0.00    +0.091 C 
ATOM      2  C   UNL     1      36.068 -19.086 -20.978  0.00  0.00    +0.029 C 
ATOM      3  C   UNL     1      33.814 -20.130 -20.672  0.00  0.00    +0.029 C 
ENDROOT
BRANCH   1   4
ATOM      4  O   UNL     1      34.539 -19.335 -22.800  0.00  0.00    -0.387 OA
ATOM      5  H   UNL     1      33.613 -19.382 -23.083  0.00  0.00    +0.210 HD
ENDBRANCH   1   4
BRANCH   1   6
ATOM      6  C   UNL     1      34.022 -17.626 -21.140  0.00  0.00    +0.056 C 
BRANCH   6   7
ATOM      7  C   UNL     1      34.974 -16.451 -21.418  0.00  0.00    +0.113 C 
ATOM      8  C   UNL     1      34.457 -15.170 -20.774  0.00  0.00    +0.032 C 
BRANCH   7   9
ATOM      9  O   UNL     1      35.087 -16.209 -22.816  0.00  0.00    -0.384 OA
ATOM     10  H   UNL     1      35.997 -15.949 -23.027  0.00  0.00    +0.210 HD
ENDBRANCH   7   9
ENDBRANCH   6   7
ENDBRANCH   1   6
TORSDOF 4
ENDMDL
MODEL 8
REMARK VINA RESULT:      -4.3     10.547     11.610
REMARK  Name = 5288834
REMARK  4 active torsions:
REMARK  status: ('A' for Active; 'I' for Inactive)
REMARK    1  A    between atoms: C_1  and  O_4
REMARK    2  A    between atoms: C_1  and  C_6
REMARK    3  A    between atoms: C_6  and  C_7
REMARK    4  A    between atoms: C_7  and  O_9
REMARK                            x       y       z     vdW  Elec       q    Type
REMARK                         _______ _______ _______ _____ _____    ______ ____
ROOT
ATOM      1  C   UNL     1      37.899 -24.505 -14.263  0.00  0.00    +0.091 C 
ATOM      2  C   UNL     1      38.913 -25.232 -13.370  0.00  0.00    +0.029 C 
ATOM      3  C   UNL     1      36.943 -25.524 -14.885  0.00  0.00    +0.029 C 
ENDROOT
BRANCH   1   4
ATOM      4  O   UNL     1      38.623 -23.892 -15.329  0.00  0.00    -0.387 OA
ATOM      5  H   UNL     1      38.366 -24.299 -16.171  0.00  0.00    +0.210 HD
ENDBRANCH   1   4
BRANCH   1   6
ATOM      6  C   UNL     1      37.157 -23.427 -13.438  0.00  0.00    +0.056 C 
BRANCH   6   7
ATOM      7  C   UNL     1      37.219 -23.588 -11.910  0.00  0.00    +0.113 C 
ATOM      8  C   UNL     1      35.902 -24.131 -11.368  0.00  0.00    +0.032 C 
BRANCH   7   9
ATOM      9  O   UNL     1      37.457 -22.336 -11.278  0.00  0.00    -0.384 OA
ATOM     10  H   UNL     1      37.625 -22.476 -10.334  0.00  0.00    +0.210 HD
ENDBRANCH   7   9
ENDBRANCH   6   7
ENDBRANCH   1   6
TORSDOF 4
ENDMDL
MODEL 9
REMARK VINA RESULT:      -4.2      8.524      9.662
REMARK  Name = 5288834
REMARK  4 active torsions:
REMARK  status: ('A' for Active; 'I' for Inactive)
REMARK    1  A    between atoms: C_1  and  O_4
REMARK    2  A    between atoms: C_1  and  C_6
REMARK    3  A    between atoms: C_6  and  C_7
REMARK    4  A    between atoms: C_7  and  O_9
REMARK                            x       y       z     vdW  Elec       q    Type
REMARK                         _______ _______ _______ _____ _____    ______ ____
ROOT
ATOM      1  C   UNL     1      42.341 -15.041 -17.796  0.00  0.00    +0.091 C 
ATOM      2  C   UNL     1      43.487 -14.022 -17.813  0.00  0.00    +0.029 C 
ATOM      3  C   UNL     1      42.687 -16.215 -18.712  0.00  0.00    +0.029 C 
ENDROOT
BRANCH   1   4
ATOM      4  O   UNL     1      41.186 -14.402 -18.337  0.00  0.00    -0.387 OA
ATOM      5  H   UNL     1      41.373 -13.460 -18.477  0.00  0.00    +0.210 HD
ENDBRANCH   1   4
BRANCH   1   6
ATOM      6  C   UNL     1      42.065 -15.491 -16.342  0.00  0.00    +0.056 C 
BRANCH   6   7
ATOM      7  C   UNL     1      40.740 -15.008 -15.729  0.00  0.00    +0.113 C 
ATOM      8  C   UNL     1      40.993 -14.005 -14.610  0.00  0.00    +0.032 C 
BRANCH   7   9
ATOM      9  O   UNL     1      40.015 -16.097 -15.169  0.00  0.00    -0.384 OA
ATOM     10  H   UNL     1      39.317 -15.757 -14.588  0.00  0.00    +0.210 HD
ENDBRANCH   7   9
ENDBRANCH   6   7
ENDBRANCH   1   6
TORSDOF 4
ENDMDL
