MODEL 1
REMARK VINA RESULT:      -9.5      0.000      0.000
REMARK  Name = 448249
REMARK  11 active torsions:
REMARK  status: ('A' for Active; 'I' for Inactive)
REMARK    1  A    between atoms: CA_1  and  C_4
REMARK    2  A    between atoms: CA_1  and  N_13
REMARK    3  A    between atoms: CA_1  and  CB_26
REMARK    4  A    between atoms: N_3  and  CA_6
REMARK    5  A    between atoms: CA_6  and  C_9
REMARK    6  A    between atoms: C_9  and  O_10
REMARK    7  A    between atoms: C_14  and  C_16
REMARK    8  A    between atoms: C_16  and  S_17
REMARK    9  A    between atoms: C_16  and  C_19
REMARK   10  A    between atoms: C_19  and  C_20
REMARK   11  A    between atoms: CB_26  and  CG_27
REMARK                            x       y       z     vdW  Elec       q    Type
REMARK                         _______ _______ _______ _____ _____    ______ ____
ROOT
ATOM      1  CA  UNL     1      34.210 -23.227 -16.902  0.00  0.00    +0.153 C 
ENDROOT
BRANCH   1   4
ATOM      2  O   UNL     1      31.965 -22.509 -17.463  0.00  0.00    -0.273 OA
ATOM      3  N   UNL     1      32.308 -23.665 -15.478  0.00  0.00    -0.295 N 
ATOM      4  C   UNL     1      32.713 -23.067 -16.664  0.00  0.00    +0.241 C 
ATOM      5  H   UNL     1      32.994 -24.085 -14.909  0.00  0.00    +0.150 HD
BRANCH   3   6
ATOM      6  CA  UNL     1      30.933 -23.702 -15.037  0.00  0.00    +0.171 C 
ATOM      7  CB  UNL     1      30.156 -24.766 -15.798  0.00  0.00    +0.033 C 
BRANCH   6   9
ATOM      8  OXT UNL     1      31.398 -23.238 -12.711  0.00  0.00    -0.248 OA
ATOM      9  C   UNL     1      30.829 -23.941 -13.540  0.00  0.00    +0.332 C 
BRANCH   9  10
ATOM     10  O   UNL     1      30.065 -25.002 -13.187  0.00  0.00    -0.479 OA
ATOM     11  H   UNL     1      29.533 -25.430 -13.828  0.00  0.00    +0.295 HD
ENDBRANCH   9  10
ENDBRANCH   6   9
ENDBRANCH   3   6
ENDBRANCH   1   4
BRANCH   1  13
ATOM     12  O   UNL     1      34.080 -23.735 -19.724  0.00  0.00    -0.274 OA
ATOM     13  N   UNL     1      34.574 -22.315 -17.957  0.00  0.00    -0.297 N 
ATOM     14  C   ACE A   0      34.477 -22.650 -19.301  0.00  0.00    +0.232 C 
ATOM     15  H   UNL     1      34.905 -21.420 -17.716  0.00  0.00    +0.150 HD
BRANCH  14  16
ATOM     16  C   UNL     1      34.945 -21.530 -20.224  0.00  0.00    +0.124 C 
BRANCH  16  17
ATOM     17  S   UNL     1      36.519 -20.901 -19.535  0.00  0.00    -0.159 S 
ATOM     18  H   UNL     1      36.304 -19.693 -18.946  0.00  0.00    +0.103 HD
ENDBRANCH  16  17
BRANCH  16  19
ATOM     19  C   UNL     1      33.929 -20.384 -20.309  0.00  0.00    +0.046 C 
BRANCH  19  20
ATOM     20  C   UNL     1      34.342 -19.327 -21.309  0.00  0.00    -0.021 C 
ATOM     21  C   UNL     1      34.331 -17.981 -20.945  0.00  0.00    -0.004 C 
ATOM     22  C   UNL     1      34.736 -19.699 -22.595  0.00  0.00    -0.004 C 
ATOM     23  C   UNL     1      34.712 -17.005 -21.866  0.00  0.00    -0.000 C 
ATOM     24  C   UNL     1      35.118 -18.723 -23.516  0.00  0.00    -0.000 C 
ATOM     25  C   UNL     1      35.106 -17.377 -23.152  0.00  0.00    -0.000 C 
ENDBRANCH  19  20
ENDBRANCH  16  19
ENDBRANCH  14  16
ENDBRANCH   1  13
BRANCH   1  26
ATOM     26  CB  UNL     1      34.988 -22.956 -15.609  0.00  0.00    +0.055 C 
BRANCH  26  27
ATOM     27  CG  UNL     1      36.026 -24.011 -15.319  0.00  0.00    -0.020 C 
ATOM     28  CD1 UNL     1      37.356 -23.643 -15.116  0.00  0.00    -0.004 C 
ATOM     29  CD2 UNL     1      35.656 -25.354 -15.254  0.00  0.00    -0.004 C 
ATOM     30  CE1 UNL     1      38.316 -24.619 -14.848  0.00  0.00    -0.000 C 
ATOM     31  CE2 UNL     1      36.616 -26.330 -14.985  0.00  0.00    -0.000 C 
ATOM     32  CZ  UNL     1      37.946 -25.963 -14.783  0.00  0.00    -0.000 C 
ENDBRANCH  26  27
ENDBRANCH   1  26
TORSDOF 11
ENDMDL
MODEL 2
REMARK VINA RESULT:      -9.4      2.238      4.507
REMARK  Name = 448249
REMARK  11 active torsions:
REMARK  status: ('A' for Active; 'I' for Inactive)
REMARK    1  A    between atoms: CA_1  and  C_4
REMARK    2  A    between atoms: CA_1  and  N_13
REMARK    3  A    between atoms: CA_1  and  CB_26
REMARK    4  A    between atoms: N_3  and  CA_6
REMARK    5  A    between atoms: CA_6  and  C_9
REMARK    6  A    between atoms: C_9  and  O_10
REMARK    7  A    between atoms: C_14  and  C_16
REMARK    8  A    between atoms: C_16  and  S_17
REMARK    9  A    between atoms: C_16  and  C_19
REMARK   10  A    between atoms: C_19  and  C_20
REMARK   11  A    between atoms: CB_26  and  CG_27
REMARK                            x       y       z     vdW  Elec       q    Type
REMARK                         _______ _______ _______ _____ _____    ______ ____
ROOT
ATOM      1  CA  UNL     1      35.051 -22.547 -16.592  0.00  0.00    +0.153 C 
ENDROOT
BRANCH   1   4
ATOM      2  O   UNL     1      37.474 -22.591 -16.528  0.00  0.00    -0.273 OA
ATOM      3  N   UNL     1      36.292 -24.212 -15.358  0.00  0.00    -0.295 N 
ATOM      4  C   UNL     1      36.411 -23.105 -16.187  0.00  0.00    +0.241 C 
ATOM      5  H   UNL     1      35.389 -24.543 -15.147  0.00  0.00    +0.150 HD
BRANCH   3   6
ATOM      6  CA  UNL     1      37.427 -24.904 -14.789  0.00  0.00    +0.171 C 
ATOM      7  CB  UNL     1      37.519 -24.641 -13.294  0.00  0.00    +0.033 C 
BRANCH   6   9
ATOM      8  OXT UNL     1      38.228 -27.181 -14.669  0.00  0.00    -0.248 OA
ATOM      9  C   UNL     1      37.369 -26.397 -15.061  0.00  0.00    +0.332 C 
BRANCH   9  10
ATOM     10  O   UNL     1      36.298 -26.801 -15.785  0.00  0.00    -0.479 OA
ATOM     11  H   UNL     1      35.467 -26.914 -15.366  0.00  0.00    +0.295 HD
ENDBRANCH   9  10
ENDBRANCH   6   9
ENDBRANCH   3   6
ENDBRANCH   1   4
BRANCH   1  13
ATOM     12  O   UNL     1      34.040 -23.288 -19.175  0.00  0.00    -0.274 OA
ATOM     13  N   UNL     1      35.237 -21.827 -17.827  0.00  0.00    -0.297 N 
ATOM     14  C   ACE A   0      34.708 -22.264 -19.034  0.00  0.00    +0.232 C 
ATOM     15  H   UNL     1      35.760 -20.993 -17.814  0.00  0.00    +0.150 HD
BRANCH  14  16
ATOM     16  C   UNL     1      35.063 -21.348 -20.200  0.00  0.00    +0.124 C 
BRANCH  16  17
ATOM     17  S   UNL     1      36.704 -20.630 -19.827  0.00  0.00    -0.159 S 
ATOM     18  H   UNL     1      36.998 -20.831 -18.514  0.00  0.00    +0.103 HD
ENDBRANCH  16  17
BRANCH  16  19
ATOM     19  C   UNL     1      34.040 -20.220 -20.386  0.00  0.00    +0.046 C 
BRANCH  19  20
ATOM     20  C   UNL     1      34.485 -19.209 -21.418  0.00  0.00    -0.021 C 
ATOM     21  C   UNL     1      34.611 -17.864 -21.068  0.00  0.00    -0.004 C 
ATOM     22  C   UNL     1      34.773 -19.620 -22.720  0.00  0.00    -0.004 C 
ATOM     23  C   UNL     1      35.023 -16.931 -22.019  0.00  0.00    -0.000 C 
ATOM     24  C   UNL     1      35.185 -18.687 -23.671  0.00  0.00    -0.000 C 
ATOM     25  C   UNL     1      35.310 -17.342 -23.321  0.00  0.00    -0.000 C 
ENDBRANCH  19  20
ENDBRANCH  16  19
ENDBRANCH  14  16
ENDBRANCH   1  13
BRANCH   1  26
ATOM     26  CB  UNL     1      34.030 -23.682 -16.732  0.00  0.00    +0.055 C 
BRANCH  26  27
ATOM     27  CG  UNL     1      32.747 -23.407 -15.989  0.00  0.00    -0.020 C 
ATOM     28  CD1 UNL     1      31.577 -23.128 -16.696  0.00  0.00    -0.004 C 
ATOM     29  CD2 UNL     1      32.728 -23.433 -14.594  0.00  0.00    -0.004 C 
ATOM     30  CE1 UNL     1      30.390 -22.874 -16.009  0.00  0.00    -0.000 C 
ATOM     31  CE2 UNL     1      31.541 -23.179 -13.908  0.00  0.00    -0.000 C 
ATOM     32  CZ  UNL     1      30.372 -22.900 -14.615  0.00  0.00    -0.000 C 
ENDBRANCH  26  27
ENDBRANCH   1  26
TORSDOF 11
ENDMDL
MODEL 3
REMARK VINA RESULT:      -8.8      6.275     11.693
REMARK  Name = 448249
REMARK  11 active torsions:
REMARK  status: ('A' for Active; 'I' for Inactive)
REMARK    1  A    between atoms: CA_1  and  C_4
REMARK    2  A    between atoms: CA_1  and  N_13
REMARK    3  A    between atoms: CA_1  and  CB_26
REMARK    4  A    between atoms: N_3  and  CA_6
REMARK    5  A    between atoms: CA_6  and  C_9
REMARK    6  A    between atoms: C_9  and  O_10
REMARK    7  A    between atoms: C_14  and  C_16
REMARK    8  A    between atoms: C_16  and  S_17
REMARK    9  A    between atoms: C_16  and  C_19
REMARK   10  A    between atoms: C_19  and  C_20
REMARK   11  A    between atoms: CB_26  and  CG_27
REMARK                            x       y       z     vdW  Elec       q    Type
REMARK                         _______ _______ _______ _____ _____    ______ ____
ROOT
ATOM      1  CA  UNL     1      33.408 -14.457 -22.738  0.00  0.00    +0.153 C 
ENDROOT
BRANCH   1   4
ATOM      2  O   UNL     1      32.573 -14.387 -20.464  0.00  0.00    -0.273 OA
ATOM      3  N   UNL     1      32.090 -12.619 -21.891  0.00  0.00    -0.295 N 
ATOM      4  C   UNL     1      32.642 -13.851 -21.568  0.00  0.00    +0.241 C 
ATOM      5  H   UNL     1      32.204 -12.281 -22.809  0.00  0.00    +0.150 HD
BRANCH   3   6
ATOM      6  CA  UNL     1      31.355 -11.807 -20.948  0.00  0.00    +0.171 C 
ATOM      7  CB  UNL     1      31.946 -11.940 -19.553  0.00  0.00    +0.033 C 
BRANCH   6   9
ATOM      8  OXT UNL     1      31.021  -9.987 -22.504  0.00  0.00    -0.248 OA
ATOM      9  C   UNL     1      31.320 -10.348 -21.370  0.00  0.00    +0.332 C 
BRANCH   9  10
ATOM     10  O   UNL     1      31.658  -9.468 -20.397  0.00  0.00    -0.479 OA
ATOM     11  H   UNL     1      31.982  -9.781 -19.576  0.00  0.00    +0.295 HD
ENDBRANCH   9  10
ENDBRANCH   6   9
ENDBRANCH   3   6
ENDBRANCH   1   4
BRANCH   1  13
ATOM     12  O   UNL     1      35.622 -15.982 -23.744  0.00  0.00    -0.274 OA
ATOM     13  N   UNL     1      33.768 -15.802 -22.362  0.00  0.00    -0.297 N 
ATOM     14  C   ACE A   0      34.861 -16.462 -22.905  0.00  0.00    +0.232 C 
ATOM     15  H   UNL     1      33.216 -16.269 -21.694  0.00  0.00    +0.150 HD
BRANCH  14  16
ATOM     16  C   UNL     1      35.020 -17.881 -22.369  0.00  0.00    +0.124 C 
BRANCH  16  17
ATOM     17  S   UNL     1      34.889 -19.006 -23.805  0.00  0.00    -0.159 S 
ATOM     18  H   UNL     1      33.947 -18.533 -24.665  0.00  0.00    +0.103 HD
ENDBRANCH  16  17
BRANCH  16  19
ATOM     19  C   UNL     1      33.939 -18.237 -21.338  0.00  0.00    +0.046 C 
BRANCH  19  20
ATOM     20  C   UNL     1      34.207 -19.564 -20.666  0.00  0.00    -0.021 C 
ATOM     21  C   UNL     1      35.518 -20.013 -20.506  0.00  0.00    -0.004 C 
ATOM     22  C   UNL     1      33.143 -20.339 -20.202  0.00  0.00    -0.004 C 
ATOM     23  C   UNL     1      35.766 -21.238 -19.885  0.00  0.00    -0.000 C 
ATOM     24  C   UNL     1      33.391 -21.563 -19.581  0.00  0.00    -0.000 C 
ATOM     25  C   UNL     1      34.702 -22.012 -19.423  0.00  0.00    -0.000 C 
ENDBRANCH  19  20
ENDBRANCH  16  19
ENDBRANCH  14  16
ENDBRANCH   1  13
BRANCH   1  26
ATOM     26  CB  UNL     1      32.553 -14.421 -24.010  0.00  0.00    +0.055 C 
BRANCH  26  27
ATOM     27  CG  UNL     1      33.164 -13.577 -25.101  0.00  0.00    -0.020 C 
ATOM     28  CD1 UNL     1      33.761 -12.356 -24.786  0.00  0.00    -0.004 C 
ATOM     29  CD2 UNL     1      33.132 -14.018 -26.424  0.00  0.00    -0.004 C 
ATOM     30  CE1 UNL     1      34.325 -11.576 -25.795  0.00  0.00    -0.000 C 
ATOM     31  CE2 UNL     1      33.698 -13.237 -27.433  0.00  0.00    -0.000 C 
ATOM     32  CZ  UNL     1      34.294 -12.016 -27.118  0.00  0.00    -0.000 C 
ENDBRANCH  26  27
ENDBRANCH   1  26
TORSDOF 11
ENDMDL
MODEL 4
REMARK VINA RESULT:      -8.8      6.928     10.505
REMARK  Name = 448249
REMARK  11 active torsions:
REMARK  status: ('A' for Active; 'I' for Inactive)
REMARK    1  A    between atoms: CA_1  and  C_4
REMARK    2  A    between atoms: CA_1  and  N_13
REMARK    3  A    between atoms: CA_1  and  CB_26
REMARK    4  A    between atoms: N_3  and  CA_6
REMARK    5  A    between atoms: CA_6  and  C_9
REMARK    6  A    between atoms: C_9  and  O_10
REMARK    7  A    between atoms: C_14  and  C_16
REMARK    8  A    between atoms: C_16  and  S_17
REMARK    9  A    between atoms: C_16  and  C_19
REMARK   10  A    between atoms: C_19  and  C_20
REMARK   11  A    between atoms: CB_26  and  CG_27
REMARK                            x       y       z     vdW  Elec       q    Type
REMARK                         _______ _______ _______ _____ _____    ______ ____
ROOT
ATOM      1  CA  UNL     1      34.735 -16.815 -23.270  0.00  0.00    +0.153 C 
ENDROOT
BRANCH   1   4
ATOM      2  O   UNL     1      35.002 -16.809 -25.679  0.00  0.00    -0.273 OA
ATOM      3  N   UNL     1      34.031 -14.965 -24.654  0.00  0.00    -0.295 N 
ATOM      4  C   UNL     1      34.632 -16.217 -24.668  0.00  0.00    +0.241 C 
ATOM      5  H   UNL     1      33.773 -14.581 -23.785  0.00  0.00    +0.150 HD
BRANCH   3   6
ATOM      6  CA  UNL     1      33.766 -14.198 -25.850  0.00  0.00    +0.171 C 
ATOM      7  CB  UNL     1      32.419 -14.581 -26.443  0.00  0.00    +0.033 C 
BRANCH   6   9
ATOM      8  OXT UNL     1      33.573 -11.862 -26.441  0.00  0.00    -0.248 OA
ATOM      9  C   UNL     1      33.821 -12.704 -25.583  0.00  0.00    +0.332 C 
BRANCH   9  10
ATOM     10  O   UNL     1      34.178 -12.366 -24.321  0.00  0.00    -0.479 OA
ATOM     11  H   UNL     1      34.697 -12.954 -23.808  0.00  0.00    +0.295 HD
ENDBRANCH   9  10
ENDBRANCH   6   9
ENDBRANCH   3   6
ENDBRANCH   1   4
BRANCH   1  13
ATOM     12  O   UNL     1      35.127 -14.281 -21.979  0.00  0.00    -0.274 OA
ATOM     13  N   UNL     1      33.787 -16.119 -22.437  0.00  0.00    -0.297 N 
ATOM     14  C   ACE A   0      34.067 -14.892 -21.851  0.00  0.00    +0.232 C 
ATOM     15  H   UNL     1      32.907 -16.530 -22.276  0.00  0.00    +0.150 HD
BRANCH  14  16
ATOM     16  C   UNL     1      32.917 -14.371 -20.995  0.00  0.00    +0.124 C 
BRANCH  16  17
ATOM     17  S   UNL     1      31.991 -15.835 -20.407  0.00  0.00    -0.159 S 
ATOM     18  H   UNL     1      32.726 -16.957 -20.636  0.00  0.00    +0.103 HD
ENDBRANCH  16  17
BRANCH  16  19
ATOM     19  C   UNL     1      31.975 -13.451 -21.783  0.00  0.00    +0.046 C 
BRANCH  19  20
ATOM     20  C   UNL     1      31.878 -12.072 -21.169  0.00  0.00    -0.021 C 
ATOM     21  C   UNL     1      31.774 -11.931 -19.785  0.00  0.00    -0.004 C 
ATOM     22  C   UNL     1      31.895 -10.941 -21.986  0.00  0.00    -0.004 C 
ATOM     23  C   UNL     1      31.684 -10.660 -19.218  0.00  0.00    -0.000 C 
ATOM     24  C   UNL     1      31.806  -9.670 -21.419  0.00  0.00    -0.000 C 
ATOM     25  C   UNL     1      31.701  -9.529 -20.036  0.00  0.00    -0.000 C 
ENDBRANCH  19  20
ENDBRANCH  16  19
ENDBRANCH  14  16
ENDBRANCH   1  13
BRANCH   1  26
ATOM     26  CB  UNL     1      34.468 -18.324 -23.315  0.00  0.00    +0.055 C 
BRANCH  26  27
ATOM     27  CG  UNL     1      35.038 -19.054 -22.125  0.00  0.00    -0.020 C 
ATOM     28  CD1 UNL     1      36.371 -18.861 -21.761  0.00  0.00    -0.004 C 
ATOM     29  CD2 UNL     1      34.233 -19.922 -21.387  0.00  0.00    -0.004 C 
ATOM     30  CE1 UNL     1      36.899 -19.537 -20.661  0.00  0.00    -0.000 C 
ATOM     31  CE2 UNL     1      34.761 -20.597 -20.286  0.00  0.00    -0.000 C 
ATOM     32  CZ  UNL     1      36.094 -20.404 -19.923  0.00  0.00    -0.000 C 
ENDBRANCH  26  27
ENDBRANCH   1  26
TORSDOF 11
ENDMDL
MODEL 5
REMARK VINA RESULT:      -8.7      8.677     11.866
REMARK  Name = 448249
REMARK  11 active torsions:
REMARK  status: ('A' for Active; 'I' for Inactive)
REMARK    1  A    between atoms: CA_1  and  C_4
REMARK    2  A    between atoms: CA_1  and  N_13
REMARK    3  A    between atoms: CA_1  and  CB_26
REMARK    4  A    between atoms: N_3  and  CA_6
REMARK    5  A    between atoms: CA_6  and  C_9
REMARK    6  A    between atoms: C_9  and  O_10
REMARK    7  A    between atoms: C_14  and  C_16
REMARK    8  A    between atoms: C_16  and  S_17
REMARK    9  A    between atoms: C_16  and  C_19
REMARK   10  A    between atoms: C_19  and  C_20
REMARK   11  A    between atoms: CB_26  and  CG_27
REMARK                            x       y       z     vdW  Elec       q    Type
REMARK                         _______ _______ _______ _____ _____    ______ ____
ROOT
ATOM      1  CA  UNL     1      33.579 -14.368 -23.538  0.00  0.00    +0.153 C 
ENDROOT
BRANCH   1   4
ATOM      2  O   UNL     1      32.190 -15.197 -21.732  0.00  0.00    -0.273 OA
ATOM      3  N   UNL     1      32.343 -12.904 -22.066  0.00  0.00    -0.295 N 
ATOM      4  C   UNL     1      32.620 -14.232 -22.360  0.00  0.00    +0.241 C 
ATOM      5  H   UNL     1      32.741 -12.207 -22.636  0.00  0.00    +0.150 HD
BRANCH   3   6
ATOM      6  CA  UNL     1      31.501 -12.493 -20.966  0.00  0.00    +0.171 C 
ATOM      7  CB  UNL     1      32.267 -12.560 -19.653  0.00  0.00    +0.033 C 
BRANCH   6   9
ATOM      8  OXT UNL     1      31.179 -10.159 -20.428  0.00  0.00    -0.248 OA
ATOM      9  C   UNL     1      30.938 -11.099 -21.179  0.00  0.00    +0.332 C 
BRANCH   9  10
ATOM     10  O   UNL     1      30.134 -10.971 -22.261  0.00  0.00    -0.479 OA
ATOM     11  H   UNL     1      30.154 -11.619 -22.938  0.00  0.00    +0.295 HD
ENDBRANCH   9  10
ENDBRANCH   6   9
ENDBRANCH   3   6
ENDBRANCH   1   4
BRANCH   1  13
ATOM     12  O   UNL     1      33.324 -13.404 -26.230  0.00  0.00    -0.274 OA
ATOM     13  N   UNL     1      33.871 -13.036 -24.005  0.00  0.00    -0.297 N 
ATOM     14  C   ACE A   0      33.717 -12.659 -25.332  0.00  0.00    +0.232 C 
ATOM     15  H   UNL     1      34.193 -12.368 -23.358  0.00  0.00    +0.150 HD
BRANCH  14  16
ATOM     16  C   UNL     1      34.116 -11.209 -25.584  0.00  0.00    +0.124 C 
BRANCH  16  17
ATOM     17  S   UNL     1      35.356 -11.228 -26.928  0.00  0.00    -0.159 S 
ATOM     18  H   UNL     1      34.726 -11.393 -28.123  0.00  0.00    +0.103 HD
ENDBRANCH  16  17
BRANCH  16  19
ATOM     19  C   UNL     1      34.721 -10.548 -24.338  0.00  0.00    +0.046 C 
BRANCH  19  20
ATOM     20  C   UNL     1      34.033  -9.247 -23.991  0.00  0.00    -0.021 C 
ATOM     21  C   UNL     1      32.677  -9.240 -23.664  0.00  0.00    -0.004 C 
ATOM     22  C   UNL     1      34.755  -8.052 -23.996  0.00  0.00    -0.004 C 
ATOM     23  C   UNL     1      32.042  -8.040 -23.344  0.00  0.00    -0.000 C 
ATOM     24  C   UNL     1      34.119  -6.853 -23.675  0.00  0.00    -0.000 C 
ATOM     25  C   UNL     1      32.763  -6.847 -23.349  0.00  0.00    -0.000 C 
ENDBRANCH  19  20
ENDBRANCH  16  19
ENDBRANCH  14  16
ENDBRANCH   1  13
BRANCH   1  26
ATOM     26  CB  UNL     1      34.843 -15.123 -23.111  0.00  0.00    +0.055 C 
BRANCH  26  27
ATOM     27  CG  UNL     1      34.810 -16.581 -23.495  0.00  0.00    -0.020 C 
ATOM     28  CD1 UNL     1      35.129 -17.558 -22.551  0.00  0.00    -0.004 C 
ATOM     29  CD2 UNL     1      34.460 -16.953 -24.793  0.00  0.00    -0.004 C 
ATOM     30  CE1 UNL     1      35.099 -18.907 -22.907  0.00  0.00    -0.000 C 
ATOM     31  CE2 UNL     1      34.429 -18.302 -25.148  0.00  0.00    -0.000 C 
ATOM     32  CZ  UNL     1      34.749 -19.279 -24.205  0.00  0.00    -0.000 C 
ENDBRANCH  26  27
ENDBRANCH   1  26
TORSDOF 11
ENDMDL
MODEL 6
REMARK VINA RESULT:      -8.6     10.050     15.202
REMARK  Name = 448249
REMARK  11 active torsions:
REMARK  status: ('A' for Active; 'I' for Inactive)
REMARK    1  A    between atoms: CA_1  and  C_4
REMARK    2  A    between atoms: CA_1  and  N_13
REMARK    3  A    between atoms: CA_1  and  CB_26
REMARK    4  A    between atoms: N_3  and  CA_6
REMARK    5  A    between atoms: CA_6  and  C_9
REMARK    6  A    between atoms: C_9  and  O_10
REMARK    7  A    between atoms: C_14  and  C_16
REMARK    8  A    between atoms: C_16  and  S_17
REMARK    9  A    between atoms: C_16  and  C_19
REMARK   10  A    between atoms: C_19  and  C_20
REMARK   11  A    between atoms: CB_26  and  CG_27
REMARK                            x       y       z     vdW  Elec       q    Type
REMARK                         _______ _______ _______ _____ _____    ______ ____
ROOT
ATOM      1  CA  UNL     1      32.845  -8.717 -23.664  0.00  0.00    +0.153 C 
ENDROOT
BRANCH   1   4
ATOM      2  O   UNL     1      33.870  -7.729 -21.702  0.00  0.00    -0.273 OA
ATOM      3  N   UNL     1      32.212  -9.331 -21.414  0.00  0.00    -0.295 N 
ATOM      4  C   UNL     1      33.062  -8.531 -22.166  0.00  0.00    +0.241 C 
ATOM      5  H   UNL     1      31.603  -9.941 -21.890  0.00  0.00    +0.150 HD
BRANCH   3   6
ATOM      6  CA  UNL     1      32.177  -9.314 -19.970  0.00  0.00    +0.171 C 
ATOM      7  CB  UNL     1      31.638  -7.984 -19.464  0.00  0.00    +0.033 C 
BRANCH   6   9
ATOM      8  OXT UNL     1      31.371 -10.786 -18.230  0.00  0.00    -0.248 OA
ATOM      9  C   UNL     1      31.354 -10.464 -19.414  0.00  0.00    +0.332 C 
BRANCH   9  10
ATOM     10  O   UNL     1      30.604 -11.119 -20.331  0.00  0.00    -0.479 OA
ATOM     11  H   UNL     1      30.011 -11.791 -20.056  0.00  0.00    +0.295 HD
ENDBRANCH   9  10
ENDBRANCH   6   9
ENDBRANCH   3   6
ENDBRANCH   1   4
BRANCH   1  13
ATOM     12  O   UNL     1      35.157 -10.197 -24.505  0.00  0.00    -0.274 OA
ATOM     13  N   UNL     1      32.909 -10.132 -23.932  0.00  0.00    -0.297 N 
ATOM     14  C   ACE A   0      34.077 -10.763 -24.336  0.00  0.00    +0.232 C 
ATOM     15  H   UNL     1      32.093 -10.671 -23.824  0.00  0.00    +0.150 HD
BRANCH  14  16
ATOM     16  C   UNL     1      33.886 -12.256 -24.583  0.00  0.00    +0.124 C 
BRANCH  16  17
ATOM     17  S   UNL     1      33.528 -12.455 -26.365  0.00  0.00    -0.159 S 
ATOM     18  H   UNL     1      33.312 -11.233 -26.923  0.00  0.00    +0.103 HD
ENDBRANCH  16  17
BRANCH  16  19
ATOM     19  C   UNL     1      32.729 -12.838 -23.760  0.00  0.00    +0.046 C 
BRANCH  19  20
ATOM     20  C   UNL     1      33.210 -13.807 -22.703  0.00  0.00    -0.021 C 
ATOM     21  C   UNL     1      34.310 -14.626 -22.958  0.00  0.00    -0.004 C 
ATOM     22  C   UNL     1      32.555 -13.881 -21.473  0.00  0.00    -0.004 C 
ATOM     23  C   UNL     1      34.755 -15.520 -21.984  0.00  0.00    -0.000 C 
ATOM     24  C   UNL     1      33.000 -14.775 -20.500  0.00  0.00    -0.000 C 
ATOM     25  C   UNL     1      34.100 -15.594 -20.755  0.00  0.00    -0.000 C 
ENDBRANCH  19  20
ENDBRANCH  16  19
ENDBRANCH  14  16
ENDBRANCH   1  13
BRANCH   1  26
ATOM     26  CB  UNL     1      31.504  -8.107 -24.087  0.00  0.00    +0.055 C 
BRANCH  26  27
ATOM     27  CG  UNL     1      31.454  -6.612 -23.893  0.00  0.00    -0.020 C 
ATOM     28  CD1 UNL     1      30.852  -6.076 -22.755  0.00  0.00    -0.004 C 
ATOM     29  CD2 UNL     1      32.011  -5.766 -24.852  0.00  0.00    -0.004 C 
ATOM     30  CE1 UNL     1      30.806  -4.693 -22.576  0.00  0.00    -0.000 C 
ATOM     31  CE2 UNL     1      31.965  -4.383 -24.672  0.00  0.00    -0.000 C 
ATOM     32  CZ  UNL     1      31.363  -3.847 -23.535  0.00  0.00    -0.000 C 
ENDBRANCH  26  27
ENDBRANCH   1  26
TORSDOF 11
ENDMDL
MODEL 7
REMARK VINA RESULT:      -8.6      6.419     11.769
REMARK  Name = 448249
REMARK  11 active torsions:
REMARK  status: ('A' for Active; 'I' for Inactive)
REMARK    1  A    between atoms: CA_1  and  C_4
REMARK    2  A    between atoms: CA_1  and  N_13
REMARK    3  A    between atoms: CA_1  and  CB_26
REMARK    4  A    between atoms: N_3  and  CA_6
REMARK    5  A    between atoms: CA_6  and  C_9
REMARK    6  A    between atoms: C_9  and  O_10
REMARK    7  A    between atoms: C_14  and  C_16
REMARK    8  A    between atoms: C_16  and  S_17
REMARK    9  A    between atoms: C_16  and  C_19
REMARK   10  A    between atoms: C_19  and  C_20
REMARK   11  A    between atoms: CB_26  and  CG_27
REMARK                            x       y       z     vdW  Elec       q    Type
REMARK                         _______ _______ _______ _____ _____    ______ ____
ROOT
ATOM      1  CA  UNL     1      32.914 -14.800 -22.186  0.00  0.00    +0.153 C 
ENDROOT
BRANCH   1   4
ATOM      2  O   UNL     1      34.987 -13.655 -22.698  0.00  0.00    -0.273 OA
ATOM      3  N   UNL     1      33.251 -13.573 -24.240  0.00  0.00    -0.295 N 
ATOM      4  C   UNL     1      33.841 -13.940 -23.037  0.00  0.00    +0.241 C 
ATOM      5  H   UNL     1      32.324 -13.856 -24.410  0.00  0.00    +0.150 HD
BRANCH   3   6
ATOM      6  CA  UNL     1      33.930 -12.798 -25.253  0.00  0.00    +0.171 C 
ATOM      7  CB  UNL     1      33.226 -12.938 -26.594  0.00  0.00    +0.033 C 
BRANCH   6   9
ATOM      8  OXT UNL     1      33.100 -10.699 -24.388  0.00  0.00    -0.248 OA
ATOM      9  C   UNL     1      34.037 -11.334 -24.862  0.00  0.00    +0.332 C 
BRANCH   9  10
ATOM     10  O   UNL     1      35.249 -10.773 -25.088  0.00  0.00    -0.479 OA
ATOM     11  H   UNL     1      36.012 -11.315 -25.143  0.00  0.00    +0.295 HD
ENDBRANCH   9  10
ENDBRANCH   6   9
ENDBRANCH   3   6
ENDBRANCH   1   4
BRANCH   1  13
ATOM     12  O   UNL     1      34.930 -15.921 -20.477  0.00  0.00    -0.274 OA
ATOM     13  N   UNL     1      33.425 -16.148 -22.228  0.00  0.00    -0.297 N 
ATOM     14  C   ACE A   0      34.405 -16.602 -21.357  0.00  0.00    +0.232 C 
ATOM     15  H   UNL     1      33.065 -16.769 -22.901  0.00  0.00    +0.150 HD
BRANCH  14  16
ATOM     16  C   UNL     1      34.799 -18.053 -21.616  0.00  0.00    +0.124 C 
BRANCH  16  17
ATOM     17  S   UNL     1      35.272 -18.164 -23.380  0.00  0.00    -0.159 S 
ATOM     18  H   UNL     1      36.451 -17.514 -23.574  0.00  0.00    +0.103 HD
ENDBRANCH  16  17
BRANCH  16  19
ATOM     19  C   UNL     1      33.648 -19.027 -21.332  0.00  0.00    +0.046 C 
BRANCH  19  20
ATOM     20  C   UNL     1      34.079 -20.178 -20.451  0.00  0.00    -0.021 C 
ATOM     21  C   UNL     1      33.121 -20.949 -19.792  0.00  0.00    -0.004 C 
ATOM     22  C   UNL     1      35.435 -20.472 -20.299  0.00  0.00    -0.004 C 
ATOM     23  C   UNL     1      33.518 -22.011 -18.980  0.00  0.00    -0.000 C 
ATOM     24  C   UNL     1      35.831 -21.535 -19.487  0.00  0.00    -0.000 C 
ATOM     25  C   UNL     1      34.873 -22.304 -18.828  0.00  0.00    -0.000 C 
ENDBRANCH  19  20
ENDBRANCH  16  19
ENDBRANCH  14  16
ENDBRANCH   1  13
BRANCH   1  26
ATOM     26  CB  UNL     1      32.841 -14.253 -20.756  0.00  0.00    +0.055 C 
BRANCH  26  27
ATOM     27  CG  UNL     1      32.143 -12.918 -20.676  0.00  0.00    -0.020 C 
ATOM     28  CD1 UNL     1      31.560 -12.367 -21.818  0.00  0.00    -0.004 C 
ATOM     29  CD2 UNL     1      32.080 -12.236 -19.462  0.00  0.00    -0.004 C 
ATOM     30  CE1 UNL     1      30.914 -11.133 -21.743  0.00  0.00    -0.000 C 
ATOM     31  CE2 UNL     1      31.433 -11.002 -19.388  0.00  0.00    -0.000 C 
ATOM     32  CZ  UNL     1      30.851 -10.450 -20.529  0.00  0.00    -0.000 C 
ENDBRANCH  26  27
ENDBRANCH   1  26
TORSDOF 11
ENDMDL
MODEL 8
REMARK VINA RESULT:      -8.5      3.860     10.031
REMARK  Name = 448249
REMARK  11 active torsions:
REMARK  status: ('A' for Active; 'I' for Inactive)
REMARK    1  A    between atoms: CA_1  and  C_4
REMARK    2  A    between atoms: CA_1  and  N_13
REMARK    3  A    between atoms: CA_1  and  CB_26
REMARK    4  A    between atoms: N_3  and  CA_6
REMARK    5  A    between atoms: CA_6  and  C_9
REMARK    6  A    between atoms: C_9  and  O_10
REMARK    7  A    between atoms: C_14  and  C_16
REMARK    8  A    between atoms: C_16  and  S_17
REMARK    9  A    between atoms: C_16  and  C_19
REMARK   10  A    between atoms: C_19  and  C_20
REMARK   11  A    between atoms: CB_26  and  CG_27
REMARK                            x       y       z     vdW  Elec       q    Type
REMARK                         _______ _______ _______ _____ _____    ______ ____
ROOT
ATOM      1  CA  UNL     1      34.508 -17.874 -21.251  0.00  0.00    +0.153 C 
ENDROOT
BRANCH   1   4
ATOM      2  O   UNL     1      36.262 -18.483 -22.809  0.00  0.00    -0.273 OA
ATOM      3  N   UNL     1      34.245 -17.689 -23.645  0.00  0.00    -0.295 N 
ATOM      4  C   UNL     1      35.128 -18.042 -22.634  0.00  0.00    +0.241 C 
ATOM      5  H   UNL     1      33.358 -17.345 -23.392  0.00  0.00    +0.150 HD
BRANCH   3   6
ATOM      6  CA  UNL     1      34.563 -17.801 -25.051  0.00  0.00    +0.171 C 
ATOM      7  CB  UNL     1      34.268 -19.205 -25.556  0.00  0.00    +0.033 C 
BRANCH   6   9
ATOM      8  OXT UNL     1      34.243 -15.643 -26.092  0.00  0.00    -0.248 OA
ATOM      9  C   UNL     1      33.812 -16.772 -25.880  0.00  0.00    +0.332 C 
BRANCH   9  10
ATOM     10  O   UNL     1      32.619 -17.193 -26.361  0.00  0.00    -0.479 OA
ATOM     11  H   UNL     1      31.848 -16.682 -26.212  0.00  0.00    +0.295 HD
ENDBRANCH   9  10
ENDBRANCH   6   9
ENDBRANCH   3   6
ENDBRANCH   1   4
BRANCH   1  13
ATOM     12  O   UNL     1      33.096 -20.334 -20.807  0.00  0.00    -0.274 OA
ATOM     13  N   UNL     1      34.950 -18.987 -20.447  0.00  0.00    -0.297 N 
ATOM     14  C   ACE A   0      34.196 -20.141 -20.290  0.00  0.00    +0.232 C 
ATOM     15  H   UNL     1      35.821 -18.925 -19.993  0.00  0.00    +0.150 HD
BRANCH  14  16
ATOM     16  C   UNL     1      34.863 -21.161 -19.373  0.00  0.00    +0.124 C 
BRANCH  16  17
ATOM     17  S   UNL     1      36.510 -21.514 -20.086  0.00  0.00    -0.159 S 
ATOM     18  H   UNL     1      36.742 -22.854 -20.049  0.00  0.00    +0.103 HD
ENDBRANCH  16  17
BRANCH  16  19
ATOM     19  C   UNL     1      34.059 -22.464 -19.271  0.00  0.00    +0.046 C 
BRANCH  19  20
ATOM     20  C   UNL     1      33.705 -22.807 -17.842  0.00  0.00    -0.021 C 
ATOM     21  C   UNL     1      34.716 -23.001 -16.900  0.00  0.00    -0.004 C 
ATOM     22  C   UNL     1      32.367 -22.926 -17.463  0.00  0.00    -0.004 C 
ATOM     23  C   UNL     1      34.390 -23.316 -15.581  0.00  0.00    -0.000 C 
ATOM     24  C   UNL     1      32.042 -23.241 -16.144  0.00  0.00    -0.000 C 
ATOM     25  C   UNL     1      33.053 -23.436 -15.203  0.00  0.00    -0.000 C 
ENDBRANCH  19  20
ENDBRANCH  16  19
ENDBRANCH  14  16
ENDBRANCH   1  13
BRANCH   1  26
ATOM     26  CB  UNL     1      34.913 -16.526 -20.646  0.00  0.00    +0.055 C 
BRANCH  26  27
ATOM     27  CG  UNL     1      34.093 -15.377 -21.177  0.00  0.00    -0.020 C 
ATOM     28  CD1 UNL     1      34.484 -14.723 -22.346  0.00  0.00    -0.004 C 
ATOM     29  CD2 UNL     1      32.943 -14.969 -20.501  0.00  0.00    -0.004 C 
ATOM     30  CE1 UNL     1      33.725 -13.661 -22.838  0.00  0.00    -0.000 C 
ATOM     31  CE2 UNL     1      32.185 -13.906 -20.993  0.00  0.00    -0.000 C 
ATOM     32  CZ  UNL     1      32.576 -13.252 -22.161  0.00  0.00    -0.000 C 
ENDBRANCH  26  27
ENDBRANCH   1  26
TORSDOF 11
ENDMDL
MODEL 9
REMARK VINA RESULT:      -8.5      7.880     11.799
REMARK  Name = 448249
REMARK  11 active torsions:
REMARK  status: ('A' for Active; 'I' for Inactive)
REMARK    1  A    between atoms: CA_1  and  C_4
REMARK    2  A    between atoms: CA_1  and  N_13
REMARK    3  A    between atoms: CA_1  and  CB_26
REMARK    4  A    between atoms: N_3  and  CA_6
REMARK    5  A    between atoms: CA_6  and  C_9
REMARK    6  A    between atoms: C_9  and  O_10
REMARK    7  A    between atoms: C_14  and  C_16
REMARK    8  A    between atoms: C_16  and  S_17
REMARK    9  A    between atoms: C_16  and  C_19
REMARK   10  A    between atoms: C_19  and  C_20
REMARK   11  A    between atoms: CB_26  and  CG_27
REMARK                            x       y       z     vdW  Elec       q    Type
REMARK                         _______ _______ _______ _____ _____    ______ ____
ROOT
ATOM      1  CA  UNL     1      34.050 -14.101 -22.287  0.00  0.00    +0.153 C 
ENDROOT
BRANCH   1   4
ATOM      2  O   UNL     1      35.440 -15.465 -23.729  0.00  0.00    -0.273 OA
ATOM      3  N   UNL     1      34.083 -16.513 -22.163  0.00  0.00    -0.295 N 
ATOM      4  C   UNL     1      34.601 -15.413 -22.832  0.00  0.00    +0.241 C 
ATOM      5  H   UNL     1      33.413 -16.358 -21.458  0.00  0.00    +0.150 HD
BRANCH   3   6
ATOM      6  CA  UNL     1      34.475 -17.875 -22.448  0.00  0.00    +0.171 C 
ATOM      7  CB  UNL     1      34.504 -18.119 -23.949  0.00  0.00    +0.033 C 
BRANCH   6   9
ATOM      8  OXT UNL     1      35.962 -18.492 -20.645  0.00  0.00    -0.248 OA
ATOM      9  C   UNL     1      35.822 -18.212 -21.832  0.00  0.00    +0.332 C 
BRANCH   9  10
ATOM     10  O   UNL     1      36.867 -18.169 -22.692  0.00  0.00    -0.479 OA
ATOM     11  H   UNL     1      36.759 -18.468 -23.574  0.00  0.00    +0.295 HD
ENDBRANCH   9  10
ENDBRANCH   6   9
ENDBRANCH   3   6
ENDBRANCH   1   4
BRANCH   1  13
ATOM     12  O   UNL     1      32.475 -14.175 -24.686  0.00  0.00    -0.274 OA
ATOM     13  N   UNL     1      34.080 -13.145 -23.366  0.00  0.00    -0.297 N 
ATOM     14  C   ACE A   0      33.278 -13.264 -24.493  0.00  0.00    +0.232 C 
ATOM     15  H   UNL     1      34.694 -12.378 -23.301  0.00  0.00    +0.150 HD
BRANCH  14  16
ATOM     16  C   UNL     1      33.511 -12.146 -25.503  0.00  0.00    +0.124 C 
BRANCH  16  17
ATOM     17  S   UNL     1      33.863 -12.949 -27.108  0.00  0.00    -0.159 S 
ATOM     18  H   UNL     1      32.749 -12.908 -27.889  0.00  0.00    +0.103 HD
ENDBRANCH  16  17
BRANCH  16  19
ATOM     19  C   UNL     1      34.690 -11.244 -25.112  0.00  0.00    +0.046 C 
BRANCH  19  20
ATOM     20  C   UNL     1      34.235  -9.974 -24.429  0.00  0.00    -0.021 C 
ATOM     21  C   UNL     1      35.134  -8.923 -24.242  0.00  0.00    -0.004 C 
ATOM     22  C   UNL     1      32.917  -9.852 -23.987  0.00  0.00    -0.004 C 
ATOM     23  C   UNL     1      34.715  -7.751 -23.613  0.00  0.00    -0.000 C 
ATOM     24  C   UNL     1      32.499  -8.679 -23.358  0.00  0.00    -0.000 C 
ATOM     25  C   UNL     1      33.398  -7.629 -23.171  0.00  0.00    -0.000 C 
ENDBRANCH  19  20
ENDBRANCH  16  19
ENDBRANCH  14  16
ENDBRANCH   1  13
BRANCH   1  26
ATOM     26  CB  UNL     1      32.635 -14.306 -21.735  0.00  0.00    +0.055 C 
BRANCH  26  27
ATOM     27  CG  UNL     1      32.038 -13.040 -21.172  0.00  0.00    -0.020 C 
ATOM     28  CD1 UNL     1      32.282 -12.685 -19.845  0.00  0.00    -0.004 C 
ATOM     29  CD2 UNL     1      31.244 -12.225 -21.977  0.00  0.00    -0.004 C 
ATOM     30  CE1 UNL     1      31.731 -11.514 -19.324  0.00  0.00    -0.000 C 
ATOM     31  CE2 UNL     1      30.693 -11.054 -21.456  0.00  0.00    -0.000 C 
ATOM     32  CZ  UNL     1      30.936 -10.699 -20.129  0.00  0.00    -0.000 C 
ENDBRANCH  26  27
ENDBRANCH   1  26
TORSDOF 11
ENDMDL
