MODEL 1
REMARK VINA RESULT:      -8.0      0.000      0.000
REMARK  Name = 444862
REMARK  14 active torsions:
REMARK  status: ('A' for Active; 'I' for Inactive)
REMARK    1  A    between atoms: C_2  and  C_10
REMARK    2  A    between atoms: C_3  and  C_23
REMARK    3  A    between atoms: C_4  and  O_8
REMARK    4  A    between atoms: C_10  and  N_11
REMARK    5  A    between atoms: N_11  and  CA_14
REMARK    6  A    between atoms: CA_14  and  C_16
REMARK    7  A    between atoms: CA_14  and  C_19
REMARK    8  A    between atoms: C_16  and  O_17
REMARK    9  A    between atoms: C_19  and  C_20
REMARK   10  A    between atoms: C_20  and  C_21
REMARK   11  A    between atoms: C_23  and  O_24
REMARK   12  A    between atoms: O_24  and  P_25
REMARK   13  A    between atoms: P_25  and  O_27
REMARK   14  A    between atoms: P_25  and  O_29
REMARK                            x       y       z     vdW  Elec       q    Type
REMARK                         _______ _______ _______ _____ _____    ______ ____
ROOT
ATOM      1  N   UNL     1      33.816 -22.675 -18.140  0.00  0.00    -0.245 NA
ATOM      2  C   UNL     1      35.790 -22.951 -16.179  0.00  0.00    -0.009 C 
ATOM      3  C   UNL     1      34.524 -23.491 -15.977  0.00  0.00    +0.024 C 
ATOM      4  C   UNL     1      36.069 -22.272 -17.361  0.00  0.00    +0.141 C 
ATOM      5  C   UNL     1      35.058 -22.164 -18.301  0.00  0.00    +0.092 C 
ATOM      6  C   UNL     1      33.582 -23.327 -16.979  0.00  0.00    +0.096 C 
ATOM      7  C   UNL     1      35.305 -21.445 -19.587  0.00  0.00    +0.055 C 
ENDROOT
BRANCH   4   8
ATOM      8  O   UNL     1      37.297 -21.734 -17.585  0.00  0.00    -0.505 OA
ATOM      9  H   UNL     1      38.043 -22.294 -17.678  0.00  0.00    +0.292 HD
ENDBRANCH   4   8
BRANCH   2  10
ATOM     10  C   UNL     1      36.856 -23.097 -15.125  0.00  0.00    -0.051 C 
BRANCH  10  11
ATOM     11  N   UNL     1      38.009 -23.830 -15.621  0.00  0.00    +0.395 N 
ATOM     12  H1  UNL     1      37.742 -24.352 -16.455  0.00  0.00    -0.083 HD
ATOM     13  H2  UNL     1      38.751 -23.165 -15.842  0.00  0.00    -0.083 HD
BRANCH  11  14
ATOM     14  CA  UNL     1      38.502 -24.764 -14.605  0.00  0.00    +0.040 C 
BRANCH  14  16
ATOM     15  OXT UNL     1      40.914 -24.665 -14.282  0.00  0.00    -0.253 OA
ATOM     16  C   UNL     1      39.955 -25.045 -14.941  0.00  0.00    +0.293 C 
BRANCH  16  17
ATOM     17  O   UNL     1      40.090 -25.756 -16.091  0.00  0.00    -0.482 OA
ATOM     18  H   UNL     1      39.385 -25.789 -16.706  0.00  0.00    +0.295 HD
ENDBRANCH  16  17
ENDBRANCH  14  16
BRANCH  14  19
ATOM     19  C   UNL     1      37.662 -26.047 -14.640  0.00  0.00    -0.010 C 
BRANCH  19  20
ATOM     20  C   UNL     1      37.159 -26.466 -13.255  0.00  0.00    -0.002 C 
BRANCH  20  21
ATOM     21  C   UNL     1      37.372 -25.352 -12.227  0.00  0.00    -0.000 C 
ATOM     22  C   UNL     1      36.048 -24.802 -11.720  0.00  0.00    -0.000 C 
ENDBRANCH  20  21
ENDBRANCH  19  20
ENDBRANCH  14  19
ENDBRANCH  11  14
ENDBRANCH  10  11
ENDBRANCH   2  10
BRANCH   3  23
ATOM     23  C   UNL     1      34.170 -24.226 -14.731  0.00  0.00    +0.181 C 
BRANCH  23  24
ATOM     24  O   UNL     1      32.789 -24.569 -14.760  0.00  0.00    -0.268 OA
BRANCH  24  25
ATOM     25  P   UNL     1      31.779 -23.760 -13.791  0.00  0.00    +0.473 P 
ATOM     26  O   UNL     1      30.877 -22.782 -14.486  0.00  0.00    -0.227 OA
BRANCH  25  27
ATOM     27  O   UNL     1      31.018 -24.948 -12.999  0.00  0.00    -0.303 OA
ATOM     28  H   UNL     1      31.398 -25.802 -13.255  0.00  0.00    +0.222 HD
ENDBRANCH  25  27
BRANCH  25  29
ATOM     29  O   UNL     1      32.751 -23.126 -12.664  0.00  0.00    -0.303 OA
ATOM     30  H   UNL     1      33.526 -22.730 -13.092  0.00  0.00    +0.222 HD
ENDBRANCH  25  29
ENDBRANCH  24  25
ENDBRANCH  23  24
ENDBRANCH   3  23
TORSDOF 14
ENDMDL
MODEL 2
REMARK VINA RESULT:      -8.0      2.889      5.141
REMARK  Name = 444862
REMARK  14 active torsions:
REMARK  status: ('A' for Active; 'I' for Inactive)
REMARK    1  A    between atoms: C_2  and  C_10
REMARK    2  A    between atoms: C_3  and  C_23
REMARK    3  A    between atoms: C_4  and  O_8
REMARK    4  A    between atoms: C_10  and  N_11
REMARK    5  A    between atoms: N_11  and  CA_14
REMARK    6  A    between atoms: CA_14  and  C_16
REMARK    7  A    between atoms: CA_14  and  C_19
REMARK    8  A    between atoms: C_16  and  O_17
REMARK    9  A    between atoms: C_19  and  C_20
REMARK   10  A    between atoms: C_20  and  C_21
REMARK   11  A    between atoms: C_23  and  O_24
REMARK   12  A    between atoms: O_24  and  P_25
REMARK   13  A    between atoms: P_25  and  O_27
REMARK   14  A    between atoms: P_25  and  O_29
REMARK                            x       y       z     vdW  Elec       q    Type
REMARK                         _______ _______ _______ _____ _____    ______ ____
ROOT
ATOM      1  N   UNL     1      30.273 -23.615 -13.965  0.00  0.00    -0.245 NA
ATOM      2  C   UNL     1      32.569 -23.525 -15.558  0.00  0.00    -0.009 C 
ATOM      3  C   UNL     1      32.622 -24.088 -14.287  0.00  0.00    +0.024 C 
ATOM      4  C   UNL     1      31.368 -23.007 -16.032  0.00  0.00    +0.141 C 
ATOM      5  C   UNL     1      30.260 -23.076 -15.205  0.00  0.00    +0.092 C 
ATOM      6  C   UNL     1      31.458 -24.108 -13.537  0.00  0.00    +0.096 C 
ATOM      7  C   UNL     1      28.946 -22.534 -15.666  0.00  0.00    +0.055 C 
ENDROOT
BRANCH   4   8
ATOM      8  O   UNL     1      31.287 -22.452 -17.270  0.00  0.00    -0.505 OA
ATOM      9  H   UNL     1      30.454 -22.362 -17.689  0.00  0.00    +0.292 HD
ENDBRANCH   4   8
BRANCH   2  10
ATOM     10  C   UNL     1      33.803 -23.476 -16.419  0.00  0.00    -0.051 C 
BRANCH  10  11
ATOM     11  N   UNL     1      34.848 -22.663 -15.819  0.00  0.00    +0.395 N 
ATOM     12  H1  UNL     1      34.610 -21.678 -15.925  0.00  0.00    -0.083 HD
ATOM     13  H2  UNL     1      34.925 -22.904 -14.830  0.00  0.00    -0.083 HD
BRANCH  11  14
ATOM     14  CA  UNL     1      36.137 -22.920 -16.466  0.00  0.00    +0.040 C 
BRANCH  14  16
ATOM     15  OXT UNL     1      37.693 -22.936 -14.592  0.00  0.00    -0.253 OA
ATOM     16  C   UNL     1      37.033 -23.554 -15.418  0.00  0.00    +0.293 C 
BRANCH  16  17
ATOM     17  O   UNL     1      37.051 -24.909 -15.507  0.00  0.00    -0.482 OA
ATOM     18  H   UNL     1      37.318 -25.423 -14.771  0.00  0.00    +0.295 HD
ENDBRANCH  16  17
ENDBRANCH  14  16
BRANCH  14  19
ATOM     19  C   UNL     1      36.725 -21.599 -16.978  0.00  0.00    -0.010 C 
BRANCH  19  20
ATOM     20  C   UNL     1      36.794 -21.532 -18.508  0.00  0.00    -0.002 C 
BRANCH  20  21
ATOM     21  C   UNL     1      35.395 -21.547 -19.127  0.00  0.00    -0.000 C 
ATOM     22  C   UNL     1      35.306 -20.614 -20.323  0.00  0.00    -0.000 C 
ENDBRANCH  20  21
ENDBRANCH  19  20
ENDBRANCH  14  19
ENDBRANCH  11  14
ENDBRANCH  10  11
ENDBRANCH   2  10
BRANCH   3  23
ATOM     23  C   UNL     1      33.880 -24.657 -13.728  0.00  0.00    +0.181 C 
BRANCH  23  24
ATOM     24  O   UNL     1      34.183 -24.016 -12.494  0.00  0.00    -0.268 OA
BRANCH  24  25
ATOM     25  P   UNL     1      35.519 -24.468 -11.704  0.00  0.00    +0.473 P 
ATOM     26  O   UNL     1      35.300 -24.914 -10.288  0.00  0.00    -0.227 OA
BRANCH  25  27
ATOM     27  O   UNL     1      36.150 -25.589 -12.684  0.00  0.00    -0.303 OA
ATOM     28  H   UNL     1      37.097 -25.420 -12.802  0.00  0.00    +0.222 HD
ENDBRANCH  25  27
BRANCH  25  29
ATOM     29  O   UNL     1      36.519 -23.210 -11.886  0.00  0.00    -0.303 OA
ATOM     30  H   UNL     1      37.127 -23.169 -11.133  0.00  0.00    +0.222 HD
ENDBRANCH  25  29
ENDBRANCH  24  25
ENDBRANCH  23  24
ENDBRANCH   3  23
TORSDOF 14
ENDMDL
MODEL 3
REMARK VINA RESULT:      -7.9      3.242      6.166
REMARK  Name = 444862
REMARK  14 active torsions:
REMARK  status: ('A' for Active; 'I' for Inactive)
REMARK    1  A    between atoms: C_2  and  C_10
REMARK    2  A    between atoms: C_3  and  C_23
REMARK    3  A    between atoms: C_4  and  O_8
REMARK    4  A    between atoms: C_10  and  N_11
REMARK    5  A    between atoms: N_11  and  CA_14
REMARK    6  A    between atoms: CA_14  and  C_16
REMARK    7  A    between atoms: CA_14  and  C_19
REMARK    8  A    between atoms: C_16  and  O_17
REMARK    9  A    between atoms: C_19  and  C_20
REMARK   10  A    between atoms: C_20  and  C_21
REMARK   11  A    between atoms: C_23  and  O_24
REMARK   12  A    between atoms: O_24  and  P_25
REMARK   13  A    between atoms: P_25  and  O_27
REMARK   14  A    between atoms: P_25  and  O_29
REMARK                            x       y       z     vdW  Elec       q    Type
REMARK                         _______ _______ _______ _____ _____    ______ ____
ROOT
ATOM      1  N   UNL     1      36.467 -21.963 -17.816  0.00  0.00    -0.245 NA
ATOM      2  C   UNL     1      34.188 -23.155 -16.719  0.00  0.00    -0.009 C 
ATOM      3  C   UNL     1      35.375 -23.121 -15.995  0.00  0.00    +0.024 C 
ATOM      4  C   UNL     1      34.139 -22.594 -17.991  0.00  0.00    +0.141 C 
ATOM      5  C   UNL     1      35.295 -22.016 -18.489  0.00  0.00    +0.092 C 
ATOM      6  C   UNL     1      36.476 -22.519 -16.582  0.00  0.00    +0.096 C 
ATOM      7  C   UNL     1      35.298 -21.400 -19.850  0.00  0.00    +0.055 C 
ENDROOT
BRANCH   4   8
ATOM      8  O   UNL     1      32.993 -22.614 -18.721  0.00  0.00    -0.505 OA
ATOM      9  H   UNL     1      32.183 -22.357 -18.327  0.00  0.00    +0.292 HD
ENDBRANCH   4   8
BRANCH   2  10
ATOM     10  C   UNL     1      32.958 -23.796 -16.132  0.00  0.00    -0.051 C 
BRANCH  10  11
ATOM     11  N   UNL     1      32.005 -22.805 -15.659  0.00  0.00    +0.395 N 
ATOM     12  H1  UNL     1      32.498 -22.099 -15.113  0.00  0.00    -0.083 HD
ATOM     13  H2  UNL     1      31.552 -22.376 -16.466  0.00  0.00    -0.083 HD
BRANCH  11  14
ATOM     14  CA  UNL     1      30.980 -23.434 -14.823  0.00  0.00    +0.040 C 
BRANCH  14  16
ATOM     15  OXT UNL     1      31.683 -25.068 -13.158  0.00  0.00    -0.253 OA
ATOM     16  C   UNL     1      31.679 -23.912 -13.563  0.00  0.00    +0.293 C 
BRANCH  16  17
ATOM     17  O   UNL     1      32.292 -22.899 -12.898  0.00  0.00    -0.482 OA
ATOM     18  H   UNL     1      32.876 -22.326 -13.353  0.00  0.00    +0.295 HD
ENDBRANCH  16  17
ENDBRANCH  14  16
BRANCH  14  19
ATOM     19  C   UNL     1      30.342 -24.601 -15.585  0.00  0.00    -0.010 C 
BRANCH  19  20
ATOM     20  C   UNL     1      28.811 -24.543 -15.591  0.00  0.00    -0.002 C 
BRANCH  20  21
ATOM     21  C   UNL     1      28.299 -23.527 -16.615  0.00  0.00    -0.000 C 
ATOM     22  C   UNL     1      27.506 -22.415 -15.947  0.00  0.00    -0.000 C 
ENDBRANCH  20  21
ENDBRANCH  19  20
ENDBRANCH  14  19
ENDBRANCH  11  14
ENDBRANCH  10  11
ENDBRANCH   2  10
BRANCH   3  23
ATOM     23  C   UNL     1      35.483 -23.705 -14.630  0.00  0.00    +0.181 C 
BRANCH  23  24
ATOM     24  O   UNL     1      36.753 -24.331 -14.482  0.00  0.00    -0.268 OA
BRANCH  24  25
ATOM     25  P   UNL     1      36.876 -25.906 -14.826  0.00  0.00    +0.473 P 
ATOM     26  O   UNL     1      35.842 -26.432 -15.777  0.00  0.00    -0.227 OA
BRANCH  25  27
ATOM     27  O   UNL     1      38.405 -26.040 -15.336  0.00  0.00    -0.303 OA
ATOM     28  H   UNL     1      38.726 -25.173 -15.628  0.00  0.00    +0.222 HD
ENDBRANCH  25  27
BRANCH  25  29
ATOM     29  O   UNL     1      36.906 -26.616 -13.373  0.00  0.00    -0.303 OA
ATOM     30  H   UNL     1      37.788 -26.983 -13.210  0.00  0.00    +0.222 HD
ENDBRANCH  25  29
ENDBRANCH  24  25
ENDBRANCH  23  24
ENDBRANCH   3  23
TORSDOF 14
ENDMDL
MODEL 4
REMARK VINA RESULT:      -7.9      3.040      6.047
REMARK  Name = 444862
REMARK  14 active torsions:
REMARK  status: ('A' for Active; 'I' for Inactive)
REMARK    1  A    between atoms: C_2  and  C_10
REMARK    2  A    between atoms: C_3  and  C_23
REMARK    3  A    between atoms: C_4  and  O_8
REMARK    4  A    between atoms: C_10  and  N_11
REMARK    5  A    between atoms: N_11  and  CA_14
REMARK    6  A    between atoms: CA_14  and  C_16
REMARK    7  A    between atoms: CA_14  and  C_19
REMARK    8  A    between atoms: C_16  and  O_17
REMARK    9  A    between atoms: C_19  and  C_20
REMARK   10  A    between atoms: C_20  and  C_21
REMARK   11  A    between atoms: C_23  and  O_24
REMARK   12  A    between atoms: O_24  and  P_25
REMARK   13  A    between atoms: P_25  and  O_27
REMARK   14  A    between atoms: P_25  and  O_29
REMARK                            x       y       z     vdW  Elec       q    Type
REMARK                         _______ _______ _______ _____ _____    ______ ____
ROOT
ATOM      1  N   UNL     1      32.988 -23.882 -13.277  0.00  0.00    -0.245 NA
ATOM      2  C   UNL     1      33.323 -23.625 -16.041  0.00  0.00    -0.009 C 
ATOM      3  C   UNL     1      32.086 -23.364 -15.460  0.00  0.00    +0.024 C 
ATOM      4  C   UNL     1      34.392 -24.015 -15.241  0.00  0.00    +0.141 C 
ATOM      5  C   UNL     1      34.175 -24.127 -13.878  0.00  0.00    +0.092 C 
ATOM      6  C   UNL     1      31.972 -23.506 -14.087  0.00  0.00    +0.096 C 
ATOM      7  C   UNL     1      35.289 -24.543 -12.974  0.00  0.00    +0.055 C 
ENDROOT
BRANCH   4   8
ATOM      8  O   UNL     1      35.611 -24.277 -15.782  0.00  0.00    -0.505 OA
ATOM      9  H   UNL     1      35.703 -24.362 -16.710  0.00  0.00    +0.292 HD
ENDBRANCH   4   8
BRANCH   2  10
ATOM     10  C   UNL     1      33.507 -23.488 -17.529  0.00  0.00    -0.051 C 
BRANCH  10  11
ATOM     11  N   UNL     1      34.014 -22.175 -17.892  0.00  0.00    +0.395 N 
ATOM     12  H1  UNL     1      33.242 -21.595 -18.217  0.00  0.00    -0.083 HD
ATOM     13  H2  UNL     1      34.453 -21.754 -17.072  0.00  0.00    -0.083 HD
BRANCH  11  14
ATOM     14  CA  UNL     1      35.015 -22.285 -18.956  0.00  0.00    +0.040 C 
BRANCH  14  16
ATOM     15  OXT UNL     1      36.953 -22.209 -17.481  0.00  0.00    -0.253 OA
ATOM     16  C   UNL     1      36.308 -21.717 -18.399  0.00  0.00    +0.293 C 
BRANCH  16  17
ATOM     17  O   UNL     1      36.673 -20.564 -19.017  0.00  0.00    -0.482 OA
ATOM     18  H   UNL     1      37.570 -20.418 -19.243  0.00  0.00    +0.295 HD
ENDBRANCH  16  17
ENDBRANCH  14  16
BRANCH  14  19
ATOM     19  C   UNL     1      34.545 -21.499 -20.185  0.00  0.00    -0.010 C 
BRANCH  19  20
ATOM     20  C   UNL     1      33.173 -20.846 -19.984  0.00  0.00    -0.002 C 
BRANCH  20  21
ATOM     21  C   UNL     1      33.026 -19.588 -20.843  0.00  0.00    -0.000 C 
ATOM     22  C   UNL     1      34.371 -19.115 -21.371  0.00  0.00    -0.000 C 
ENDBRANCH  20  21
ENDBRANCH  19  20
ENDBRANCH  14  19
ENDBRANCH  11  14
ENDBRANCH  10  11
ENDBRANCH   2  10
BRANCH   3  23
ATOM     23  C   UNL     1      30.908 -22.944 -16.268  0.00  0.00    +0.181 C 
BRANCH  23  24
ATOM     24  O   UNL     1      29.841 -23.863 -16.063  0.00  0.00    -0.268 OA
BRANCH  24  25
ATOM     25  P   UNL     1      28.363 -23.445 -16.566  0.00  0.00    +0.473 P 
ATOM     26  O   UNL     1      27.730 -24.394 -17.541  0.00  0.00    -0.227 OA
BRANCH  25  27
ATOM     27  O   UNL     1      27.555 -23.252 -15.179  0.00  0.00    -0.303 OA
ATOM     28  H   UNL     1      27.203 -24.107 -14.888  0.00  0.00    +0.222 HD
ENDBRANCH  25  27
BRANCH  25  29
ATOM     29  O   UNL     1      28.552 -21.930 -17.100  0.00  0.00    -0.303 OA
ATOM     30  H   UNL     1      28.926 -21.946 -17.994  0.00  0.00    +0.222 HD
ENDBRANCH  25  29
ENDBRANCH  24  25
ENDBRANCH  23  24
ENDBRANCH   3  23
TORSDOF 14
ENDMDL
MODEL 5
REMARK VINA RESULT:      -7.9      2.914      7.099
REMARK  Name = 444862
REMARK  14 active torsions:
REMARK  status: ('A' for Active; 'I' for Inactive)
REMARK    1  A    between atoms: C_2  and  C_10
REMARK    2  A    between atoms: C_3  and  C_23
REMARK    3  A    between atoms: C_4  and  O_8
REMARK    4  A    between atoms: C_10  and  N_11
REMARK    5  A    between atoms: N_11  and  CA_14
REMARK    6  A    between atoms: CA_14  and  C_16
REMARK    7  A    between atoms: CA_14  and  C_19
REMARK    8  A    between atoms: C_16  and  O_17
REMARK    9  A    between atoms: C_19  and  C_20
REMARK   10  A    between atoms: C_20  and  C_21
REMARK   11  A    between atoms: C_23  and  O_24
REMARK   12  A    between atoms: O_24  and  P_25
REMARK   13  A    between atoms: P_25  and  O_27
REMARK   14  A    between atoms: P_25  and  O_29
REMARK                            x       y       z     vdW  Elec       q    Type
REMARK                         _______ _______ _______ _____ _____    ______ ____
ROOT
ATOM      1  N   UNL     1      37.359 -24.230 -11.219  0.00  0.00    -0.245 NA
ATOM      2  C   UNL     1      36.068 -24.438 -13.691  0.00  0.00    -0.009 C 
ATOM      3  C   UNL     1      37.446 -24.256 -13.636  0.00  0.00    +0.024 C 
ATOM      4  C   UNL     1      35.335 -24.516 -12.511  0.00  0.00    +0.141 C 
ATOM      5  C   UNL     1      36.022 -24.408 -11.313  0.00  0.00    +0.092 C 
ATOM      6  C   UNL     1      38.038 -24.158 -12.387  0.00  0.00    +0.096 C 
ATOM      7  C   UNL     1      35.282 -24.484 -10.017  0.00  0.00    +0.055 C 
ENDROOT
BRANCH   4   8
ATOM      8  O   UNL     1      33.988 -24.694 -12.535  0.00  0.00    -0.505 OA
ATOM      9  H   UNL     1      33.467 -24.240 -13.167  0.00  0.00    +0.292 HD
ENDBRANCH   4   8
BRANCH   2  10
ATOM     10  C   UNL     1      35.369 -24.551 -15.020  0.00  0.00    -0.051 C 
BRANCH  10  11
ATOM     11  N   UNL     1      34.652 -23.333 -15.359  0.00  0.00    +0.395 N 
ATOM     12  H1  UNL     1      34.434 -22.823 -14.504  0.00  0.00    -0.083 HD
ATOM     13  H2  UNL     1      35.240 -22.766 -15.970  0.00  0.00    -0.083 HD
BRANCH  11  14
ATOM     14  CA  UNL     1      33.406 -23.648 -16.063  0.00  0.00    +0.040 C 
BRANCH  14  16
ATOM     15  OXT UNL     1      32.532 -22.645 -18.104  0.00  0.00    -0.253 OA
ATOM     16  C   UNL     1      33.493 -22.976 -17.422  0.00  0.00    +0.293 C 
BRANCH  16  17
ATOM     17  O   UNL     1      34.778 -22.800 -17.828  0.00  0.00    -0.482 OA
ATOM     18  H   UNL     1      35.468 -23.284 -17.421  0.00  0.00    +0.295 HD
ENDBRANCH  16  17
ENDBRANCH  14  16
BRANCH  14  19
ATOM     19  C   UNL     1      32.215 -23.120 -15.255  0.00  0.00    -0.010 C 
BRANCH  19  20
ATOM     20  C   UNL     1      31.232 -24.226 -14.854  0.00  0.00    -0.002 C 
BRANCH  20  21
ATOM     21  C   UNL     1      30.019 -24.254 -15.787  0.00  0.00    -0.000 C 
ATOM     22  C   UNL     1      29.583 -22.851 -16.176  0.00  0.00    -0.000 C 
ENDBRANCH  20  21
ENDBRANCH  19  20
ENDBRANCH  14  19
ENDBRANCH  11  14
ENDBRANCH  10  11
ENDBRANCH   2  10
BRANCH   3  23
ATOM     23  C   UNL     1      38.279 -24.165 -14.866  0.00  0.00    +0.181 C 
BRANCH  23  24
ATOM     24  O   UNL     1      39.629 -24.487 -14.550  0.00  0.00    -0.268 OA
BRANCH  24  25
ATOM     25  P   UNL     1      40.150 -25.988 -14.853  0.00  0.00    +0.473 P 
ATOM     26  O   UNL     1      41.261 -26.467 -13.965  0.00  0.00    -0.227 OA
BRANCH  25  27
ATOM     27  O   UNL     1      38.790 -26.859 -14.775  0.00  0.00    -0.303 OA
ATOM     28  H   UNL     1      38.036 -26.307 -15.034  0.00  0.00    +0.222 HD
ENDBRANCH  25  27
BRANCH  25  29
ATOM     29  O   UNL     1      40.488 -25.966 -16.434  0.00  0.00    -0.303 OA
ATOM     30  H   UNL     1      40.602 -26.874 -16.753  0.00  0.00    +0.222 HD
ENDBRANCH  25  29
ENDBRANCH  24  25
ENDBRANCH  23  24
ENDBRANCH   3  23
TORSDOF 14
ENDMDL
MODEL 6
REMARK VINA RESULT:      -7.9      3.028      6.293
REMARK  Name = 444862
REMARK  14 active torsions:
REMARK  status: ('A' for Active; 'I' for Inactive)
REMARK    1  A    between atoms: C_2  and  C_10
REMARK    2  A    between atoms: C_3  and  C_23
REMARK    3  A    between atoms: C_4  and  O_8
REMARK    4  A    between atoms: C_10  and  N_11
REMARK    5  A    between atoms: N_11  and  CA_14
REMARK    6  A    between atoms: CA_14  and  C_16
REMARK    7  A    between atoms: CA_14  and  C_19
REMARK    8  A    between atoms: C_16  and  O_17
REMARK    9  A    between atoms: C_19  and  C_20
REMARK   10  A    between atoms: C_20  and  C_21
REMARK   11  A    between atoms: C_23  and  O_24
REMARK   12  A    between atoms: O_24  and  P_25
REMARK   13  A    between atoms: P_25  and  O_27
REMARK   14  A    between atoms: P_25  and  O_29
REMARK                            x       y       z     vdW  Elec       q    Type
REMARK                         _______ _______ _______ _____ _____    ______ ____
ROOT
ATOM      1  N   UNL     1      31.730 -23.585 -13.680  0.00  0.00    -0.245 NA
ATOM      2  C   UNL     1      33.190 -23.494 -16.063  0.00  0.00    -0.009 C 
ATOM      3  C   UNL     1      33.807 -23.890 -14.880  0.00  0.00    +0.024 C 
ATOM      4  C   UNL     1      31.844 -23.144 -16.054  0.00  0.00    +0.141 C 
ATOM      5  C   UNL     1      31.165 -23.206 -14.848  0.00  0.00    +0.092 C 
ATOM      6  C   UNL     1      33.040 -23.918 -13.727  0.00  0.00    +0.096 C 
ATOM      7  C   UNL     1      29.718 -22.841 -14.784  0.00  0.00    +0.055 C 
ENDROOT
BRANCH   4   8
ATOM      8  O   UNL     1      31.215 -22.754 -17.194  0.00  0.00    -0.505 OA
ATOM      9  H   UNL     1      31.380 -23.206 -17.998  0.00  0.00    +0.292 HD
ENDBRANCH   4   8
BRANCH   2  10
ATOM     10  C   UNL     1      33.973 -23.444 -17.348  0.00  0.00    -0.051 C 
BRANCH  10  11
ATOM     11  N   UNL     1      34.281 -22.078 -17.740  0.00  0.00    +0.395 N 
ATOM     12  H1  UNL     1      33.446 -21.646 -18.134  0.00  0.00    -0.083 HD
ATOM     13  H2  UNL     1      34.592 -21.562 -16.917  0.00  0.00    -0.083 HD
BRANCH  11  14
ATOM     14  CA  UNL     1      35.352 -22.058 -18.740  0.00  0.00    +0.040 C 
BRANCH  14  16
ATOM     15  OXT UNL     1      37.102 -20.485 -18.110  0.00  0.00    -0.253 OA
ATOM     16  C   UNL     1      36.609 -21.602 -18.022  0.00  0.00    +0.293 C 
BRANCH  16  17
ATOM     17  O   UNL     1      37.163 -22.593 -17.274  0.00  0.00    -0.482 OA
ATOM     18  H   UNL     1      38.094 -22.683 -17.233  0.00  0.00    +0.295 HD
ENDBRANCH  16  17
ENDBRANCH  14  16
BRANCH  14  19
ATOM     19  C   UNL     1      34.976 -21.096 -19.873  0.00  0.00    -0.010 C 
BRANCH  19  20
ATOM     20  C   UNL     1      33.461 -20.920 -20.026  0.00  0.00    -0.002 C 
BRANCH  20  21
ATOM     21  C   UNL     1      33.129 -19.687 -20.869  0.00  0.00    -0.000 C 
ATOM     22  C   UNL     1      34.386 -19.042 -21.431  0.00  0.00    -0.000 C 
ENDBRANCH  20  21
ENDBRANCH  19  20
ENDBRANCH  14  19
ENDBRANCH  11  14
ENDBRANCH  10  11
ENDBRANCH   2  10
BRANCH   3  23
ATOM     23  C   UNL     1      35.245 -24.275 -14.831  0.00  0.00    +0.181 C 
BRANCH  23  24
ATOM     24  O   UNL     1      35.365 -25.680 -15.017  0.00  0.00    -0.268 OA
BRANCH  24  25
ATOM     25  P   UNL     1      36.848 -26.325 -15.046  0.00  0.00    +0.473 P 
ATOM     26  O   UNL     1      37.289 -26.964 -13.762  0.00  0.00    -0.227 OA
BRANCH  25  27
ATOM     27  O   UNL     1      36.777 -27.322 -16.317  0.00  0.00    -0.303 OA
ATOM     28  H   UNL     1      36.452 -28.189 -16.030  0.00  0.00    +0.222 HD
ENDBRANCH  25  27
BRANCH  25  29
ATOM     29  O   UNL     1      37.783 -25.116 -15.574  0.00  0.00    -0.303 OA
ATOM     30  H   UNL     1      38.591 -25.076 -15.039  0.00  0.00    +0.222 HD
ENDBRANCH  25  29
ENDBRANCH  24  25
ENDBRANCH  23  24
ENDBRANCH   3  23
TORSDOF 14
ENDMDL
MODEL 7
REMARK VINA RESULT:      -7.9      3.271      6.020
REMARK  Name = 444862
REMARK  14 active torsions:
REMARK  status: ('A' for Active; 'I' for Inactive)
REMARK    1  A    between atoms: C_2  and  C_10
REMARK    2  A    between atoms: C_3  and  C_23
REMARK    3  A    between atoms: C_4  and  O_8
REMARK    4  A    between atoms: C_10  and  N_11
REMARK    5  A    between atoms: N_11  and  CA_14
REMARK    6  A    between atoms: CA_14  and  C_16
REMARK    7  A    between atoms: CA_14  and  C_19
REMARK    8  A    between atoms: C_16  and  O_17
REMARK    9  A    between atoms: C_19  and  C_20
REMARK   10  A    between atoms: C_20  and  C_21
REMARK   11  A    between atoms: C_23  and  O_24
REMARK   12  A    between atoms: O_24  and  P_25
REMARK   13  A    between atoms: P_25  and  O_27
REMARK   14  A    between atoms: P_25  and  O_29
REMARK                            x       y       z     vdW  Elec       q    Type
REMARK                         _______ _______ _______ _____ _____    ______ ____
ROOT
ATOM      1  N   UNL     1      36.469 -22.049 -17.657  0.00  0.00    -0.245 NA
ATOM      2  C   UNL     1      34.109 -23.196 -16.693  0.00  0.00    -0.009 C 
ATOM      3  C   UNL     1      35.267 -23.229 -15.922  0.00  0.00    +0.024 C 
ATOM      4  C   UNL     1      34.131 -22.590 -17.945  0.00  0.00    +0.141 C 
ATOM      5  C   UNL     1      35.324 -22.036 -18.376  0.00  0.00    +0.092 C 
ATOM      6  C   UNL     1      36.410 -22.647 -16.445  0.00  0.00    +0.096 C 
ATOM      7  C   UNL     1      35.402 -21.374 -19.713  0.00  0.00    +0.055 C 
ENDROOT
BRANCH   4   8
ATOM      8  O   UNL     1      33.014 -22.543 -18.719  0.00  0.00    -0.505 OA
ATOM      9  H   UNL     1      32.856 -21.801 -19.268  0.00  0.00    +0.292 HD
ENDBRANCH   4   8
BRANCH   2  10
ATOM     10  C   UNL     1      32.835 -23.812 -16.177  0.00  0.00    -0.051 C 
BRANCH  10  11
ATOM     11  N   UNL     1      31.919 -22.809 -15.662  0.00  0.00    +0.395 N 
ATOM     12  H1  UNL     1      32.443 -22.119 -15.124  0.00  0.00    -0.083 HD
ATOM     13  H2  UNL     1      31.448 -22.360 -16.448  0.00  0.00    -0.083 HD
BRANCH  11  14
ATOM     14  CA  UNL     1      30.909 -23.427 -14.799  0.00  0.00    +0.040 C 
BRANCH  14  16
ATOM     15  OXT UNL     1      31.648 -25.050 -13.139  0.00  0.00    -0.253 OA
ATOM     16  C   UNL     1      31.632 -23.897 -13.550  0.00  0.00    +0.293 C 
BRANCH  16  17
ATOM     17  O   UNL     1      32.253 -22.877 -12.900  0.00  0.00    -0.482 OA
ATOM     18  H   UNL     1      32.902 -22.368 -13.343  0.00  0.00    +0.295 HD
ENDBRANCH  16  17
ENDBRANCH  14  16
BRANCH  14  19
ATOM     19  C   UNL     1      30.253 -24.599 -15.538  0.00  0.00    -0.010 C 
BRANCH  19  20
ATOM     20  C   UNL     1      28.723 -24.513 -15.551  0.00  0.00    -0.002 C 
BRANCH  20  21
ATOM     21  C   UNL     1      28.232 -23.528 -16.614  0.00  0.00    -0.000 C 
ATOM     22  C   UNL     1      27.444 -22.386 -15.994  0.00  0.00    -0.000 C 
ENDBRANCH  20  21
ENDBRANCH  19  20
ENDBRANCH  14  19
ENDBRANCH  11  14
ENDBRANCH  10  11
ENDBRANCH   2  10
BRANCH   3  23
ATOM     23  C   UNL     1      35.301 -23.864 -14.576  0.00  0.00    +0.181 C 
BRANCH  23  24
ATOM     24  O   UNL     1      36.240 -23.182 -13.753  0.00  0.00    -0.268 OA
BRANCH  24  25
ATOM     25  P   UNL     1      36.330 -23.591 -12.192  0.00  0.00    +0.473 P 
ATOM     26  O   UNL     1      37.245 -22.737 -11.362  0.00  0.00    -0.227 OA
BRANCH  25  27
ATOM     27  O   UNL     1      34.781 -23.580 -11.731  0.00  0.00    -0.303 OA
ATOM     28  H   UNL     1      34.518 -24.473 -11.458  0.00  0.00    +0.222 HD
ENDBRANCH  25  27
BRANCH  25  29
ATOM     29  O   UNL     1      36.697 -25.166 -12.227  0.00  0.00    -0.303 OA
ATOM     30  H   UNL     1      36.852 -25.482 -11.324  0.00  0.00    +0.222 HD
ENDBRANCH  25  29
ENDBRANCH  24  25
ENDBRANCH  23  24
ENDBRANCH   3  23
TORSDOF 14
ENDMDL
MODEL 8
REMARK VINA RESULT:      -7.8      3.199      6.117
REMARK  Name = 444862
REMARK  14 active torsions:
REMARK  status: ('A' for Active; 'I' for Inactive)
REMARK    1  A    between atoms: C_2  and  C_10
REMARK    2  A    between atoms: C_3  and  C_23
REMARK    3  A    between atoms: C_4  and  O_8
REMARK    4  A    between atoms: C_10  and  N_11
REMARK    5  A    between atoms: N_11  and  CA_14
REMARK    6  A    between atoms: CA_14  and  C_16
REMARK    7  A    between atoms: CA_14  and  C_19
REMARK    8  A    between atoms: C_16  and  O_17
REMARK    9  A    between atoms: C_19  and  C_20
REMARK   10  A    between atoms: C_20  and  C_21
REMARK   11  A    between atoms: C_23  and  O_24
REMARK   12  A    between atoms: O_24  and  P_25
REMARK   13  A    between atoms: P_25  and  O_27
REMARK   14  A    between atoms: P_25  and  O_29
REMARK                            x       y       z     vdW  Elec       q    Type
REMARK                         _______ _______ _______ _____ _____    ______ ____
ROOT
ATOM      1  N   UNL     1      30.657 -23.223 -13.808  0.00  0.00    -0.245 NA
ATOM      2  C   UNL     1      32.631 -23.460 -15.774  0.00  0.00    -0.009 C 
ATOM      3  C   UNL     1      32.921 -23.780 -14.451  0.00  0.00    +0.024 C 
ATOM      4  C   UNL     1      31.356 -23.022 -16.114  0.00  0.00    +0.141 C 
ATOM      5  C   UNL     1      30.413 -22.922 -15.104  0.00  0.00    +0.092 C 
ATOM      6  C   UNL     1      31.908 -23.646 -13.515  0.00  0.00    +0.096 C 
ATOM      7  C   UNL     1      29.029 -22.457 -15.415  0.00  0.00    +0.055 C 
ENDROOT
BRANCH   4   8
ATOM      8  O   UNL     1      31.045 -22.702 -17.398  0.00  0.00    -0.505 OA
ATOM      9  H   UNL     1      30.919 -21.806 -17.640  0.00  0.00    +0.292 HD
ENDBRANCH   4   8
BRANCH   2  10
ATOM     10  C   UNL     1      33.692 -23.586 -16.835  0.00  0.00    -0.051 C 
BRANCH  10  11
ATOM     11  N   UNL     1      33.983 -22.308 -17.464  0.00  0.00    +0.395 N 
ATOM     12  H1  UNL     1      33.110 -21.874 -17.762  0.00  0.00    -0.083 HD
ATOM     13  H2  UNL     1      34.461 -21.712 -16.788  0.00  0.00    -0.083 HD
BRANCH  11  14
ATOM     14  CA  UNL     1      34.853 -22.492 -18.628  0.00  0.00    +0.040 C 
BRANCH  14  16
ATOM     15  OXT UNL     1      36.544 -20.763 -18.920  0.00  0.00    -0.253 OA
ATOM     16  C   UNL     1      36.146 -21.757 -18.326  0.00  0.00    +0.293 C 
BRANCH  16  17
ATOM     17  O   UNL     1      36.849 -22.343 -17.322  0.00  0.00    -0.482 OA
ATOM     18  H   UNL     1      36.412 -22.899 -16.708  0.00  0.00    +0.295 HD
ENDBRANCH  16  17
ENDBRANCH  14  16
BRANCH  14  19
ATOM     19  C   UNL     1      34.166 -21.923 -19.875  0.00  0.00    -0.010 C 
BRANCH  19  20
ATOM     20  C   UNL     1      33.042 -20.938 -19.537  0.00  0.00    -0.002 C 
BRANCH  20  21
ATOM     21  C   UNL     1      32.865 -19.898 -20.646  0.00  0.00    -0.000 C 
ATOM     22  C   UNL     1      34.203 -19.469 -21.226  0.00  0.00    -0.000 C 
ENDBRANCH  20  21
ENDBRANCH  19  20
ENDBRANCH  14  19
ENDBRANCH  11  14
ENDBRANCH  10  11
ENDBRANCH   2  10
BRANCH   3  23
ATOM     23  C   UNL     1      34.269 -24.253 -14.031  0.00  0.00    +0.181 C 
BRANCH  23  24
ATOM     24  O   UNL     1      34.277 -24.472 -12.625  0.00  0.00    -0.268 OA
BRANCH  24  25
ATOM     25  P   UNL     1      35.703 -24.508 -11.864  0.00  0.00    +0.473 P 
ATOM     26  O   UNL     1      36.510 -23.247 -11.965  0.00  0.00    -0.227 OA
BRANCH  25  27
ATOM     27  O   UNL     1      35.293 -24.938 -10.360  0.00  0.00    -0.303 OA
ATOM     28  H   UNL     1      34.531 -25.537 -10.391  0.00  0.00    +0.222 HD
ENDBRANCH  25  27
BRANCH  25  29
ATOM     29  O   UNL     1      36.418 -25.836 -12.448  0.00  0.00    -0.303 OA
ATOM     30  H   UNL     1      35.745 -26.432 -12.810  0.00  0.00    +0.222 HD
ENDBRANCH  25  29
ENDBRANCH  24  25
ENDBRANCH  23  24
ENDBRANCH   3  23
TORSDOF 14
ENDMDL
MODEL 9
REMARK VINA RESULT:      -7.8      3.291      6.907
REMARK  Name = 444862
REMARK  14 active torsions:
REMARK  status: ('A' for Active; 'I' for Inactive)
REMARK    1  A    between atoms: C_2  and  C_10
REMARK    2  A    between atoms: C_3  and  C_23
REMARK    3  A    between atoms: C_4  and  O_8
REMARK    4  A    between atoms: C_10  and  N_11
REMARK    5  A    between atoms: N_11  and  CA_14
REMARK    6  A    between atoms: CA_14  and  C_16
REMARK    7  A    between atoms: CA_14  and  C_19
REMARK    8  A    between atoms: C_16  and  O_17
REMARK    9  A    between atoms: C_19  and  C_20
REMARK   10  A    between atoms: C_20  and  C_21
REMARK   11  A    between atoms: C_23  and  O_24
REMARK   12  A    between atoms: O_24  and  P_25
REMARK   13  A    between atoms: P_25  and  O_27
REMARK   14  A    between atoms: P_25  and  O_29
REMARK                            x       y       z     vdW  Elec       q    Type
REMARK                         _______ _______ _______ _____ _____    ______ ____
ROOT
ATOM      1  N   UNL     1      37.311 -22.941 -14.371  0.00  0.00    -0.245 NA
ATOM      2  C   UNL     1      34.657 -23.818 -14.278  0.00  0.00    -0.009 C 
ATOM      3  C   UNL     1      35.241 -23.488 -15.496  0.00  0.00    +0.024 C 
ATOM      4  C   UNL     1      35.400 -23.710 -13.106  0.00  0.00    +0.141 C 
ATOM      5  C   UNL     1      36.709 -23.271 -13.206  0.00  0.00    +0.092 C 
ATOM      6  C   UNL     1      36.558 -23.058 -15.489  0.00  0.00    +0.096 C 
ATOM      7  C   UNL     1      37.550 -23.137 -11.979  0.00  0.00    +0.055 C 
ENDROOT
BRANCH   4   8
ATOM      8  O   UNL     1      34.855 -24.026 -11.901  0.00  0.00    -0.505 OA
ATOM      9  H   UNL     1      34.327 -23.399 -11.447  0.00  0.00    +0.292 HD
ENDBRANCH   4   8
BRANCH   2  10
ATOM     10  C   UNL     1      33.229 -24.291 -14.223  0.00  0.00    -0.051 C 
BRANCH  10  11
ATOM     11  N   UNL     1      32.331 -23.247 -13.759  0.00  0.00    +0.395 N 
ATOM     12  H1  UNL     1      32.275 -23.279 -12.741  0.00  0.00    -0.083 HD
ATOM     13  H2  UNL     1      32.693 -22.343 -14.064  0.00  0.00    -0.083 HD
BRANCH  11  14
ATOM     14  CA  UNL     1      30.991 -23.431 -14.321  0.00  0.00    +0.040 C 
BRANCH  14  16
ATOM     15  OXT UNL     1      30.300 -25.745 -14.639  0.00  0.00    -0.253 OA
ATOM     16  C   UNL     1      30.521 -24.806 -13.885  0.00  0.00    +0.293 C 
BRANCH  16  17
ATOM     17  O   UNL     1      30.338 -24.886 -12.541  0.00  0.00    -0.482 OA
ATOM     18  H   UNL     1      30.586 -25.662 -12.080  0.00  0.00    +0.295 HD
ENDBRANCH  16  17
ENDBRANCH  14  16
BRANCH  14  19
ATOM     19  C   UNL     1      31.058 -23.323 -15.849  0.00  0.00    -0.010 C 
BRANCH  19  20
ATOM     20  C   UNL     1      29.798 -22.696 -16.457  0.00  0.00    -0.002 C 
BRANCH  20  21
ATOM     21  C   UNL     1      28.760 -22.381 -15.378  0.00  0.00    -0.000 C 
ATOM     22  C   UNL     1      27.346 -22.428 -15.935  0.00  0.00    -0.000 C 
ENDBRANCH  20  21
ENDBRANCH  19  20
ENDBRANCH  14  19
ENDBRANCH  11  14
ENDBRANCH  10  11
ENDBRANCH   2  10
BRANCH   3  23
ATOM     23  C   UNL     1      34.494 -23.584 -16.781  0.00  0.00    +0.181 C 
BRANCH  23  24
ATOM     24  O   UNL     1      34.912 -22.540 -17.652  0.00  0.00    -0.268 OA
BRANCH  24  25
ATOM     25  P   UNL     1      34.145 -22.368 -19.065  0.00  0.00    +0.473 P 
ATOM     26  O   UNL     1      34.763 -21.377 -20.008  0.00  0.00    -0.227 OA
BRANCH  25  27
ATOM     27  O   UNL     1      34.074 -23.885 -19.618  0.00  0.00    -0.303 OA
ATOM     28  H   UNL     1      33.916 -23.874 -20.575  0.00  0.00    +0.222 HD
ENDBRANCH  25  27
BRANCH  25  29
ATOM     29  O   UNL     1      32.616 -22.056 -18.638  0.00  0.00    -0.303 OA
ATOM     30  H   UNL     1      32.464 -21.099 -18.656  0.00  0.00    +0.222 HD
ENDBRANCH  25  29
ENDBRANCH  24  25
ENDBRANCH  23  24
ENDBRANCH   3  23
TORSDOF 14
ENDMDL
