MODEL 1
REMARK VINA RESULT:      -5.9      0.000      0.000
REMARK  Name = 4282
REMARK  14 active torsions:
REMARK  status: ('A' for Active; 'I' for Inactive)
REMARK    1  A    between atoms: C_1  and  C_2
REMARK    2  A    between atoms: C_1  and  C_14
REMARK    3  A    between atoms: C_2  and  N_3
REMARK    4  A    between atoms: N_3  and  C_6
REMARK    5  A    between atoms: C_6  and  C_7
REMARK    6  A    between atoms: C_7  and  C_8
REMARK    7  A    between atoms: C_8  and  N_9
REMARK    8  A    between atoms: N_9  and  C_12
REMARK    9  A    between atoms: C_14  and  N_15
REMARK   10  A    between atoms: N_15  and  C_18
REMARK   11  A    between atoms: C_18  and  C_19
REMARK   12  A    between atoms: C_19  and  C_20
REMARK   13  A    between atoms: C_20  and  N_21
REMARK   14  A    between atoms: N_21  and  C_24
REMARK                            x       y       z     vdW  Elec       q    Type
REMARK                         _______ _______ _______ _____ _____    ______ ____
ROOT
ATOM      1  C   UNL     1      32.961 -20.305 -20.145  0.00  0.00    -0.047 C 
ENDROOT
BRANCH   1   2
ATOM      2  C   UNL     1      33.570 -21.626 -19.672  0.00  0.00    -0.084 C 
BRANCH   2   3
ATOM      3  N   UNL     1      32.707 -22.250 -18.678  0.00  0.00    +0.384 N 
ATOM      4  H   UNL     1      32.036 -22.854 -19.152  0.00  0.00    -0.085 HD
ATOM      5  H   UNL     1      32.223 -21.516 -18.160  0.00  0.00    -0.085 HD
BRANCH   3   6
ATOM      6  C   UNL     1      33.487 -23.046 -17.739  0.00  0.00    -0.084 C 
BRANCH   6   7
ATOM      7  C   UNL     1      32.733 -23.288 -16.430  0.00  0.00    -0.047 C 
BRANCH   7   8
ATOM      8  C   UNL     1      33.665 -23.487 -15.232  0.00  0.00    -0.084 C 
BRANCH   8   9
ATOM      9  N   UNL     1      35.002 -23.848 -15.690  0.00  0.00    +0.384 N 
ATOM     10  H   UNL     1      35.031 -23.799 -16.709  0.00  0.00    -0.085 HD
ATOM     11  H   UNL     1      35.211 -24.795 -15.374  0.00  0.00    -0.085 HD
BRANCH   9  12
ATOM     12  C   UNL     1      36.000 -22.942 -15.141  0.00  0.00    -0.082 C 
ATOM     13  C   UNL     1      36.888 -22.375 -16.237  0.00  0.00    -0.026 C 
ENDBRANCH   9  12
ENDBRANCH   8   9
ENDBRANCH   7   8
ENDBRANCH   6   7
ENDBRANCH   3   6
ENDBRANCH   2   3
ENDBRANCH   1   2
BRANCH   1  14
ATOM     14  C   UNL     1      33.827 -19.586 -21.182  0.00  0.00    -0.084 C 
BRANCH  14  15
ATOM     15  N   UNL     1      35.151 -19.271 -20.662  0.00  0.00    +0.384 N 
ATOM     16  H   UNL     1      35.786 -20.041 -20.875  0.00  0.00    -0.085 HD
ATOM     17  H   UNL     1      35.082 -19.134 -19.653  0.00  0.00    -0.085 HD
BRANCH  15  18
ATOM     18  C   UNL     1      35.668 -18.048 -21.261  0.00  0.00    -0.084 C 
BRANCH  18  19
ATOM     19  C   UNL     1      34.572 -16.999 -21.460  0.00  0.00    -0.047 C 
BRANCH  19  20
ATOM     20  C   UNL     1      34.830 -16.085 -22.659  0.00  0.00    -0.084 C 
BRANCH  20  21
ATOM     21  N   UNL     1      35.573 -16.803 -23.689  0.00  0.00    +0.384 N 
ATOM     22  H   UNL     1      35.925 -17.677 -23.299  0.00  0.00    -0.085 HD
ATOM     23  H   UNL     1      36.347 -16.216 -24.002  0.00  0.00    -0.085 HD
BRANCH  21  24
ATOM     24  C   UNL     1      34.722 -17.099 -24.832  0.00  0.00    -0.082 C 
ATOM     25  C   UNL     1      34.398 -18.581 -24.907  0.00  0.00    -0.026 C 
ENDBRANCH  21  24
ENDBRANCH  20  21
ENDBRANCH  19  20
ENDBRANCH  18  19
ENDBRANCH  15  18
ENDBRANCH  14  15
ENDBRANCH   1  14
TORSDOF 14
ENDMDL
MODEL 2
REMARK VINA RESULT:      -5.8      2.659      4.666
REMARK  Name = 4282
REMARK  14 active torsions:
REMARK  status: ('A' for Active; 'I' for Inactive)
REMARK    1  A    between atoms: C_1  and  C_2
REMARK    2  A    between atoms: C_1  and  C_14
REMARK    3  A    between atoms: C_2  and  N_3
REMARK    4  A    between atoms: N_3  and  C_6
REMARK    5  A    between atoms: C_6  and  C_7
REMARK    6  A    between atoms: C_7  and  C_8
REMARK    7  A    between atoms: C_8  and  N_9
REMARK    8  A    between atoms: N_9  and  C_12
REMARK    9  A    between atoms: C_14  and  N_15
REMARK   10  A    between atoms: N_15  and  C_18
REMARK   11  A    between atoms: C_18  and  C_19
REMARK   12  A    between atoms: C_19  and  C_20
REMARK   13  A    between atoms: C_20  and  N_21
REMARK   14  A    between atoms: N_21  and  C_24
REMARK                            x       y       z     vdW  Elec       q    Type
REMARK                         _______ _______ _______ _____ _____    ______ ____
ROOT
ATOM      1  C   UNL     1      35.106 -18.829 -23.077  0.00  0.00    -0.047 C 
ENDROOT
BRANCH   1   2
ATOM      2  C   UNL     1      36.077 -18.508 -21.940  0.00  0.00    -0.084 C 
BRANCH   2   3
ATOM      3  N   UNL     1      35.549 -19.000 -20.675  0.00  0.00    +0.384 N 
ATOM      4  H   UNL     1      34.544 -19.150 -20.769  0.00  0.00    -0.085 HD
ATOM      5  H   UNL     1      35.740 -18.308 -19.951  0.00  0.00    -0.085 HD
BRANCH   3   6
ATOM      6  C   UNL     1      36.185 -20.257 -20.298  0.00  0.00    -0.084 C 
BRANCH   6   7
ATOM      7  C   UNL     1      35.195 -21.228 -19.651  0.00  0.00    -0.047 C 
BRANCH   7   8
ATOM      8  C   UNL     1      33.741 -20.936 -20.028  0.00  0.00    -0.084 C 
BRANCH   8   9
ATOM      9  N   UNL     1      32.839 -21.762 -19.231  0.00  0.00    +0.384 N 
ATOM     10  H   UNL     1      32.190 -22.243 -19.855  0.00  0.00    -0.085 HD
ATOM     11  H   UNL     1      32.331 -21.160 -18.584  0.00  0.00    -0.085 HD
BRANCH   9  12
ATOM     12  C   UNL     1      33.583 -22.750 -18.464  0.00  0.00    -0.082 C 
ATOM     13  C   UNL     1      32.794 -23.207 -17.248  0.00  0.00    -0.026 C 
ENDBRANCH   9  12
ENDBRANCH   8   9
ENDBRANCH   7   8
ENDBRANCH   6   7
ENDBRANCH   3   6
ENDBRANCH   2   3
ENDBRANCH   1   2
BRANCH   1  14
ATOM     14  C   UNL     1      34.825 -17.624 -23.979  0.00  0.00    -0.084 C 
BRANCH  14  15
ATOM     15  N   UNL     1      35.545 -16.435 -23.540  0.00  0.00    +0.384 N 
ATOM     16  H   UNL     1      36.064 -16.049 -24.329  0.00  0.00    -0.085 HD
ATOM     17  H   UNL     1      36.182 -16.698 -22.788  0.00  0.00    -0.085 HD
BRANCH  15  18
ATOM     18  C   UNL     1      34.623 -15.425 -23.037  0.00  0.00    -0.084 C 
BRANCH  18  19
ATOM     19  C   UNL     1      33.843 -14.747 -24.165  0.00  0.00    -0.047 C 
BRANCH  19  20
ATOM     20  C   UNL     1      33.184 -13.436 -23.732  0.00  0.00    -0.084 C 
BRANCH  20  21
ATOM     21  N   UNL     1      34.137 -12.336 -23.834  0.00  0.00    +0.384 N 
ATOM     22  H   UNL     1      35.079 -12.693 -23.675  0.00  0.00    -0.085 HD
ATOM     23  H   UNL     1      33.900 -11.634 -23.132  0.00  0.00    -0.085 HD
BRANCH  21  24
ATOM     24  C   UNL     1      34.076 -11.718 -25.150  0.00  0.00    -0.082 C 
ATOM     25  C   UNL     1      34.900 -10.442 -25.196  0.00  0.00    -0.026 C 
ENDBRANCH  21  24
ENDBRANCH  20  21
ENDBRANCH  19  20
ENDBRANCH  18  19
ENDBRANCH  15  18
ENDBRANCH  14  15
ENDBRANCH   1  14
TORSDOF 14
ENDMDL
MODEL 3
REMARK VINA RESULT:      -5.8      1.475      2.365
REMARK  Name = 4282
REMARK  14 active torsions:
REMARK  status: ('A' for Active; 'I' for Inactive)
REMARK    1  A    between atoms: C_1  and  C_2
REMARK    2  A    between atoms: C_1  and  C_14
REMARK    3  A    between atoms: C_2  and  N_3
REMARK    4  A    between atoms: N_3  and  C_6
REMARK    5  A    between atoms: C_6  and  C_7
REMARK    6  A    between atoms: C_7  and  C_8
REMARK    7  A    between atoms: C_8  and  N_9
REMARK    8  A    between atoms: N_9  and  C_12
REMARK    9  A    between atoms: C_14  and  N_15
REMARK   10  A    between atoms: N_15  and  C_18
REMARK   11  A    between atoms: C_18  and  C_19
REMARK   12  A    between atoms: C_19  and  C_20
REMARK   13  A    between atoms: C_20  and  N_21
REMARK   14  A    between atoms: N_21  and  C_24
REMARK                            x       y       z     vdW  Elec       q    Type
REMARK                         _______ _______ _______ _____ _____    ______ ____
ROOT
ATOM      1  C   UNL     1      33.250 -20.721 -20.061  0.00  0.00    -0.047 C 
ENDROOT
BRANCH   1   2
ATOM      2  C   UNL     1      34.253 -21.720 -19.482  0.00  0.00    -0.084 C 
BRANCH   2   3
ATOM      3  N   UNL     1      33.568 -22.938 -19.070  0.00  0.00    +0.384 N 
ATOM      4  H   UNL     1      34.252 -23.690 -18.980  0.00  0.00    -0.085 HD
ATOM      5  H   UNL     1      32.870 -23.173 -19.775  0.00  0.00    -0.085 HD
BRANCH   3   6
ATOM      6  C   UNL     1      32.895 -22.750 -17.791  0.00  0.00    -0.084 C 
BRANCH   6   7
ATOM      7  C   UNL     1      33.681 -23.371 -16.634  0.00  0.00    -0.047 C 
BRANCH   7   8
ATOM      8  C   UNL     1      32.898 -23.383 -15.320  0.00  0.00    -0.084 C 
BRANCH   8   9
ATOM      9  N   UNL     1      31.498 -23.054 -15.565  0.00  0.00    +0.384 N 
ATOM     10  H   UNL     1      31.208 -23.467 -16.452  0.00  0.00    -0.085 HD
ATOM     11  H   UNL     1      31.402 -22.039 -15.598  0.00  0.00    -0.085 HD
BRANCH   9  12
ATOM     12  C   UNL     1      30.650 -23.568 -14.500  0.00  0.00    -0.082 C 
ATOM     13  C   UNL     1      30.798 -25.074 -14.360  0.00  0.00    -0.026 C 
ENDBRANCH   9  12
ENDBRANCH   8   9
ENDBRANCH   7   8
ENDBRANCH   6   7
ENDBRANCH   3   6
ENDBRANCH   2   3
ENDBRANCH   1   2
BRANCH   1  14
ATOM     14  C   UNL     1      33.909 -19.657 -20.943  0.00  0.00    -0.084 C 
BRANCH  14  15
ATOM     15  N   UNL     1      35.322 -19.487 -20.629  0.00  0.00    +0.384 N 
ATOM     16  H   UNL     1      35.841 -20.294 -20.978  0.00  0.00    -0.085 HD
ATOM     17  H   UNL     1      35.425 -19.408 -19.617  0.00  0.00    -0.085 HD
BRANCH  15  18
ATOM     18  C   UNL     1      35.850 -18.278 -21.245  0.00  0.00    -0.084 C 
BRANCH  18  19
ATOM     19  C   UNL     1      34.810 -17.157 -21.291  0.00  0.00    -0.047 C 
BRANCH  19  20
ATOM     20  C   UNL     1      34.851 -16.357 -22.595  0.00  0.00    -0.084 C 
BRANCH  20  21
ATOM     21  N   UNL     1      35.625 -17.075 -23.602  0.00  0.00    +0.384 N 
ATOM     22  H   UNL     1      35.982 -17.940 -23.196  0.00  0.00    -0.085 HD
ATOM     23  H   UNL     1      36.396 -16.480 -23.905  0.00  0.00    -0.085 HD
BRANCH  21  24
ATOM     24  C   UNL     1      34.802 -17.395 -24.759  0.00  0.00    -0.082 C 
ATOM     25  C   UNL     1      34.428 -18.868 -24.777  0.00  0.00    -0.026 C 
ENDBRANCH  21  24
ENDBRANCH  20  21
ENDBRANCH  19  20
ENDBRANCH  18  19
ENDBRANCH  15  18
ENDBRANCH  14  15
ENDBRANCH   1  14
TORSDOF 14
ENDMDL
MODEL 4
REMARK VINA RESULT:      -5.7      1.949      3.526
REMARK  Name = 4282
REMARK  14 active torsions:
REMARK  status: ('A' for Active; 'I' for Inactive)
REMARK    1  A    between atoms: C_1  and  C_2
REMARK    2  A    between atoms: C_1  and  C_14
REMARK    3  A    between atoms: C_2  and  N_3
REMARK    4  A    between atoms: N_3  and  C_6
REMARK    5  A    between atoms: C_6  and  C_7
REMARK    6  A    between atoms: C_7  and  C_8
REMARK    7  A    between atoms: C_8  and  N_9
REMARK    8  A    between atoms: N_9  and  C_12
REMARK    9  A    between atoms: C_14  and  N_15
REMARK   10  A    between atoms: N_15  and  C_18
REMARK   11  A    between atoms: C_18  and  C_19
REMARK   12  A    between atoms: C_19  and  C_20
REMARK   13  A    between atoms: C_20  and  N_21
REMARK   14  A    between atoms: N_21  and  C_24
REMARK                            x       y       z     vdW  Elec       q    Type
REMARK                         _______ _______ _______ _____ _____    ______ ____
ROOT
ATOM      1  C   UNL     1      34.433 -19.298 -21.866  0.00  0.00    -0.047 C 
ENDROOT
BRANCH   1   2
ATOM      2  C   UNL     1      34.148 -20.075 -20.580  0.00  0.00    -0.084 C 
BRANCH   2   3
ATOM      3  N   UNL     1      35.398 -20.435 -19.923  0.00  0.00    +0.384 N 
ATOM      4  H   UNL     1      35.557 -19.800 -19.140  0.00  0.00    -0.085 HD
ATOM      5  H   UNL     1      36.155 -20.362 -20.602  0.00  0.00    -0.085 HD
BRANCH   3   6
ATOM      6  C   UNL     1      35.349 -21.803 -19.424  0.00  0.00    -0.084 C 
BRANCH   6   7
ATOM      7  C   UNL     1      33.917 -22.341 -19.368  0.00  0.00    -0.047 C 
BRANCH   7   8
ATOM      8  C   UNL     1      33.519 -22.835 -17.976  0.00  0.00    -0.084 C 
BRANCH   8   9
ATOM      9  N   UNL     1      32.091 -22.634 -17.760  0.00  0.00    +0.384 N 
ATOM     10  H   UNL     1      31.571 -23.133 -18.482  0.00  0.00    -0.085 HD
ATOM     11  H   UNL     1      31.891 -21.635 -17.804  0.00  0.00    -0.085 HD
BRANCH   9  12
ATOM     12  C   UNL     1      31.689 -23.133 -16.453  0.00  0.00    -0.082 C 
ATOM     13  C   UNL     1      30.185 -23.023 -16.263  0.00  0.00    -0.026 C 
ENDBRANCH   9  12
ENDBRANCH   8   9
ENDBRANCH   7   8
ENDBRANCH   6   7
ENDBRANCH   3   6
ENDBRANCH   2   3
ENDBRANCH   1   2
BRANCH   1  14
ATOM     14  C   UNL     1      35.819 -18.649 -21.878  0.00  0.00    -0.084 C 
BRANCH  14  15
ATOM     15  N   UNL     1      36.097 -17.979 -23.141  0.00  0.00    +0.384 N 
ATOM     16  H   UNL     1      36.870 -18.453 -23.609  0.00  0.00    -0.085 HD
ATOM     17  H   UNL     1      36.339 -17.007 -22.949  0.00  0.00    -0.085 HD
BRANCH  15  18
ATOM     18  C   UNL     1      34.928 -18.003 -24.010  0.00  0.00    -0.084 C 
BRANCH  18  19
ATOM     19  C   UNL     1      34.863 -16.773 -24.918  0.00  0.00    -0.047 C 
BRANCH  19  20
ATOM     20  C   UNL     1      33.885 -15.709 -24.414  0.00  0.00    -0.084 C 
BRANCH  20  21
ATOM     21  N   UNL     1      34.449 -15.013 -23.262  0.00  0.00    +0.384 N 
ATOM     22  H   UNL     1      34.485 -14.013 -23.461  0.00  0.00    -0.085 HD
ATOM     23  H   UNL     1      35.387 -15.375 -23.090  0.00  0.00    -0.085 HD
BRANCH  21  24
ATOM     24  C   UNL     1      33.638 -15.234 -22.074  0.00  0.00    -0.082 C 
ATOM     25  C   UNL     1      34.499 -15.279 -20.823  0.00  0.00    -0.026 C 
ENDBRANCH  21  24
ENDBRANCH  20  21
ENDBRANCH  19  20
ENDBRANCH  18  19
ENDBRANCH  15  18
ENDBRANCH  14  15
ENDBRANCH   1  14
TORSDOF 14
ENDMDL
MODEL 5
REMARK VINA RESULT:      -5.7      2.279      2.928
REMARK  Name = 4282
REMARK  14 active torsions:
REMARK  status: ('A' for Active; 'I' for Inactive)
REMARK    1  A    between atoms: C_1  and  C_2
REMARK    2  A    between atoms: C_1  and  C_14
REMARK    3  A    between atoms: C_2  and  N_3
REMARK    4  A    between atoms: N_3  and  C_6
REMARK    5  A    between atoms: C_6  and  C_7
REMARK    6  A    between atoms: C_7  and  C_8
REMARK    7  A    between atoms: C_8  and  N_9
REMARK    8  A    between atoms: N_9  and  C_12
REMARK    9  A    between atoms: C_14  and  N_15
REMARK   10  A    between atoms: N_15  and  C_18
REMARK   11  A    between atoms: C_18  and  C_19
REMARK   12  A    between atoms: C_19  and  C_20
REMARK   13  A    between atoms: C_20  and  N_21
REMARK   14  A    between atoms: N_21  and  C_24
REMARK                            x       y       z     vdW  Elec       q    Type
REMARK                         _______ _______ _______ _____ _____    ______ ____
ROOT
ATOM      1  C   UNL     1      36.720 -21.112 -19.718  0.00  0.00    -0.047 C 
ENDROOT
BRANCH   1   2
ATOM      2  C   UNL     1      36.307 -21.718 -18.375  0.00  0.00    -0.084 C 
BRANCH   2   3
ATOM      3  N   UNL     1      37.005 -21.050 -17.286  0.00  0.00    +0.384 N 
ATOM      4  H   UNL     1      36.358 -20.417 -16.814  0.00  0.00    -0.085 HD
ATOM      5  H   UNL     1      37.793 -20.530 -17.673  0.00  0.00    -0.085 HD
BRANCH   3   6
ATOM      6  C   UNL     1      37.514 -22.018 -16.322  0.00  0.00    -0.084 C 
BRANCH   6   7
ATOM      7  C   UNL     1      36.391 -22.855 -15.705  0.00  0.00    -0.047 C 
BRANCH   7   8
ATOM      8  C   UNL     1      36.910 -23.970 -14.795  0.00  0.00    -0.084 C 
BRANCH   8   9
ATOM      9  N   UNL     1      38.146 -24.527 -15.335  0.00  0.00    +0.384 N 
ATOM     10  H   UNL     1      38.728 -23.766 -15.687  0.00  0.00    -0.085 HD
ATOM     11  H   UNL     1      37.911 -25.173 -16.088  0.00  0.00    -0.085 HD
BRANCH   9  12
ATOM     12  C   UNL     1      38.879 -25.253 -14.309  0.00  0.00    -0.082 C 
ATOM     13  C   UNL     1      40.299 -25.556 -14.761  0.00  0.00    -0.026 C 
ENDBRANCH   9  12
ENDBRANCH   8   9
ENDBRANCH   7   8
ENDBRANCH   6   7
ENDBRANCH   3   6
ENDBRANCH   2   3
ENDBRANCH   1   2
BRANCH   1  14
ATOM     14  C   UNL     1      35.591 -20.329 -20.392  0.00  0.00    -0.084 C 
BRANCH  14  15
ATOM     15  N   UNL     1      35.920 -18.916 -20.538  0.00  0.00    +0.384 N 
ATOM     16  H   UNL     1      36.903 -18.827 -20.797  0.00  0.00    -0.085 HD
ATOM     17  H   UNL     1      35.741 -18.446 -19.651  0.00  0.00    -0.085 HD
BRANCH  15  18
ATOM     18  C   UNL     1      35.097 -18.295 -21.567  0.00  0.00    -0.084 C 
BRANCH  18  19
ATOM     19  C   UNL     1      34.739 -16.849 -21.219  0.00  0.00    -0.047 C 
BRANCH  19  20
ATOM     20  C   UNL     1      34.690 -15.934 -22.444  0.00  0.00    -0.084 C 
BRANCH  20  21
ATOM     21  N   UNL     1      35.481 -16.504 -23.530  0.00  0.00    +0.384 N 
ATOM     22  H   UNL     1      35.749 -17.456 -23.284  0.00  0.00    -0.085 HD
ATOM     23  H   UNL     1      36.310 -15.925 -23.667  0.00  0.00    -0.085 HD
BRANCH  21  24
ATOM     24  C   UNL     1      34.719 -16.527 -24.770  0.00  0.00    -0.082 C 
ATOM     25  C   UNL     1      34.440 -17.953 -25.216  0.00  0.00    -0.026 C 
ENDBRANCH  21  24
ENDBRANCH  20  21
ENDBRANCH  19  20
ENDBRANCH  18  19
ENDBRANCH  15  18
ENDBRANCH  14  15
ENDBRANCH   1  14
TORSDOF 14
ENDMDL
MODEL 6
REMARK VINA RESULT:      -5.7      2.511      4.809
REMARK  Name = 4282
REMARK  14 active torsions:
REMARK  status: ('A' for Active; 'I' for Inactive)
REMARK    1  A    between atoms: C_1  and  C_2
REMARK    2  A    between atoms: C_1  and  C_14
REMARK    3  A    between atoms: C_2  and  N_3
REMARK    4  A    between atoms: N_3  and  C_6
REMARK    5  A    between atoms: C_6  and  C_7
REMARK    6  A    between atoms: C_7  and  C_8
REMARK    7  A    between atoms: C_8  and  N_9
REMARK    8  A    between atoms: N_9  and  C_12
REMARK    9  A    between atoms: C_14  and  N_15
REMARK   10  A    between atoms: N_15  and  C_18
REMARK   11  A    between atoms: C_18  and  C_19
REMARK   12  A    between atoms: C_19  and  C_20
REMARK   13  A    between atoms: C_20  and  N_21
REMARK   14  A    between atoms: N_21  and  C_24
REMARK                            x       y       z     vdW  Elec       q    Type
REMARK                         _______ _______ _______ _____ _____    ______ ____
ROOT
ATOM      1  C   UNL     1      32.749 -23.103 -16.725  0.00  0.00    -0.047 C 
ENDROOT
BRANCH   1   2
ATOM      2  C   UNL     1      33.536 -23.436 -15.456  0.00  0.00    -0.084 C 
BRANCH   2   3
ATOM      3  N   UNL     1      32.812 -22.973 -14.280  0.00  0.00    +0.384 N 
ATOM      4  H   UNL     1      33.084 -22.011 -14.078  0.00  0.00    -0.085 HD
ATOM      5  H   UNL     1      33.042 -23.582 -13.495  0.00  0.00    -0.085 HD
BRANCH   3   6
ATOM      6  C   UNL     1      31.372 -23.025 -14.502  0.00  0.00    -0.084 C 
BRANCH   6   7
ATOM      7  C   UNL     1      30.731 -24.237 -13.822  0.00  0.00    -0.047 C 
BRANCH   7   8
ATOM      8  C   UNL     1      29.521 -24.779 -14.587  0.00  0.00    -0.084 C 
BRANCH   8   9
ATOM      9  N   UNL     1      29.649 -24.478 -16.009  0.00  0.00    +0.384 N 
ATOM     10  H   UNL     1      29.966 -25.314 -16.500  0.00  0.00    -0.085 HD
ATOM     11  H   UNL     1      30.323 -23.722 -16.123  0.00  0.00    -0.085 HD
BRANCH   9  12
ATOM     12  C   UNL     1      28.373 -24.053 -16.565  0.00  0.00    -0.082 C 
ATOM     13  C   UNL     1      28.075 -22.605 -16.211  0.00  0.00    -0.026 C 
ENDBRANCH   9  12
ENDBRANCH   8   9
ENDBRANCH   7   8
ENDBRANCH   6   7
ENDBRANCH   3   6
ENDBRANCH   2   3
ENDBRANCH   1   2
BRANCH   1  14
ATOM     14  C   UNL     1      33.629 -23.052 -17.977  0.00  0.00    -0.084 C 
BRANCH  14  15
ATOM     15  N   UNL     1      32.979 -22.342 -19.070  0.00  0.00    +0.384 N 
ATOM     16  H   UNL     1      32.127 -21.901 -18.723  0.00  0.00    -0.085 HD
ATOM     17  H   UNL     1      32.759 -23.010 -19.809  0.00  0.00    -0.085 HD
BRANCH  15  18
ATOM     18  C   UNL     1      33.857 -21.317 -19.618  0.00  0.00    -0.084 C 
BRANCH  18  19
ATOM     19  C   UNL     1      33.076 -20.226 -20.354  0.00  0.00    -0.047 C 
BRANCH  19  20
ATOM     20  C   UNL     1      33.932 -19.454 -21.360  0.00  0.00    -0.084 C 
BRANCH  20  21
ATOM     21  N   UNL     1      35.173 -19.014 -20.733  0.00  0.00    +0.384 N 
ATOM     22  H   UNL     1      35.611 -19.807 -20.265  0.00  0.00    -0.085 HD
ATOM     23  H   UNL     1      34.954 -18.280 -20.059  0.00  0.00    -0.085 HD
BRANCH  21  24
ATOM     24  C   UNL     1      36.093 -18.476 -21.724  0.00  0.00    -0.082 C 
ATOM     25  C   UNL     1      35.417 -17.427 -22.589  0.00  0.00    -0.026 C 
ENDBRANCH  21  24
ENDBRANCH  20  21
ENDBRANCH  19  20
ENDBRANCH  18  19
ENDBRANCH  15  18
ENDBRANCH  14  15
ENDBRANCH   1  14
TORSDOF 14
ENDMDL
MODEL 7
REMARK VINA RESULT:      -5.6      4.089      7.578
REMARK  Name = 4282
REMARK  14 active torsions:
REMARK  status: ('A' for Active; 'I' for Inactive)
REMARK    1  A    between atoms: C_1  and  C_2
REMARK    2  A    between atoms: C_1  and  C_14
REMARK    3  A    between atoms: C_2  and  N_3
REMARK    4  A    between atoms: N_3  and  C_6
REMARK    5  A    between atoms: C_6  and  C_7
REMARK    6  A    between atoms: C_7  and  C_8
REMARK    7  A    between atoms: C_8  and  N_9
REMARK    8  A    between atoms: N_9  and  C_12
REMARK    9  A    between atoms: C_14  and  N_15
REMARK   10  A    between atoms: N_15  and  C_18
REMARK   11  A    between atoms: C_18  and  C_19
REMARK   12  A    between atoms: C_19  and  C_20
REMARK   13  A    between atoms: C_20  and  N_21
REMARK   14  A    between atoms: N_21  and  C_24
REMARK                            x       y       z     vdW  Elec       q    Type
REMARK                         _______ _______ _______ _____ _____    ______ ____
ROOT
ATOM      1  C   UNL     1      33.454 -14.970 -24.307  0.00  0.00    -0.047 C 
ENDROOT
BRANCH   1   2
ATOM      2  C   UNL     1      34.597 -15.107 -23.301  0.00  0.00    -0.084 C 
BRANCH   2   3
ATOM      3  N   UNL     1      35.456 -16.226 -23.666  0.00  0.00    +0.384 N 
ATOM      4  H   UNL     1      36.045 -16.468 -22.868  0.00  0.00    -0.085 HD
ATOM      5  H   UNL     1      36.031 -15.950 -24.462  0.00  0.00    -0.085 HD
BRANCH   3   6
ATOM      6  C   UNL     1      34.663 -17.389 -24.044  0.00  0.00    -0.084 C 
BRANCH   6   7
ATOM      7  C   UNL     1      35.160 -18.666 -23.364  0.00  0.00    -0.047 C 
BRANCH   7   8
ATOM      8  C   UNL     1      35.904 -18.394 -22.054  0.00  0.00    -0.084 C 
BRANCH   8   9
ATOM      9  N   UNL     1      35.008 -18.582 -20.918  0.00  0.00    +0.384 N 
ATOM     10  H   UNL     1      34.163 -18.029 -21.064  0.00  0.00    -0.085 HD
ATOM     11  H   UNL     1      35.488 -18.281 -20.071  0.00  0.00    -0.085 HD
BRANCH   9  12
ATOM     12  C   UNL     1      34.641 -19.983 -20.774  0.00  0.00    -0.082 C 
ATOM     13  C   UNL     1      33.167 -20.132 -20.436  0.00  0.00    -0.026 C 
ENDBRANCH   9  12
ENDBRANCH   8   9
ENDBRANCH   7   8
ENDBRANCH   6   7
ENDBRANCH   3   6
ENDBRANCH   2   3
ENDBRANCH   1   2
BRANCH   1  14
ATOM     14  C   UNL     1      33.403 -13.590 -24.969  0.00  0.00    -0.084 C 
BRANCH  14  15
ATOM     15  N   UNL     1      34.062 -12.573 -24.159  0.00  0.00    +0.384 N 
ATOM     16  H   UNL     1      35.002 -12.892 -23.923  0.00  0.00    -0.085 HD
ATOM     17  H   UNL     1      33.514 -12.423 -23.313  0.00  0.00    -0.085 HD
BRANCH  15  18
ATOM     18  C   UNL     1      34.155 -11.312 -24.883  0.00  0.00    -0.084 C 
BRANCH  18  19
ATOM     19  C   UNL     1      34.068 -10.106 -23.946  0.00  0.00    -0.047 C 
BRANCH  19  20
ATOM     20  C   UNL     1      32.628  -9.712 -23.613  0.00  0.00    -0.084 C 
BRANCH  20  21
ATOM     21  N   UNL     1      32.335 -10.009 -22.215  0.00  0.00    +0.384 N 
ATOM     22  H   UNL     1      32.063  -9.148 -21.740  0.00  0.00    -0.085 HD
ATOM     23  H   UNL     1      33.171 -10.404 -21.784  0.00  0.00    -0.085 HD
BRANCH  21  24
ATOM     24  C   UNL     1      31.254 -10.977 -22.105  0.00  0.00    -0.082 C 
ATOM     25  C   UNL     1      31.723 -12.249 -21.420  0.00  0.00    -0.026 C 
ENDBRANCH  21  24
ENDBRANCH  20  21
ENDBRANCH  19  20
ENDBRANCH  18  19
ENDBRANCH  15  18
ENDBRANCH  14  15
ENDBRANCH   1  14
TORSDOF 14
ENDMDL
MODEL 8
REMARK VINA RESULT:      -5.6      1.982      4.607
REMARK  Name = 4282
REMARK  14 active torsions:
REMARK  status: ('A' for Active; 'I' for Inactive)
REMARK    1  A    between atoms: C_1  and  C_2
REMARK    2  A    between atoms: C_1  and  C_14
REMARK    3  A    between atoms: C_2  and  N_3
REMARK    4  A    between atoms: N_3  and  C_6
REMARK    5  A    between atoms: C_6  and  C_7
REMARK    6  A    between atoms: C_7  and  C_8
REMARK    7  A    between atoms: C_8  and  N_9
REMARK    8  A    between atoms: N_9  and  C_12
REMARK    9  A    between atoms: C_14  and  N_15
REMARK   10  A    between atoms: N_15  and  C_18
REMARK   11  A    between atoms: C_18  and  C_19
REMARK   12  A    between atoms: C_19  and  C_20
REMARK   13  A    between atoms: C_20  and  N_21
REMARK   14  A    between atoms: N_21  and  C_24
REMARK                            x       y       z     vdW  Elec       q    Type
REMARK                         _______ _______ _______ _____ _____    ______ ____
ROOT
ATOM      1  C   UNL     1      35.194 -18.757 -23.379  0.00  0.00    -0.047 C 
ENDROOT
BRANCH   1   2
ATOM      2  C   UNL     1      35.234 -17.812 -22.177  0.00  0.00    -0.084 C 
BRANCH   2   3
ATOM      3  N   UNL     1      34.840 -18.521 -20.967  0.00  0.00    +0.384 N 
ATOM      4  H   UNL     1      34.147 -17.965 -20.465  0.00  0.00    -0.085 HD
ATOM      5  H   UNL     1      35.668 -18.664 -20.389  0.00  0.00    -0.085 HD
BRANCH   3   6
ATOM      6  C   UNL     1      34.266 -19.821 -21.289  0.00  0.00    -0.084 C 
BRANCH   6   7
ATOM      7  C   UNL     1      33.381 -20.352 -20.160  0.00  0.00    -0.047 C 
BRANCH   7   8
ATOM      8  C   UNL     1      33.985 -21.564 -19.447  0.00  0.00    -0.084 C 
BRANCH   8   9
ATOM      9  N   UNL     1      32.926 -22.419 -18.921  0.00  0.00    +0.384 N 
ATOM     10  H   UNL     1      32.642 -23.081 -19.644  0.00  0.00    -0.085 HD
ATOM     11  H   UNL     1      32.139 -21.832 -18.648  0.00  0.00    -0.085 HD
BRANCH   9  12
ATOM     12  C   UNL     1      33.387 -23.156 -17.754  0.00  0.00    -0.082 C 
ATOM     13  C   UNL     1      32.310 -23.214 -16.683  0.00  0.00    -0.026 C 
ENDBRANCH   9  12
ENDBRANCH   8   9
ENDBRANCH   7   8
ENDBRANCH   6   7
ENDBRANCH   3   6
ENDBRANCH   2   3
ENDBRANCH   1   2
BRANCH   1  14
ATOM     14  C   UNL     1      34.663 -18.086 -24.648  0.00  0.00    -0.084 C 
BRANCH  14  15
ATOM     15  N   UNL     1      34.954 -16.658 -24.673  0.00  0.00    +0.384 N 
ATOM     16  H   UNL     1      35.863 -16.511 -25.114  0.00  0.00    -0.085 HD
ATOM     17  H   UNL     1      34.962 -16.309 -23.715  0.00  0.00    -0.085 HD
BRANCH  15  18
ATOM     18  C   UNL     1      33.938 -15.933 -25.423  0.00  0.00    -0.084 C 
BRANCH  18  19
ATOM     19  C   UNL     1      33.448 -14.693 -24.673  0.00  0.00    -0.047 C 
BRANCH  19  20
ATOM     20  C   UNL     1      34.085 -14.541 -23.290  0.00  0.00    -0.084 C 
BRANCH  20  21
ATOM     21  N   UNL     1      33.078 -14.719 -22.250  0.00  0.00    +0.384 N 
ATOM     22  H   UNL     1      33.542 -14.945 -21.370  0.00  0.00    -0.085 HD
ATOM     23  H   UNL     1      32.453 -15.476 -22.527  0.00  0.00    -0.085 HD
BRANCH  21  24
ATOM     24  C   UNL     1      32.291 -13.507 -22.077  0.00  0.00    -0.082 C 
ATOM     25  C   UNL     1      32.209 -13.109 -20.613  0.00  0.00    -0.026 C 
ENDBRANCH  21  24
ENDBRANCH  20  21
ENDBRANCH  19  20
ENDBRANCH  18  19
ENDBRANCH  15  18
ENDBRANCH  14  15
ENDBRANCH   1  14
TORSDOF 14
ENDMDL
MODEL 9
REMARK VINA RESULT:      -5.6      2.198      8.742
REMARK  Name = 4282
REMARK  14 active torsions:
REMARK  status: ('A' for Active; 'I' for Inactive)
REMARK    1  A    between atoms: C_1  and  C_2
REMARK    2  A    between atoms: C_1  and  C_14
REMARK    3  A    between atoms: C_2  and  N_3
REMARK    4  A    between atoms: N_3  and  C_6
REMARK    5  A    between atoms: C_6  and  C_7
REMARK    6  A    between atoms: C_7  and  C_8
REMARK    7  A    between atoms: C_8  and  N_9
REMARK    8  A    between atoms: N_9  and  C_12
REMARK    9  A    between atoms: C_14  and  N_15
REMARK   10  A    between atoms: N_15  and  C_18
REMARK   11  A    between atoms: C_18  and  C_19
REMARK   12  A    between atoms: C_19  and  C_20
REMARK   13  A    between atoms: C_20  and  N_21
REMARK   14  A    between atoms: N_21  and  C_24
REMARK                            x       y       z     vdW  Elec       q    Type
REMARK                         _______ _______ _______ _____ _____    ______ ____
ROOT
ATOM      1  C   UNL     1      33.978 -20.891 -19.833  0.00  0.00    -0.047 C 
ENDROOT
BRANCH   1   2
ATOM      2  C   UNL     1      35.330 -20.497 -20.430  0.00  0.00    -0.084 C 
BRANCH   2   3
ATOM      3  N   UNL     1      35.358 -19.068 -20.711  0.00  0.00    +0.384 N 
ATOM      4  H   UNL     1      36.303 -18.802 -20.989  0.00  0.00    -0.085 HD
ATOM      5  H   UNL     1      35.078 -18.565 -19.870  0.00  0.00    -0.085 HD
BRANCH   3   6
ATOM      6  C   UNL     1      34.433 -18.731 -21.786  0.00  0.00    -0.084 C 
BRANCH   6   7
ATOM      7  C   UNL     1      34.961 -19.167 -23.154  0.00  0.00    -0.047 C 
BRANCH   7   8
ATOM      8  C   UNL     1      34.950 -18.037 -24.186  0.00  0.00    -0.084 C 
BRANCH   8   9
ATOM      9  N   UNL     1      35.482 -16.813 -23.597  0.00  0.00    +0.384 N 
ATOM     10  H   UNL     1      36.400 -16.621 -23.999  0.00  0.00    -0.085 HD
ATOM     11  H   UNL     1      35.555 -16.941 -22.588  0.00  0.00    -0.085 HD
BRANCH   9  12
ATOM     12  C   UNL     1      34.600 -15.685 -23.861  0.00  0.00    -0.082 C 
ATOM     13  C   UNL     1      33.840 -15.877 -25.163  0.00  0.00    -0.026 C 
ENDBRANCH   9  12
ENDBRANCH   8   9
ENDBRANCH   7   8
ENDBRANCH   6   7
ENDBRANCH   3   6
ENDBRANCH   2   3
ENDBRANCH   1   2
BRANCH   1  14
ATOM     14  C   UNL     1      33.996 -22.273 -19.174  0.00  0.00    -0.084 C 
BRANCH  14  15
ATOM     15  N   UNL     1      32.825 -22.491 -18.334  0.00  0.00    +0.384 N 
ATOM     16  H   UNL     1      32.078 -22.893 -18.900  0.00  0.00    -0.085 HD
ATOM     17  H   UNL     1      32.533 -21.596 -17.941  0.00  0.00    -0.085 HD
BRANCH  15  18
ATOM     18  C   UNL     1      33.134 -23.399 -17.237  0.00  0.00    -0.084 C 
BRANCH  18  19
ATOM     19  C   UNL     1      32.183 -23.213 -16.053  0.00  0.00    -0.047 C 
BRANCH  19  20
ATOM     20  C   UNL     1      30.757 -22.861 -16.482  0.00  0.00    -0.084 C 
BRANCH  20  21
ATOM     21  N   UNL     1      29.854 -22.938 -15.339  0.00  0.00    +0.384 N 
ATOM     22  H   UNL     1      29.716 -22.002 -14.959  0.00  0.00    -0.085 HD
ATOM     23  H   UNL     1      30.270 -23.550 -14.637  0.00  0.00    -0.085 HD
BRANCH  21  24
ATOM     24  C   UNL     1      28.565 -23.489 -15.732  0.00  0.00    -0.082 C 
ATOM     25  C   UNL     1      27.938 -22.676 -16.852  0.00  0.00    -0.026 C 
ENDBRANCH  21  24
ENDBRANCH  20  21
ENDBRANCH  19  20
ENDBRANCH  18  19
ENDBRANCH  15  18
ENDBRANCH  14  15
ENDBRANCH   1  14
TORSDOF 14
ENDMDL
