MODEL 1
REMARK VINA RESULT:      -7.4      0.000      0.000
REMARK  Name = 3364666
REMARK  7 active torsions:
REMARK  status: ('A' for Active; 'I' for Inactive)
REMARK    1  A    between atoms: C_1  and  N_16
REMARK    2  A    between atoms: C_2  and  N_8
REMARK    3  A    between atoms: C_4  and  C_13
REMARK    4  A    between atoms: C_13  and  O_14
REMARK    5  A    between atoms: N_16  and  C_18
REMARK    6  A    between atoms: C_18  and  N_19
REMARK    7  A    between atoms: C_18  and  N_23
REMARK                            x       y       z     vdW  Elec       q    Type
REMARK                         _______ _______ _______ _____ _____    ______ ____
ROOT
ATOM      1  C   UNL     1      36.870 -23.697 -15.441  0.00  0.00    +0.055 C 
ATOM      2  C   UNL     1      36.016 -24.658 -14.897  0.00  0.00    +0.063 C 
ATOM      3  C   UNL     1      38.248 -23.912 -15.445  0.00  0.00    +0.022 C 
ATOM      4  C   UNL     1      38.773 -25.088 -14.907  0.00  0.00    +0.077 C 
ATOM      5  C   UNL     1      36.541 -25.832 -14.358  0.00  0.00    +0.016 C 
ATOM      6  C   UNL     1      37.919 -26.048 -14.363  0.00  0.00    +0.008 C 
ENDROOT
BRANCH   2   8
ATOM      7  O   UNL     1      34.165 -23.977 -12.621  0.00  0.00    -0.275 OA
ATOM      8  N   UNL     1      34.632 -24.464 -14.880  0.00  0.00    -0.283 N 
ATOM      9  C   UNL     1      33.818 -24.149 -13.785  0.00  0.00    +0.227 C 
ATOM     10  C   UNL     1      32.370 -24.024 -14.186  0.00  0.00    +0.095 C 
ATOM     11  H   UNL     1      34.173 -24.562 -15.745  0.00  0.00    +0.155 HD
ENDBRANCH   2   8
BRANCH   4  13
ATOM     12  O   UNL     1      41.004 -24.880 -14.072  0.00  0.00    -0.245 OA
ATOM     13  C   UNL     1      40.210 -25.312 -14.912  0.00  0.00    +0.338 C 
BRANCH  13  14
ATOM     14  O   UNL     1      40.614 -26.072 -15.967  0.00  0.00    -0.477 OA
ATOM     15  H   UNL     1      40.105 -26.090 -16.754  0.00  0.00    +0.295 HD
ENDBRANCH  13  14
ENDBRANCH   4  13
BRANCH   1  16
ATOM     16  N   UNL     1      36.359 -22.501 -15.992  0.00  0.00    -0.372 N 
ATOM     17  H   UNL     1      35.610 -22.066 -15.524  0.00  0.00    +0.142 HD
BRANCH  16  18
ATOM     18  C   UNL     1      36.856 -21.866 -17.199  0.00  0.00    -0.062 C 
BRANCH  18  19
ATOM     19  N   UNL     1      35.933 -21.867 -18.351  0.00  0.00    +0.381 N 
ATOM     20  H   UNL     1      35.837 -20.918 -18.712  0.00  0.00    -0.090 HD
ATOM     21  H   UNL     1      35.019 -22.212 -18.055  0.00  0.00    -0.090 HD
ATOM     22  H   UNL     1      36.303 -22.474 -19.083  0.00  0.00    -0.090 HD
ENDBRANCH  18  19
BRANCH  18  23
ATOM     23  N   UNL     1      37.374 -20.486 -17.121  0.00  0.00    +0.381 N 
ATOM     24  H   UNL     1      38.338 -20.503 -16.789  0.00  0.00    -0.090 HD
ATOM     25  H   UNL     1      36.800 -19.944 -16.475  0.00  0.00    -0.090 HD
ATOM     26  H   UNL     1      37.341 -20.059 -18.047  0.00  0.00    -0.090 HD
ENDBRANCH  18  23
ENDBRANCH  16  18
ENDBRANCH   1  16
TORSDOF 7
ENDMDL
MODEL 2
REMARK VINA RESULT:      -7.4      9.361     12.055
REMARK  Name = 3364666
REMARK  7 active torsions:
REMARK  status: ('A' for Active; 'I' for Inactive)
REMARK    1  A    between atoms: C_1  and  N_16
REMARK    2  A    between atoms: C_2  and  N_8
REMARK    3  A    between atoms: C_4  and  C_13
REMARK    4  A    between atoms: C_13  and  O_14
REMARK    5  A    between atoms: N_16  and  C_18
REMARK    6  A    between atoms: C_18  and  N_19
REMARK    7  A    between atoms: C_18  and  N_23
REMARK                            x       y       z     vdW  Elec       q    Type
REMARK                         _______ _______ _______ _____ _____    ______ ____
ROOT
ATOM      1  C   UNL     1      34.784 -16.000 -22.746  0.00  0.00    +0.055 C 
ATOM      2  C   UNL     1      34.725 -16.434 -21.421  0.00  0.00    +0.063 C 
ATOM      3  C   UNL     1      34.117 -14.836 -23.129  0.00  0.00    +0.022 C 
ATOM      4  C   UNL     1      33.391 -14.106 -22.187  0.00  0.00    +0.077 C 
ATOM      5  C   UNL     1      33.998 -15.703 -20.480  0.00  0.00    +0.016 C 
ATOM      6  C   UNL     1      33.332 -14.540 -20.863  0.00  0.00    +0.008 C 
ENDROOT
BRANCH   2   8
ATOM      7  O   UNL     1      33.836 -19.310 -21.487  0.00  0.00    -0.275 OA
ATOM      8  N   UNL     1      35.384 -17.597 -21.014  0.00  0.00    -0.283 N 
ATOM      9  C   UNL     1      34.919 -18.916 -21.067  0.00  0.00    +0.227 C 
ATOM     10  C   UNL     1      35.938 -19.888 -20.529  0.00  0.00    +0.095 C 
ATOM     11  H   UNL     1      36.288 -17.472 -20.644  0.00  0.00    +0.155 HD
ENDBRANCH   2   8
BRANCH   4  13
ATOM     12  O   UNL     1      33.072 -12.107 -23.461  0.00  0.00    -0.245 OA
ATOM     13  C   UNL     1      32.695 -12.892 -22.586  0.00  0.00    +0.338 C 
BRANCH  13  14
ATOM     14  O   UNL     1      31.549 -12.694 -21.881  0.00  0.00    -0.477 OA
ATOM     15  H   UNL     1      30.762 -12.446 -22.325  0.00  0.00    +0.295 HD
ENDBRANCH  13  14
ENDBRANCH   4  13
BRANCH   1  16
ATOM     16  N   UNL     1      35.514 -16.723 -23.715  0.00  0.00    -0.372 N 
ATOM     17  H   UNL     1      36.496 -16.717 -23.646  0.00  0.00    +0.142 HD
BRANCH  16  18
ATOM     18  C   UNL     1      34.922 -17.477 -24.806  0.00  0.00    -0.062 C 
BRANCH  18  19
ATOM     19  N   UNL     1      34.434 -18.827 -24.462  0.00  0.00    +0.381 N 
ATOM     20  H   UNL     1      35.065 -19.255 -23.786  0.00  0.00    -0.090 HD
ATOM     21  H   UNL     1      34.397 -19.401 -25.305  0.00  0.00    -0.090 HD
ATOM     22  H   UNL     1      33.499 -18.757 -24.059  0.00  0.00    -0.090 HD
ENDBRANCH  18  19
BRANCH  18  23
ATOM     23  N   UNL     1      33.837 -16.863 -25.595  0.00  0.00    +0.381 N 
ATOM     24  H   UNL     1      33.130 -16.485 -24.964  0.00  0.00    -0.090 HD
ATOM     25  H   UNL     1      33.414 -17.569 -26.197  0.00  0.00    -0.090 HD
ATOM     26  H   UNL     1      34.218 -16.110 -26.168  0.00  0.00    -0.090 HD
ENDBRANCH  18  23
ENDBRANCH  16  18
ENDBRANCH   1  16
TORSDOF 7
ENDMDL
MODEL 3
REMARK VINA RESULT:      -7.3      1.572      1.581
REMARK  Name = 3364666
REMARK  7 active torsions:
REMARK  status: ('A' for Active; 'I' for Inactive)
REMARK    1  A    between atoms: C_1  and  N_16
REMARK    2  A    between atoms: C_2  and  N_8
REMARK    3  A    between atoms: C_4  and  C_13
REMARK    4  A    between atoms: C_13  and  O_14
REMARK    5  A    between atoms: N_16  and  C_18
REMARK    6  A    between atoms: C_18  and  N_19
REMARK    7  A    between atoms: C_18  and  N_23
REMARK                            x       y       z     vdW  Elec       q    Type
REMARK                         _______ _______ _______ _____ _____    ______ ____
ROOT
ATOM      1  C   UNL     1      36.753 -23.534 -15.501  0.00  0.00    +0.055 C 
ATOM      2  C   UNL     1      35.686 -24.369 -15.169  0.00  0.00    +0.063 C 
ATOM      3  C   UNL     1      38.065 -23.993 -15.373  0.00  0.00    +0.022 C 
ATOM      4  C   UNL     1      38.309 -25.287 -14.913  0.00  0.00    +0.077 C 
ATOM      5  C   UNL     1      35.931 -25.663 -14.708  0.00  0.00    +0.016 C 
ATOM      6  C   UNL     1      37.242 -26.122 -14.581  0.00  0.00    +0.008 C 
ENDROOT
BRANCH   2   8
ATOM      7  O   UNL     1      34.060 -23.706 -17.615  0.00  0.00    -0.275 OA
ATOM      8  N   UNL     1      34.364 -23.931 -15.289  0.00  0.00    -0.283 N 
ATOM      9  C   UNL     1      33.656 -23.635 -16.459  0.00  0.00    +0.227 C 
ATOM     10  C   UNL     1      32.246 -23.192 -16.159  0.00  0.00    +0.095 C 
ATOM     11  H   UNL     1      33.871 -23.817 -14.445  0.00  0.00    +0.155 HD
ENDBRANCH   2   8
BRANCH   4  13
ATOM     12  O   UNL     1      40.207 -26.127 -13.725  0.00  0.00    -0.245 OA
ATOM     13  C   UNL     1      39.676 -25.767 -14.779  0.00  0.00    +0.338 C 
BRANCH  13  14
ATOM     14  O   UNL     1      40.340 -25.782 -15.967  0.00  0.00    -0.477 OA
ATOM     15  H   UNL     1      40.449 -26.589 -16.433  0.00  0.00    +0.295 HD
ENDBRANCH  13  14
ENDBRANCH   4  13
BRANCH   1  16
ATOM     16  N   UNL     1      36.528 -22.221 -15.970  0.00  0.00    -0.372 N 
ATOM     17  H   UNL     1      35.994 -21.619 -15.403  0.00  0.00    +0.142 HD
BRANCH  16  18
ATOM     18  C   UNL     1      37.026 -21.692 -17.228  0.00  0.00    -0.062 C 
BRANCH  18  19
ATOM     19  N   UNL     1      36.125 -21.842 -18.388  0.00  0.00    +0.381 N 
ATOM     20  H   UNL     1      36.273 -22.755 -18.818  0.00  0.00    -0.090 HD
ATOM     21  H   UNL     1      36.321 -21.109 -19.069  0.00  0.00    -0.090 HD
ATOM     22  H   UNL     1      35.155 -21.765 -18.077  0.00  0.00    -0.090 HD
ENDBRANCH  18  19
BRANCH  18  23
ATOM     23  N   UNL     1      37.494 -20.294 -17.282  0.00  0.00    +0.381 N 
ATOM     24  H   UNL     1      37.432 -19.951 -18.240  0.00  0.00    -0.090 HD
ATOM     25  H   UNL     1      38.463 -20.248 -16.966  0.00  0.00    -0.090 HD
ATOM     26  H   UNL     1      36.910 -19.717 -16.676  0.00  0.00    -0.090 HD
ENDBRANCH  18  23
ENDBRANCH  16  18
ENDBRANCH   1  16
TORSDOF 7
ENDMDL
MODEL 4
REMARK VINA RESULT:      -7.1      9.807     12.281
REMARK  Name = 3364666
REMARK  7 active torsions:
REMARK  status: ('A' for Active; 'I' for Inactive)
REMARK    1  A    between atoms: C_1  and  N_16
REMARK    2  A    between atoms: C_2  and  N_8
REMARK    3  A    between atoms: C_4  and  C_13
REMARK    4  A    between atoms: C_13  and  O_14
REMARK    5  A    between atoms: N_16  and  C_18
REMARK    6  A    between atoms: C_18  and  N_19
REMARK    7  A    between atoms: C_18  and  N_23
REMARK                            x       y       z     vdW  Elec       q    Type
REMARK                         _______ _______ _______ _____ _____    ______ ____
ROOT
ATOM      1  C   UNL     1      34.517 -15.979 -22.779  0.00  0.00    +0.055 C 
ATOM      2  C   UNL     1      35.094 -17.206 -23.107  0.00  0.00    +0.063 C 
ATOM      3  C   UNL     1      33.863 -15.232 -23.760  0.00  0.00    +0.022 C 
ATOM      4  C   UNL     1      33.786 -15.713 -25.067  0.00  0.00    +0.077 C 
ATOM      5  C   UNL     1      35.017 -17.686 -24.414  0.00  0.00    +0.016 C 
ATOM      6  C   UNL     1      34.363 -16.941 -25.394  0.00  0.00    +0.008 C 
ENDROOT
BRANCH   2   8
ATOM      7  O   UNL     1      34.190 -19.644 -21.588  0.00  0.00    -0.275 OA
ATOM      8  N   UNL     1      35.756 -17.971 -22.142  0.00  0.00    -0.283 N 
ATOM      9  C   UNL     1      35.283 -19.101 -21.464  0.00  0.00    +0.227 C 
ATOM     10  C   UNL     1      36.307 -19.639 -20.498  0.00  0.00    +0.095 C 
ATOM     11  H   UNL     1      36.667 -17.679 -21.911  0.00  0.00    +0.155 HD
ENDBRANCH   2   8
BRANCH   4  13
ATOM     12  O   UNL     1      33.229 -13.720 -26.267  0.00  0.00    -0.245 OA
ATOM     13  C   UNL     1      33.103 -14.935 -26.089  0.00  0.00    +0.338 C 
BRANCH  13  14
ATOM     14  O   UNL     1      32.283 -15.697 -26.863  0.00  0.00    -0.477 OA
ATOM     15  H   UNL     1      32.162 -15.486 -27.768  0.00  0.00    +0.295 HD
ENDBRANCH  13  14
ENDBRANCH   4  13
BRANCH   1  16
ATOM     16  N   UNL     1      34.584 -15.474 -21.462  0.00  0.00    -0.372 N 
ATOM     17  H   UNL     1      35.474 -15.265 -21.097  0.00  0.00    +0.142 HD
BRANCH  16  18
ATOM     18  C   UNL     1      33.435 -15.242 -20.604  0.00  0.00    -0.062 C 
BRANCH  18  19
ATOM     19  N   UNL     1      32.854 -13.886 -20.665  0.00  0.00    +0.381 N 
ATOM     20  H   UNL     1      33.359 -13.330 -21.355  0.00  0.00    -0.090 HD
ATOM     21  H   UNL     1      32.927 -13.442 -19.749  0.00  0.00    -0.090 HD
ATOM     22  H   UNL     1      31.871 -13.950 -20.933  0.00  0.00    -0.090 HD
ENDBRANCH  18  19
BRANCH  18  23
ATOM     23  N   UNL     1      32.283 -16.159 -20.685  0.00  0.00    +0.381 N 
ATOM     24  H   UNL     1      32.617 -17.121 -20.744  0.00  0.00    -0.090 HD
ATOM     25  H   UNL     1      31.731 -15.939 -21.514  0.00  0.00    -0.090 HD
ATOM     26  H   UNL     1      31.704 -16.052 -19.852  0.00  0.00    -0.090 HD
ENDBRANCH  18  23
ENDBRANCH  16  18
ENDBRANCH   1  16
TORSDOF 7
ENDMDL
MODEL 5
REMARK VINA RESULT:      -7.1      9.806     12.145
REMARK  Name = 3364666
REMARK  7 active torsions:
REMARK  status: ('A' for Active; 'I' for Inactive)
REMARK    1  A    between atoms: C_1  and  N_16
REMARK    2  A    between atoms: C_2  and  N_8
REMARK    3  A    between atoms: C_4  and  C_13
REMARK    4  A    between atoms: C_13  and  O_14
REMARK    5  A    between atoms: N_16  and  C_18
REMARK    6  A    between atoms: C_18  and  N_19
REMARK    7  A    between atoms: C_18  and  N_23
REMARK                            x       y       z     vdW  Elec       q    Type
REMARK                         _______ _______ _______ _____ _____    ______ ____
ROOT
ATOM      1  C   UNL     1      34.331 -15.696 -22.651  0.00  0.00    +0.055 C 
ATOM      2  C   UNL     1      34.368 -15.959 -24.020  0.00  0.00    +0.063 C 
ATOM      3  C   UNL     1      34.660 -16.699 -21.739  0.00  0.00    +0.022 C 
ATOM      4  C   UNL     1      35.027 -17.965 -22.196  0.00  0.00    +0.077 C 
ATOM      5  C   UNL     1      34.734 -17.226 -24.477  0.00  0.00    +0.016 C 
ATOM      6  C   UNL     1      35.064 -18.228 -23.566  0.00  0.00    +0.008 C 
ENDROOT
BRANCH   2   8
ATOM      7  O   UNL     1      32.704 -16.108 -26.525  0.00  0.00    -0.275 OA
ATOM      8  N   UNL     1      34.041 -14.971 -24.953  0.00  0.00    -0.283 N 
ATOM      9  C   UNL     1      33.260 -15.098 -26.107  0.00  0.00    +0.227 C 
ATOM     10  C   UNL     1      33.145 -13.790 -26.849  0.00  0.00    +0.095 C 
ATOM     11  H   UNL     1      34.406 -14.074 -24.775  0.00  0.00    +0.155 HD
ENDBRANCH   2   8
BRANCH   4  13
ATOM     12  O   UNL     1      36.379 -19.027 -20.534  0.00  0.00    -0.245 OA
ATOM     13  C   UNL     1      35.371 -19.011 -21.246  0.00  0.00    +0.338 C 
BRANCH  13  14
ATOM     14  O   UNL     1      34.445 -20.008 -21.211  0.00  0.00    -0.477 OA
ATOM     15  H   UNL     1      34.321 -20.506 -20.427  0.00  0.00    +0.295 HD
ENDBRANCH  13  14
ENDBRANCH   4  13
BRANCH   1  16
ATOM     16  N   UNL     1      33.963 -14.421 -22.166  0.00  0.00    -0.372 N 
ATOM     17  H   UNL     1      34.680 -13.762 -22.026  0.00  0.00    +0.142 HD
BRANCH  16  18
ATOM     18  C   UNL     1      32.605 -14.011 -21.859  0.00  0.00    -0.062 C 
BRANCH  18  19
ATOM     19  N   UNL     1      32.397 -13.438 -20.514  0.00  0.00    +0.381 N 
ATOM     20  H   UNL     1      31.785 -12.625 -20.582  0.00  0.00    -0.090 HD
ATOM     21  H   UNL     1      33.295 -13.158 -20.121  0.00  0.00    -0.090 HD
ATOM     22  H   UNL     1      31.966 -14.139 -19.910  0.00  0.00    -0.090 HD
ENDBRANCH  18  19
BRANCH  18  23
ATOM     23  N   UNL     1      31.908 -13.094 -22.781  0.00  0.00    +0.381 N 
ATOM     24  H   UNL     1      31.728 -13.570 -23.664  0.00  0.00    -0.090 HD
ATOM     25  H   UNL     1      32.490 -12.274 -22.949  0.00  0.00    -0.090 HD
ATOM     26  H   UNL     1      31.022 -12.803 -22.365  0.00  0.00    -0.090 HD
ENDBRANCH  18  23
ENDBRANCH  16  18
ENDBRANCH   1  16
TORSDOF 7
ENDMDL
MODEL 6
REMARK VINA RESULT:      -7.0      3.166      5.352
REMARK  Name = 3364666
REMARK  7 active torsions:
REMARK  status: ('A' for Active; 'I' for Inactive)
REMARK    1  A    between atoms: C_1  and  N_16
REMARK    2  A    between atoms: C_2  and  N_8
REMARK    3  A    between atoms: C_4  and  C_13
REMARK    4  A    between atoms: C_13  and  O_14
REMARK    5  A    between atoms: N_16  and  C_18
REMARK    6  A    between atoms: C_18  and  N_19
REMARK    7  A    between atoms: C_18  and  N_23
REMARK                            x       y       z     vdW  Elec       q    Type
REMARK                         _______ _______ _______ _____ _____    ______ ____
ROOT
ATOM      1  C   UNL     1      35.320 -24.141 -15.046  0.00  0.00    +0.055 C 
ATOM      2  C   UNL     1      34.378 -24.094 -14.017  0.00  0.00    +0.063 C 
ATOM      3  C   UNL     1      34.960 -23.759 -16.339  0.00  0.00    +0.022 C 
ATOM      4  C   UNL     1      33.660 -23.328 -16.603  0.00  0.00    +0.077 C 
ATOM      5  C   UNL     1      33.077 -23.664 -14.282  0.00  0.00    +0.016 C 
ATOM      6  C   UNL     1      32.718 -23.281 -15.574  0.00  0.00    +0.008 C 
ENDROOT
BRANCH   2   8
ATOM      7  O   UNL     1      36.344 -22.894 -12.078  0.00  0.00    -0.275 OA
ATOM      8  N   UNL     1      34.714 -24.473 -12.715  0.00  0.00    -0.283 N 
ATOM      9  C   UNL     1      35.643 -23.875 -11.855  0.00  0.00    +0.227 C 
ATOM     10  C   UNL     1      35.712 -24.588 -10.528  0.00  0.00    +0.095 C 
ATOM     11  H   UNL     1      34.239 -25.258 -12.359  0.00  0.00    +0.155 HD
ENDBRANCH   2   8
BRANCH   4  13
ATOM     12  O   UNL     1      32.264 -22.304 -18.253  0.00  0.00    -0.245 OA
ATOM     13  C   UNL     1      33.285 -22.929 -17.950  0.00  0.00    +0.338 C 
BRANCH  13  14
ATOM     14  O   UNL     1      34.196 -23.322 -18.882  0.00  0.00    -0.477 OA
ATOM     15  H   UNL     1      34.001 -24.037 -19.456  0.00  0.00    +0.295 HD
ENDBRANCH  13  14
ENDBRANCH   4  13
BRANCH   1  16
ATOM     16  N   UNL     1      36.642 -24.573 -14.799  0.00  0.00    -0.372 N 
ATOM     17  H   UNL     1      37.294 -23.899 -14.502  0.00  0.00    +0.142 HD
BRANCH  16  18
ATOM     18  C   UNL     1      37.110 -25.939 -14.954  0.00  0.00    -0.062 C 
BRANCH  18  19
ATOM     19  N   UNL     1      37.900 -26.477 -13.828  0.00  0.00    +0.381 N 
ATOM     20  H   UNL     1      38.344 -27.350 -14.111  0.00  0.00    -0.090 HD
ATOM     21  H   UNL     1      37.285 -26.649 -13.033  0.00  0.00    -0.090 HD
ATOM     22  H   UNL     1      38.616 -25.800 -13.562  0.00  0.00    -0.090 HD
ENDBRANCH  18  19
BRANCH  18  23
ATOM     23  N   UNL     1      36.137 -26.997 -15.283  0.00  0.00    +0.381 N 
ATOM     24  H   UNL     1      35.607 -27.244 -14.447  0.00  0.00    -0.090 HD
ATOM     25  H   UNL     1      36.632 -27.820 -15.627  0.00  0.00    -0.090 HD
ATOM     26  H   UNL     1      35.497 -26.659 -16.002  0.00  0.00    -0.090 HD
ENDBRANCH  18  23
ENDBRANCH  16  18
ENDBRANCH   1  16
TORSDOF 7
ENDMDL
MODEL 7
REMARK VINA RESULT:      -7.0      3.214      6.606
REMARK  Name = 3364666
REMARK  7 active torsions:
REMARK  status: ('A' for Active; 'I' for Inactive)
REMARK    1  A    between atoms: C_1  and  N_16
REMARK    2  A    between atoms: C_2  and  N_8
REMARK    3  A    between atoms: C_4  and  C_13
REMARK    4  A    between atoms: C_13  and  O_14
REMARK    5  A    between atoms: N_16  and  C_18
REMARK    6  A    between atoms: C_18  and  N_19
REMARK    7  A    between atoms: C_18  and  N_23
REMARK                            x       y       z     vdW  Elec       q    Type
REMARK                         _______ _______ _______ _____ _____    ______ ____
ROOT
ATOM      1  C   UNL     1      33.028 -23.174 -16.794  0.00  0.00    +0.055 C 
ATOM      2  C   UNL     1      33.573 -23.198 -15.510  0.00  0.00    +0.063 C 
ATOM      3  C   UNL     1      31.643 -23.163 -16.963  0.00  0.00    +0.022 C 
ATOM      4  C   UNL     1      30.804 -23.176 -15.849  0.00  0.00    +0.077 C 
ATOM      5  C   UNL     1      32.733 -23.212 -14.396  0.00  0.00    +0.016 C 
ATOM      6  C   UNL     1      31.350 -23.201 -14.565  0.00  0.00    +0.008 C 
ENDROOT
BRANCH   2   8
ATOM      7  O   UNL     1      35.523 -25.492 -15.478  0.00  0.00    -0.275 OA
ATOM      8  N   UNL     1      34.957 -23.210 -15.315  0.00  0.00    -0.283 N 
ATOM      9  C   UNL     1      35.818 -24.314 -15.309  0.00  0.00    +0.227 C 
ATOM     10  C   UNL     1      37.248 -23.903 -15.064  0.00  0.00    +0.095 C 
ATOM     11  H   UNL     1      35.378 -22.333 -15.163  0.00  0.00    +0.155 HD
ENDBRANCH   2   8
BRANCH   4  13
ATOM     12  O   UNL     1      28.555 -23.840 -15.377  0.00  0.00    -0.245 OA
ATOM     13  C   UNL     1      29.360 -23.165 -16.025  0.00  0.00    +0.338 C 
BRANCH  13  14
ATOM     14  O   UNL     1      28.962 -22.310 -17.006  0.00  0.00    -0.477 OA
ATOM     15  H   UNL     1      28.051 -22.122 -17.123  0.00  0.00    +0.295 HD
ENDBRANCH  13  14
ENDBRANCH   4  13
BRANCH   1  16
ATOM     16  N   UNL     1      33.860 -23.159 -17.935  0.00  0.00    -0.372 N 
ATOM     17  H   UNL     1      34.382 -23.970 -18.130  0.00  0.00    +0.142 HD
BRANCH  16  18
ATOM     18  C   UNL     1      34.002 -22.034 -18.843  0.00  0.00    -0.062 C 
BRANCH  18  19
ATOM     19  N   UNL     1      35.289 -21.951 -19.564  0.00  0.00    +0.381 N 
ATOM     20  H   UNL     1      36.030 -21.703 -18.909  0.00  0.00    -0.090 HD
ATOM     21  H   UNL     1      35.226 -21.240 -20.292  0.00  0.00    -0.090 HD
ATOM     22  H   UNL     1      35.498 -22.855 -19.989  0.00  0.00    -0.090 HD
ENDBRANCH  18  19
BRANCH  18  23
ATOM     23  N   UNL     1      32.969 -21.808 -19.872  0.00  0.00    +0.381 N 
ATOM     24  H   UNL     1      32.620 -20.853 -19.799  0.00  0.00    -0.090 HD
ATOM     25  H   UNL     1      32.200 -22.463 -19.730  0.00  0.00    -0.090 HD
ATOM     26  H   UNL     1      33.374 -21.953 -20.797  0.00  0.00    -0.090 HD
ENDBRANCH  18  23
ENDBRANCH  16  18
ENDBRANCH   1  16
TORSDOF 7
ENDMDL
MODEL 8
REMARK VINA RESULT:      -7.0     10.673     12.734
REMARK  Name = 3364666
REMARK  7 active torsions:
REMARK  status: ('A' for Active; 'I' for Inactive)
REMARK    1  A    between atoms: C_1  and  N_16
REMARK    2  A    between atoms: C_2  and  N_8
REMARK    3  A    between atoms: C_4  and  C_13
REMARK    4  A    between atoms: C_13  and  O_14
REMARK    5  A    between atoms: N_16  and  C_18
REMARK    6  A    between atoms: C_18  and  N_19
REMARK    7  A    between atoms: C_18  and  N_23
REMARK                            x       y       z     vdW  Elec       q    Type
REMARK                         _______ _______ _______ _____ _____    ______ ____
ROOT
ATOM      1  C   UNL     1      33.726 -14.433 -23.185  0.00  0.00    +0.055 C 
ATOM      2  C   UNL     1      32.826 -14.128 -22.164  0.00  0.00    +0.063 C 
ATOM      3  C   UNL     1      34.581 -15.528 -23.057  0.00  0.00    +0.022 C 
ATOM      4  C   UNL     1      34.535 -16.319 -21.909  0.00  0.00    +0.077 C 
ATOM      5  C   UNL     1      32.781 -14.918 -21.015  0.00  0.00    +0.016 C 
ATOM      6  C   UNL     1      33.635 -16.013 -20.888  0.00  0.00    +0.008 C 
ENDROOT
BRANCH   2   8
ATOM      7  O   UNL     1      31.988 -12.094 -20.108  0.00  0.00    -0.275 OA
ATOM      8  N   UNL     1      31.961 -13.035 -22.269  0.00  0.00    -0.283 N 
ATOM      9  C   UNL     1      31.604 -12.118 -21.273  0.00  0.00    +0.227 C 
ATOM     10  C   UNL     1      30.641 -11.081 -21.791  0.00  0.00    +0.095 C 
ATOM     11  H   UNL     1      31.551 -12.894 -23.152  0.00  0.00    +0.155 HD
ENDBRANCH   2   8
BRANCH   4  13
ATOM     12  O   UNL     1      35.599 -18.116 -20.743  0.00  0.00    -0.245 OA
ATOM     13  C   UNL     1      35.426 -17.461 -21.775  0.00  0.00    +0.338 C 
BRANCH  13  14
ATOM     14  O   UNL     1      36.074 -17.754 -22.935  0.00  0.00    -0.477 OA
ATOM     15  H   UNL     1      36.990 -17.570 -23.020  0.00  0.00    +0.295 HD
ENDBRANCH  13  14
ENDBRANCH   4  13
BRANCH   1  16
ATOM     16  N   UNL     1      33.788 -13.647 -24.357  0.00  0.00    -0.372 N 
ATOM     17  H   UNL     1      34.367 -12.851 -24.343  0.00  0.00    +0.142 HD
BRANCH  16  18
ATOM     18  C   UNL     1      33.058 -13.924 -25.581  0.00  0.00    -0.062 C 
BRANCH  18  19
ATOM     19  N   UNL     1      33.349 -13.028 -26.718  0.00  0.00    +0.381 N 
ATOM     20  H   UNL     1      33.309 -13.557 -27.588  0.00  0.00    -0.090 HD
ATOM     21  H   UNL     1      34.280 -12.627 -26.606  0.00  0.00    -0.090 HD
ATOM     22  H   UNL     1      32.658 -12.277 -26.744  0.00  0.00    -0.090 HD
ENDBRANCH  18  19
BRANCH  18  23
ATOM     23  N   UNL     1      33.097 -15.287 -26.145  0.00  0.00    +0.381 N 
ATOM     24  H   UNL     1      32.182 -15.724 -26.043  0.00  0.00    -0.090 HD
ATOM     25  H   UNL     1      33.796 -15.840 -25.649  0.00  0.00    -0.090 HD
ATOM     26  H   UNL     1      33.342 -15.237 -27.135  0.00  0.00    -0.090 HD
ENDBRANCH  18  23
ENDBRANCH  16  18
ENDBRANCH   1  16
TORSDOF 7
ENDMDL
MODEL 9
REMARK VINA RESULT:      -7.0      3.927      6.507
REMARK  Name = 3364666
REMARK  7 active torsions:
REMARK  status: ('A' for Active; 'I' for Inactive)
REMARK    1  A    between atoms: C_1  and  N_16
REMARK    2  A    between atoms: C_2  and  N_8
REMARK    3  A    between atoms: C_4  and  C_13
REMARK    4  A    between atoms: C_13  and  O_14
REMARK    5  A    between atoms: N_16  and  C_18
REMARK    6  A    between atoms: C_18  and  N_19
REMARK    7  A    between atoms: C_18  and  N_23
REMARK                            x       y       z     vdW  Elec       q    Type
REMARK                         _______ _______ _______ _____ _____    ______ ____
ROOT
ATOM      1  C   UNL     1      33.923 -23.678 -15.286  0.00  0.00    +0.055 C 
ATOM      2  C   UNL     1      33.495 -23.205 -16.526  0.00  0.00    +0.063 C 
ATOM      3  C   UNL     1      32.990 -24.136 -14.355  0.00  0.00    +0.022 C 
ATOM      4  C   UNL     1      31.630 -24.120 -14.665  0.00  0.00    +0.077 C 
ATOM      5  C   UNL     1      32.135 -23.188 -16.835  0.00  0.00    +0.016 C 
ATOM      6  C   UNL     1      31.202 -23.646 -15.905  0.00  0.00    +0.008 C 
ENDROOT
BRANCH   2   8
ATOM      7  O   UNL     1      33.084 -22.339 -19.381  0.00  0.00    -0.275 OA
ATOM      8  N   UNL     1      34.411 -22.740 -17.475  0.00  0.00    -0.283 N 
ATOM      9  C   UNL     1      34.162 -22.351 -18.796  0.00  0.00    +0.227 C 
ATOM     10  C   UNL     1      35.424 -21.910 -19.493  0.00  0.00    +0.095 C 
ATOM     11  H   UNL     1      35.347 -22.680 -17.176  0.00  0.00    +0.155 HD
ENDBRANCH   2   8
BRANCH   4  13
ATOM     12  O   UNL     1      30.583 -24.233 -12.517  0.00  0.00    -0.245 OA
ATOM     13  C   UNL     1      30.657 -24.597 -13.694  0.00  0.00    +0.338 C 
BRANCH  13  14
ATOM     14  O   UNL     1      29.802 -25.516 -14.222  0.00  0.00    -0.477 OA
ATOM     15  H   UNL     1      29.503 -26.233 -13.698  0.00  0.00    +0.295 HD
ENDBRANCH  13  14
ENDBRANCH   4  13
BRANCH   1  16
ATOM     16  N   UNL     1      35.295 -23.704 -14.952  0.00  0.00    -0.372 N 
ATOM     17  H   UNL     1      35.725 -22.849 -14.723  0.00  0.00    +0.142 HD
BRANCH  16  18
ATOM     18  C   UNL     1      36.120 -24.899 -14.925  0.00  0.00    -0.062 C 
BRANCH  18  19
ATOM     19  N   UNL     1      37.523 -24.719 -15.347  0.00  0.00    +0.381 N 
ATOM     20  H   UNL     1      38.033 -25.592 -15.214  0.00  0.00    -0.090 HD
ATOM     21  H   UNL     1      37.955 -23.983 -14.788  0.00  0.00    -0.090 HD
ATOM     22  H   UNL     1      37.550 -24.456 -16.333  0.00  0.00    -0.090 HD
ENDBRANCH  18  19
BRANCH  18  23
ATOM     23  N   UNL     1      36.189 -25.692 -13.683  0.00  0.00    +0.381 N 
ATOM     24  H   UNL     1      35.714 -25.193 -12.932  0.00  0.00    -0.090 HD
ATOM     25  H   UNL     1      37.166 -25.839 -13.428  0.00  0.00    -0.090 HD
ATOM     26  H   UNL     1      35.736 -26.594 -13.831  0.00  0.00    -0.090 HD
ENDBRANCH  18  23
ENDBRANCH  16  18
ENDBRANCH   1  16
TORSDOF 7
ENDMDL
