MODEL 1
REMARK VINA RESULT:     -12.4      0.000      0.000
REMARK  Name = 11840906
REMARK  7 active torsions:
REMARK  status: ('A' for Active; 'I' for Inactive)
REMARK    1  A    between atoms: O_1  and  C_3
REMARK    2  A    between atoms: O_1  and  C_18
REMARK    3  A    between atoms: C_5  and  C_9
REMARK    4  A    between atoms: C_18  and  C_19
REMARK    5  A    between atoms: C_19  and  N_20
REMARK    6  A    between atoms: C_19  and  C_24
REMARK    7  A    between atoms: C_24  and  C_26
REMARK                            x       y       z     vdW  Elec       q    Type
REMARK                         _______ _______ _______ _____ _____    ______ ____
ROOT
ATOM      1  O   UNL     1      33.904 -14.762 -23.660  0.00  0.00    -0.476 OA
ENDROOT
BRANCH   1   3
ATOM      2  N   UNL     1      34.522 -17.929 -25.355  0.00  0.00    -0.239 NA
ATOM      3  C   UNL     1      34.218 -16.084 -23.842  0.00  0.00    +0.158 C 
ATOM      4  C   UNL     1      34.536 -16.886 -22.761  0.00  0.00    +0.040 C 
ATOM      5  C   UNL     1      34.850 -18.223 -22.978  0.00  0.00    +0.022 C 
ATOM      6  C   UNL     1      34.222 -16.635 -25.106  0.00  0.00    +0.136 C 
ATOM      7  C   UNL     1      34.829 -18.691 -24.281  0.00  0.00    +0.099 C 
BRANCH   5   9
ATOM      8  N   UNL     1      35.197 -22.444 -18.078  0.00  0.00    -0.242 NA
ATOM      9  C   UNL     1      35.188 -19.096 -21.878  0.00  0.00    +0.002 C 
ATOM     10  C   UNL     1      34.517 -20.752 -20.223  0.00  0.00    +0.003 C 
ATOM     11  C   UNL     1      34.204 -19.899 -21.294  0.00  0.00    +0.000 C 
ATOM     12  C   UNL     1      35.840 -20.789 -19.740  0.00  0.00    +0.019 C 
ATOM     13  C   UNL     1      36.495 -19.137 -21.395  0.00  0.00    +0.000 C 
ATOM     14  C   UNL     1      36.823 -19.978 -20.331  0.00  0.00    +0.002 C 
ATOM     15  C   UNL     1      33.552 -21.568 -19.620  0.00  0.00    +0.021 C 
ATOM     16  C   UNL     1      36.114 -21.649 -18.675  0.00  0.00    +0.099 C 
ATOM     17  C   UNL     1      33.940 -22.382 -18.568  0.00  0.00    +0.099 C 
ENDBRANCH   5   9
ENDBRANCH   1   3
BRANCH   1  18
ATOM     18  C   UNL     1      32.726 -14.481 -22.915  0.00  0.00    +0.184 C 
BRANCH  18  19
ATOM     19  C   UNL     1      32.379 -12.993 -23.034  0.00  0.00    -0.021 C 
BRANCH  19  20
ATOM     20  N   UNL     1      31.656 -12.583 -21.830  0.00  0.00    +0.384 N 
ATOM     21  H   UNL     1      31.497 -11.576 -21.855  0.00  0.00    -0.089 HD
ATOM     22  H   UNL     1      32.208 -12.820 -21.005  0.00  0.00    -0.089 HD
ATOM     23  H   UNL     1      30.760 -13.068 -21.790  0.00  0.00    -0.089 HD
ENDBRANCH  19  20
BRANCH  19  24
ATOM     24  C   UNL     1      33.645 -12.134 -23.239  0.00  0.00    -0.012 C 
BRANCH  24  26
ATOM     25  N   UNL     1      35.279  -9.615 -24.952  0.00  0.00    -0.270 NA
ATOM     26  C   UNL     1      33.475 -11.023 -24.258  0.00  0.00    +0.046 C 
ATOM     27  C   UNL     1      33.342  -9.661 -23.657  0.00  0.00    -0.007 C 
ATOM     28  C   UNL     1      34.763 -10.803 -25.045  0.00  0.00    +0.130 C 
ATOM     29  C   UNL     1      34.422  -8.890 -24.105  0.00  0.00    +0.071 C 
ATOM     30  C   UNL     1      32.378  -9.139 -22.816  0.00  0.00    -0.024 C 
ATOM     31  C   UNL     1      34.562  -7.570 -23.710  0.00  0.00    +0.014 C 
ATOM     32  C   UNL     1      32.513  -7.809 -22.414  0.00  0.00    +0.052 C 
ATOM     33  C   UNL     1      33.596  -7.031 -22.857  0.00  0.00    -0.020 C 
ENDBRANCH  24  26
ENDBRANCH  19  24
ENDBRANCH  18  19
ENDBRANCH   1  18
TORSDOF 7
ENDMDL
MODEL 2
REMARK VINA RESULT:     -12.2      1.629      2.391
REMARK  Name = 11840906
REMARK  7 active torsions:
REMARK  status: ('A' for Active; 'I' for Inactive)
REMARK    1  A    between atoms: O_1  and  C_3
REMARK    2  A    between atoms: O_1  and  C_18
REMARK    3  A    between atoms: C_5  and  C_9
REMARK    4  A    between atoms: C_18  and  C_19
REMARK    5  A    between atoms: C_19  and  N_20
REMARK    6  A    between atoms: C_19  and  C_24
REMARK    7  A    between atoms: C_24  and  C_26
REMARK                            x       y       z     vdW  Elec       q    Type
REMARK                         _______ _______ _______ _____ _____    ______ ____
ROOT
ATOM      1  O   UNL     1      34.158 -14.236 -23.467  0.00  0.00    -0.476 OA
ENDROOT
BRANCH   1   3
ATOM      2  N   UNL     1      34.378 -17.355 -25.340  0.00  0.00    -0.239 NA
ATOM      3  C   UNL     1      34.337 -15.570 -23.729  0.00  0.00    +0.158 C 
ATOM      4  C   UNL     1      34.645 -16.451 -22.708  0.00  0.00    +0.040 C 
ATOM      5  C   UNL     1      34.820 -17.798 -23.004  0.00  0.00    +0.022 C 
ATOM      6  C   UNL     1      34.215 -16.054 -25.014  0.00  0.00    +0.136 C 
ATOM      7  C   UNL     1      34.677 -18.195 -24.323  0.00  0.00    +0.099 C 
BRANCH   5   9
ATOM      8  N   UNL     1      35.088 -22.353 -18.409  0.00  0.00    -0.242 NA
ATOM      9  C   UNL     1      35.141 -18.752 -21.969  0.00  0.00    +0.002 C 
ATOM     10  C   UNL     1      34.438 -20.502 -20.429  0.00  0.00    +0.003 C 
ATOM     11  C   UNL     1      34.141 -19.571 -21.438  0.00  0.00    +0.000 C 
ATOM     12  C   UNL     1      35.762 -20.602 -19.956  0.00  0.00    +0.019 C 
ATOM     13  C   UNL     1      36.449 -18.854 -21.496  0.00  0.00    +0.000 C 
ATOM     14  C   UNL     1      36.761 -19.774 -20.494  0.00  0.00    +0.002 C 
ATOM     15  C   UNL     1      33.457 -21.337 -19.879  0.00  0.00    +0.021 C 
ATOM     16  C   UNL     1      36.020 -21.539 -18.954  0.00  0.00    +0.099 C 
ATOM     17  C   UNL     1      33.831 -22.230 -18.888  0.00  0.00    +0.099 C 
ENDBRANCH   5   9
ENDBRANCH   1   3
BRANCH   1  18
ATOM     18  C   UNL     1      33.297 -13.522 -24.345  0.00  0.00    +0.184 C 
BRANCH  18  19
ATOM     19  C   UNL     1      34.018 -12.283 -24.886  0.00  0.00    -0.021 C 
BRANCH  19  20
ATOM     20  N   UNL     1      33.383 -11.884 -26.143  0.00  0.00    +0.384 N 
ATOM     21  H   UNL     1      34.100 -11.734 -26.854  0.00  0.00    -0.089 HD
ATOM     22  H   UNL     1      32.861 -11.019 -26.000  0.00  0.00    -0.089 HD
ATOM     23  H   UNL     1      32.747 -12.618 -26.451  0.00  0.00    -0.089 HD
ENDBRANCH  19  20
BRANCH  19  24
ATOM     24  C   UNL     1      33.999 -11.127 -23.864  0.00  0.00    -0.012 C 
BRANCH  24  26
ATOM     25  N   UNL     1      32.213  -8.544 -22.419  0.00  0.00    -0.270 NA
ATOM     26  C   UNL     1      32.607 -10.624 -23.531  0.00  0.00    +0.046 C 
ATOM     27  C   UNL     1      32.200 -10.854 -22.111  0.00  0.00    -0.007 C 
ATOM     28  C   UNL     1      32.561  -9.100 -23.540  0.00  0.00    +0.130 C 
ATOM     29  C   UNL     1      31.982  -9.603 -21.522  0.00  0.00    +0.071 C 
ATOM     30  C   UNL     1      32.026 -12.029 -21.405  0.00  0.00    -0.024 C 
ATOM     31  C   UNL     1      31.587  -9.502 -20.199  0.00  0.00    +0.014 C 
ATOM     32  C   UNL     1      31.629 -11.935 -20.069  0.00  0.00    +0.052 C 
ATOM     33  C   UNL     1      31.412 -10.682 -19.472  0.00  0.00    -0.020 C 
ENDBRANCH  24  26
ENDBRANCH  19  24
ENDBRANCH  18  19
ENDBRANCH   1  18
TORSDOF 7
ENDMDL
MODEL 3
REMARK VINA RESULT:     -12.2      1.151      1.605
REMARK  Name = 11840906
REMARK  7 active torsions:
REMARK  status: ('A' for Active; 'I' for Inactive)
REMARK    1  A    between atoms: O_1  and  C_3
REMARK    2  A    between atoms: O_1  and  C_18
REMARK    3  A    between atoms: C_5  and  C_9
REMARK    4  A    between atoms: C_18  and  C_19
REMARK    5  A    between atoms: C_19  and  N_20
REMARK    6  A    between atoms: C_19  and  C_24
REMARK    7  A    between atoms: C_24  and  C_26
REMARK                            x       y       z     vdW  Elec       q    Type
REMARK                         _______ _______ _______ _____ _____    ______ ____
ROOT
ATOM      1  O   UNL     1      34.360 -14.541 -23.624  0.00  0.00    -0.476 OA
ENDROOT
BRANCH   1   3
ATOM      2  N   UNL     1      34.462 -17.765 -25.323  0.00  0.00    -0.239 NA
ATOM      3  C   UNL     1      34.497 -15.892 -23.813  0.00  0.00    +0.158 C 
ATOM      4  C   UNL     1      34.794 -16.724 -22.749  0.00  0.00    +0.040 C 
ATOM      5  C   UNL     1      34.926 -18.090 -22.973  0.00  0.00    +0.022 C 
ATOM      6  C   UNL     1      34.342 -16.443 -25.067  0.00  0.00    +0.136 C 
ATOM      7  C   UNL     1      34.752 -18.556 -24.265  0.00  0.00    +0.099 C 
BRANCH   5   9
ATOM      8  N   UNL     1      35.137 -22.423 -18.163  0.00  0.00    -0.242 NA
ATOM      9  C   UNL     1      35.235 -18.995 -21.890  0.00  0.00    +0.002 C 
ATOM     10  C   UNL     1      34.512 -20.668 -20.275  0.00  0.00    +0.003 C 
ATOM     11  C   UNL     1      34.227 -19.785 -21.329  0.00  0.00    +0.000 C 
ATOM     12  C   UNL     1      35.832 -20.750 -19.786  0.00  0.00    +0.019 C 
ATOM     13  C   UNL     1      36.538 -19.079 -21.401  0.00  0.00    +0.000 C 
ATOM     14  C   UNL     1      36.838 -19.952 -20.354  0.00  0.00    +0.002 C 
ATOM     15  C   UNL     1      33.524 -21.472 -19.695  0.00  0.00    +0.021 C 
ATOM     16  C   UNL     1      36.077 -21.639 -18.738  0.00  0.00    +0.099 C 
ATOM     17  C   UNL     1      33.885 -22.319 -18.658  0.00  0.00    +0.099 C 
ENDBRANCH   5   9
ENDBRANCH   1   3
BRANCH   1  18
ATOM     18  C   UNL     1      33.289 -13.905 -24.307  0.00  0.00    +0.184 C 
BRANCH  18  19
ATOM     19  C   UNL     1      32.746 -12.749 -23.460  0.00  0.00    -0.021 C 
BRANCH  19  20
ATOM     20  N   UNL     1      32.989 -13.050 -22.048  0.00  0.00    +0.384 N 
ATOM     21  H   UNL     1      33.670 -13.806 -21.974  0.00  0.00    -0.089 HD
ATOM     22  H   UNL     1      32.115 -13.336 -21.606  0.00  0.00    -0.089 HD
ATOM     23  H   UNL     1      33.351 -12.219 -21.581  0.00  0.00    -0.089 HD
ENDBRANCH  19  20
BRANCH  19  24
ATOM     24  C   UNL     1      33.392 -11.405 -23.859  0.00  0.00    -0.012 C 
BRANCH  24  26
ATOM     25  N   UNL     1      31.072  -8.935 -23.177  0.00  0.00    -0.270 NA
ATOM     26  C   UNL     1      33.048 -10.258 -22.928  0.00  0.00    +0.046 C 
ATOM     27  C   UNL     1      33.383  -8.908 -23.476  0.00  0.00    -0.007 C 
ATOM     28  C   UNL     1      31.537 -10.089 -22.804  0.00  0.00    +0.130 C 
ATOM     29  C   UNL     1      32.188  -8.187 -23.592  0.00  0.00    +0.071 C 
ATOM     30  C   UNL     1      34.600  -8.357 -23.828  0.00  0.00    -0.024 C 
ATOM     31  C   UNL     1      32.188  -6.889 -24.074  0.00  0.00    +0.014 C 
ATOM     32  C   UNL     1      34.607  -7.048 -24.315  0.00  0.00    +0.052 C 
ATOM     33  C   UNL     1      33.412  -6.321 -24.438  0.00  0.00    -0.020 C 
ENDBRANCH  24  26
ENDBRANCH  19  24
ENDBRANCH  18  19
ENDBRANCH   1  18
TORSDOF 7
ENDMDL
MODEL 4
REMARK VINA RESULT:     -12.1      1.385      1.812
REMARK  Name = 11840906
REMARK  7 active torsions:
REMARK  status: ('A' for Active; 'I' for Inactive)
REMARK    1  A    between atoms: O_1  and  C_3
REMARK    2  A    between atoms: O_1  and  C_18
REMARK    3  A    between atoms: C_5  and  C_9
REMARK    4  A    between atoms: C_18  and  C_19
REMARK    5  A    between atoms: C_19  and  N_20
REMARK    6  A    between atoms: C_19  and  C_24
REMARK    7  A    between atoms: C_24  and  C_26
REMARK                            x       y       z     vdW  Elec       q    Type
REMARK                         _______ _______ _______ _____ _____    ______ ____
ROOT
ATOM      1  O   UNL     1      34.298 -14.591 -23.597  0.00  0.00    -0.476 OA
ENDROOT
BRANCH   1   3
ATOM      2  N   UNL     1      34.489 -17.800 -25.315  0.00  0.00    -0.239 NA
ATOM      3  C   UNL     1      34.461 -15.938 -23.792  0.00  0.00    +0.158 C 
ATOM      4  C   UNL     1      34.747 -16.773 -22.727  0.00  0.00    +0.040 C 
ATOM      5  C   UNL     1      34.906 -18.135 -22.957  0.00  0.00    +0.022 C 
ATOM      6  C   UNL     1      34.342 -16.482 -25.053  0.00  0.00    +0.136 C 
ATOM      7  C   UNL     1      34.768 -18.594 -24.257  0.00  0.00    +0.099 C 
BRANCH   5   9
ATOM      8  N   UNL     1      35.069 -22.460 -18.140  0.00  0.00    -0.242 NA
ATOM      9  C   UNL     1      35.205 -19.042 -21.874  0.00  0.00    +0.002 C 
ATOM     10  C   UNL     1      34.463 -20.700 -20.252  0.00  0.00    +0.003 C 
ATOM     11  C   UNL     1      34.188 -19.814 -21.307  0.00  0.00    +0.000 C 
ATOM     12  C   UNL     1      35.783 -20.802 -19.769  0.00  0.00    +0.019 C 
ATOM     13  C   UNL     1      36.509 -19.147 -21.392  0.00  0.00    +0.000 C 
ATOM     14  C   UNL     1      36.800 -20.022 -20.345  0.00  0.00    +0.002 C 
ATOM     15  C   UNL     1      33.464 -21.486 -19.665  0.00  0.00    +0.021 C 
ATOM     16  C   UNL     1      36.020 -21.693 -18.721  0.00  0.00    +0.099 C 
ATOM     17  C   UNL     1      33.817 -22.336 -18.628  0.00  0.00    +0.099 C 
ENDBRANCH   5   9
ENDBRANCH   1   3
BRANCH   1  18
ATOM     18  C   UNL     1      33.247 -13.962 -24.318  0.00  0.00    +0.184 C 
BRANCH  18  19
ATOM     19  C   UNL     1      32.467 -13.026 -23.388  0.00  0.00    -0.021 C 
BRANCH  19  20
ATOM     20  N   UNL     1      32.332 -13.671 -22.081  0.00  0.00    +0.384 N 
ATOM     21  H   UNL     1      31.359 -13.943 -21.936  0.00  0.00    -0.089 HD
ATOM     22  H   UNL     1      32.615 -13.019 -21.349  0.00  0.00    -0.089 HD
ATOM     23  H   UNL     1      32.926 -14.499 -22.048  0.00  0.00    -0.089 HD
ENDBRANCH  19  20
BRANCH  19  24
ATOM     24  C   UNL     1      33.160 -11.653 -23.259  0.00  0.00    -0.012 C 
BRANCH  24  26
ATOM     25  N   UNL     1      32.927  -8.220 -22.929  0.00  0.00    -0.270 NA
ATOM     26  C   UNL     1      32.197 -10.488 -23.127  0.00  0.00    +0.046 C 
ATOM     27  C   UNL     1      32.023  -9.999 -21.726  0.00  0.00    -0.007 C 
ATOM     28  C   UNL     1      32.784  -9.222 -23.742  0.00  0.00    +0.130 C 
ATOM     29  C   UNL     1      32.463  -8.670 -21.680  0.00  0.00    +0.071 C 
ATOM     30  C   UNL     1      31.523 -10.636 -20.606  0.00  0.00    -0.024 C 
ATOM     31  C   UNL     1      32.417  -7.949 -20.499  0.00  0.00    +0.014 C 
ATOM     32  C   UNL     1      31.474  -9.915 -19.411  0.00  0.00    +0.052 C 
ATOM     33  C   UNL     1      31.918  -8.583 -19.359  0.00  0.00    -0.020 C 
ENDBRANCH  24  26
ENDBRANCH  19  24
ENDBRANCH  18  19
ENDBRANCH   1  18
TORSDOF 7
ENDMDL
MODEL 5
REMARK VINA RESULT:     -12.0      3.960     11.846
REMARK  Name = 11840906
REMARK  7 active torsions:
REMARK  status: ('A' for Active; 'I' for Inactive)
REMARK    1  A    between atoms: O_1  and  C_3
REMARK    2  A    between atoms: O_1  and  C_18
REMARK    3  A    between atoms: C_5  and  C_9
REMARK    4  A    between atoms: C_18  and  C_19
REMARK    5  A    between atoms: C_19  and  N_20
REMARK    6  A    between atoms: C_19  and  C_24
REMARK    7  A    between atoms: C_24  and  C_26
REMARK                            x       y       z     vdW  Elec       q    Type
REMARK                         _______ _______ _______ _____ _____    ______ ____
ROOT
ATOM      1  O   UNL     1      36.326 -22.354 -18.196  0.00  0.00    -0.476 OA
ENDROOT
BRANCH   1   3
ATOM      2  N   UNL     1      32.930 -21.965 -19.461  0.00  0.00    -0.239 NA
ATOM      3  C   UNL     1      35.269 -21.853 -18.911  0.00  0.00    +0.158 C 
ATOM      4  C   UNL     1      35.444 -20.780 -19.766  0.00  0.00    +0.040 C 
ATOM      5  C   UNL     1      34.352 -20.294 -20.476  0.00  0.00    +0.022 C 
ATOM      6  C   UNL     1      34.014 -22.410 -18.787  0.00  0.00    +0.136 C 
ATOM      7  C   UNL     1      33.128 -20.916 -20.291  0.00  0.00    +0.099 C 
BRANCH   5   9
ATOM      8  N   UNL     1      34.673 -14.616 -23.574  0.00  0.00    -0.242 NA
ATOM      9  C   UNL     1      34.491 -19.177 -21.381  0.00  0.00    +0.002 C 
ATOM     10  C   UNL     1      34.398 -16.779 -21.792  0.00  0.00    +0.003 C 
ATOM     11  C   UNL     1      34.268 -17.875 -20.923  0.00  0.00    +0.000 C 
ATOM     12  C   UNL     1      34.758 -17.006 -23.136  0.00  0.00    +0.019 C 
ATOM     13  C   UNL     1      34.845 -19.396 -22.711  0.00  0.00    +0.000 C 
ATOM     14  C   UNL     1      34.978 -18.318 -23.587  0.00  0.00    +0.002 C 
ATOM     15  C   UNL     1      34.183 -15.464 -21.362  0.00  0.00    +0.021 C 
ATOM     16  C   UNL     1      34.878 -15.893 -23.969  0.00  0.00    +0.099 C 
ATOM     17  C   UNL     1      34.332 -14.436 -22.279  0.00  0.00    +0.099 C 
ENDBRANCH   5   9
ENDBRANCH   1   3
BRANCH   1  18
ATOM     18  C   UNL     1      36.407 -21.982 -16.827  0.00  0.00    +0.184 C 
BRANCH  18  19
ATOM     19  C   UNL     1      36.596 -23.231 -15.959  0.00  0.00    -0.021 C 
BRANCH  19  20
ATOM     20  N   UNL     1      37.189 -22.829 -14.683  0.00  0.00    +0.384 N 
ATOM     21  H   UNL     1      37.341 -23.655 -14.104  0.00  0.00    -0.089 HD
ATOM     22  H   UNL     1      36.558 -22.188 -14.202  0.00  0.00    -0.089 HD
ATOM     23  H   UNL     1      38.081 -22.365 -14.854  0.00  0.00    -0.089 HD
ENDBRANCH  19  20
BRANCH  19  24
ATOM     24  C   UNL     1      35.260 -23.972 -15.740  0.00  0.00    -0.012 C 
BRANCH  24  26
ATOM     25  N   UNL     1      33.430 -24.538 -12.862  0.00  0.00    -0.270 NA
ATOM     26  C   UNL     1      34.361 -23.327 -14.702  0.00  0.00    +0.046 C 
ATOM     27  C   UNL     1      32.904 -23.576 -14.919  0.00  0.00    -0.007 C 
ATOM     28  C   UNL     1      34.514 -24.011 -13.347  0.00  0.00    +0.130 C 
ATOM     29  C   UNL     1      32.423 -24.282 -13.809  0.00  0.00    +0.071 C 
ATOM     30  C   UNL     1      32.077 -23.219 -15.966  0.00  0.00    -0.024 C 
ATOM     31  C   UNL     1      31.091 -24.652 -13.728  0.00  0.00    +0.014 C 
ATOM     32  C   UNL     1      30.732 -23.589 -15.891  0.00  0.00    +0.052 C 
ATOM     33  C   UNL     1      30.244 -24.300 -14.783  0.00  0.00    -0.020 C 
ENDBRANCH  24  26
ENDBRANCH  19  24
ENDBRANCH  18  19
ENDBRANCH   1  18
TORSDOF 7
ENDMDL
MODEL 6
REMARK VINA RESULT:     -11.9      3.857     11.913
REMARK  Name = 11840906
REMARK  7 active torsions:
REMARK  status: ('A' for Active; 'I' for Inactive)
REMARK    1  A    between atoms: O_1  and  C_3
REMARK    2  A    between atoms: O_1  and  C_18
REMARK    3  A    between atoms: C_5  and  C_9
REMARK    4  A    between atoms: C_18  and  C_19
REMARK    5  A    between atoms: C_19  and  N_20
REMARK    6  A    between atoms: C_19  and  C_24
REMARK    7  A    between atoms: C_24  and  C_26
REMARK                            x       y       z     vdW  Elec       q    Type
REMARK                         _______ _______ _______ _____ _____    ______ ____
ROOT
ATOM      1  O   UNL     1      33.057 -22.308 -18.857  0.00  0.00    -0.476 OA
ENDROOT
BRANCH   1   3
ATOM      2  N   UNL     1      36.506 -21.328 -19.511  0.00  0.00    -0.239 NA
ATOM      3  C   UNL     1      34.122 -21.619 -19.376  0.00  0.00    +0.158 C 
ATOM      4  C   UNL     1      33.919 -20.567 -20.251  0.00  0.00    +0.040 C 
ATOM      5  C   UNL     1      35.020 -19.888 -20.762  0.00  0.00    +0.022 C 
ATOM      6  C   UNL     1      35.412 -21.964 -19.036  0.00  0.00    +0.136 C 
ATOM      7  C   UNL     1      36.280 -20.303 -20.364  0.00  0.00    +0.099 C 
BRANCH   5   9
ATOM      8  N   UNL     1      34.164 -14.270 -23.868  0.00  0.00    -0.242 NA
ATOM      9  C   UNL     1      34.853 -18.784 -21.677  0.00  0.00    +0.002 C 
ATOM     10  C   UNL     1      34.489 -16.407 -22.064  0.00  0.00    +0.003 C 
ATOM     11  C   UNL     1      34.654 -17.491 -21.186  0.00  0.00    +0.000 C 
ATOM     12  C   UNL     1      34.527 -16.639 -23.454  0.00  0.00    +0.019 C 
ATOM     13  C   UNL     1      34.890 -19.006 -23.053  0.00  0.00    +0.000 C 
ATOM     14  C   UNL     1      34.728 -17.941 -23.940  0.00  0.00    +0.002 C 
ATOM     15  C   UNL     1      34.288 -15.101 -21.600  0.00  0.00    +0.021 C 
ATOM     16  C   UNL     1      34.360 -15.538 -24.296  0.00  0.00    +0.099 C 
ATOM     17  C   UNL     1      34.134 -14.086 -22.531  0.00  0.00    +0.099 C 
ENDBRANCH   5   9
ENDBRANCH   1   3
BRANCH   1  18
ATOM     18  C   UNL     1      33.357 -23.456 -18.074  0.00  0.00    +0.184 C 
BRANCH  18  19
ATOM     19  C   UNL     1      33.244 -23.113 -16.585  0.00  0.00    -0.021 C 
BRANCH  19  20
ATOM     20  N   UNL     1      31.892 -23.442 -16.131  0.00  0.00    +0.384 N 
ATOM     21  H   UNL     1      31.740 -24.448 -16.215  0.00  0.00    -0.089 HD
ATOM     22  H   UNL     1      31.210 -22.947 -16.705  0.00  0.00    -0.089 HD
ATOM     23  H   UNL     1      31.783 -23.163 -15.156  0.00  0.00    -0.089 HD
ENDBRANCH  19  20
BRANCH  19  24
ATOM     24  C   UNL     1      34.306 -23.862 -15.751  0.00  0.00    -0.012 C 
BRANCH  24  26
ATOM     25  N   UNL     1      37.600 -23.088 -15.048  0.00  0.00    -0.270 NA
ATOM     26  C   UNL     1      35.215 -22.949 -14.951  0.00  0.00    +0.046 C 
ATOM     27  C   UNL     1      35.757 -23.570 -13.705  0.00  0.00    -0.007 C 
ATOM     28  C   UNL     1      36.532 -22.712 -15.683  0.00  0.00    +0.130 C 
ATOM     29  C   UNL     1      37.152 -23.617 -13.824  0.00  0.00    +0.071 C 
ATOM     30  C   UNL     1      35.110 -24.038 -12.578  0.00  0.00    -0.024 C 
ATOM     31  C   UNL     1      37.933 -24.145 -12.810  0.00  0.00    +0.014 C 
ATOM     32  C   UNL     1      35.891 -24.571 -11.550  0.00  0.00    +0.052 C 
ATOM     33  C   UNL     1      37.290 -24.625 -11.665  0.00  0.00    -0.020 C 
ENDBRANCH  24  26
ENDBRANCH  19  24
ENDBRANCH  18  19
ENDBRANCH   1  18
TORSDOF 7
ENDMDL
MODEL 7
REMARK VINA RESULT:     -11.9      1.674     10.428
REMARK  Name = 11840906
REMARK  7 active torsions:
REMARK  status: ('A' for Active; 'I' for Inactive)
REMARK    1  A    between atoms: O_1  and  C_3
REMARK    2  A    between atoms: O_1  and  C_18
REMARK    3  A    between atoms: C_5  and  C_9
REMARK    4  A    between atoms: C_18  and  C_19
REMARK    5  A    between atoms: C_19  and  N_20
REMARK    6  A    between atoms: C_19  and  C_24
REMARK    7  A    between atoms: C_24  and  C_26
REMARK                            x       y       z     vdW  Elec       q    Type
REMARK                         _______ _______ _______ _____ _____    ______ ____
ROOT
ATOM      1  O   UNL     1      33.809 -15.996 -23.244  0.00  0.00    -0.476 OA
ENDROOT
BRANCH   1   3
ATOM      2  N   UNL     1      33.295 -14.255 -26.405  0.00  0.00    -0.239 NA
ATOM      3  C   UNL     1      33.668 -14.965 -24.137  0.00  0.00    +0.158 C 
ATOM      4  C   UNL     1      33.746 -13.651 -23.712  0.00  0.00    +0.040 C 
ATOM      5  C   UNL     1      33.599 -12.628 -24.642  0.00  0.00    +0.022 C 
ATOM      6  C   UNL     1      33.443 -15.223 -25.473  0.00  0.00    +0.136 C 
ATOM      7  C   UNL     1      33.377 -12.980 -25.963  0.00  0.00    +0.099 C 
BRANCH   5   9
ATOM      8  N   UNL     1      32.945  -6.660 -22.215  0.00  0.00    -0.242 NA
ATOM      9  C   UNL     1      33.675 -11.243 -24.242  0.00  0.00    +0.002 C 
ATOM     10  C   UNL     1      32.776  -9.364 -22.980  0.00  0.00    +0.003 C 
ATOM     11  C   UNL     1      32.715 -10.710 -23.376  0.00  0.00    +0.000 C 
ATOM     12  C   UNL     1      33.821  -8.552 -23.466  0.00  0.00    +0.019 C 
ATOM     13  C   UNL     1      34.705 -10.434 -24.720  0.00  0.00    +0.000 C 
ATOM     14  C   UNL     1      34.780  -9.095 -24.336  0.00  0.00    +0.002 C 
ATOM     15  C   UNL     1      31.829  -8.804 -22.113  0.00  0.00    +0.021 C 
ATOM     16  C   UNL     1      33.849  -7.220 -23.050  0.00  0.00    +0.099 C 
ATOM     17  C   UNL     1      31.959  -7.468 -21.768  0.00  0.00    +0.099 C 
ENDBRANCH   5   9
ENDBRANCH   1   3
BRANCH   1  18
ATOM     18  C   UNL     1      34.877 -16.905 -23.480  0.00  0.00    +0.184 C 
BRANCH  18  19
ATOM     19  C   UNL     1      34.318 -18.313 -23.711  0.00  0.00    -0.021 C 
BRANCH  19  20
ATOM     20  N   UNL     1      34.333 -18.592 -25.147  0.00  0.00    +0.384 N 
ATOM     21  H   UNL     1      34.815 -17.836 -25.636  0.00  0.00    -0.089 HD
ATOM     22  H   UNL     1      33.375 -18.662 -25.491  0.00  0.00    -0.089 HD
ATOM     23  H   UNL     1      34.821 -19.471 -25.318  0.00  0.00    -0.089 HD
ENDBRANCH  19  20
BRANCH  19  24
ATOM     24  C   UNL     1      35.123 -19.374 -22.932  0.00  0.00    -0.012 C 
BRANCH  24  26
ATOM     25  N   UNL     1      37.002 -19.989 -20.096  0.00  0.00    -0.270 NA
ATOM     26  C   UNL     1      35.251 -19.082 -21.449  0.00  0.00    +0.046 C 
ATOM     27  C   UNL     1      34.727 -20.169 -20.567  0.00  0.00    -0.007 C 
ATOM     28  C   UNL     1      36.712 -19.113 -21.011  0.00  0.00    +0.130 C 
ATOM     29  C   UNL     1      35.797 -20.651 -19.803  0.00  0.00    +0.071 C 
ATOM     30  C   UNL     1      33.451 -20.680 -20.432  0.00  0.00    -0.024 C 
ATOM     31  C   UNL     1      35.609 -21.670 -18.884  0.00  0.00    +0.014 C 
ATOM     32  C   UNL     1      33.253 -21.708 -19.508  0.00  0.00    +0.052 C 
ATOM     33  C   UNL     1      34.323 -22.199 -18.741  0.00  0.00    -0.020 C 
ENDBRANCH  24  26
ENDBRANCH  19  24
ENDBRANCH  18  19
ENDBRANCH   1  18
TORSDOF 7
ENDMDL
MODEL 8
REMARK VINA RESULT:     -11.8      4.005     12.427
REMARK  Name = 11840906
REMARK  7 active torsions:
REMARK  status: ('A' for Active; 'I' for Inactive)
REMARK    1  A    between atoms: O_1  and  C_3
REMARK    2  A    between atoms: O_1  and  C_18
REMARK    3  A    between atoms: C_5  and  C_9
REMARK    4  A    between atoms: C_18  and  C_19
REMARK    5  A    between atoms: C_19  and  N_20
REMARK    6  A    between atoms: C_19  and  C_24
REMARK    7  A    between atoms: C_24  and  C_26
REMARK                            x       y       z     vdW  Elec       q    Type
REMARK                         _______ _______ _______ _____ _____    ______ ____
ROOT
ATOM      1  O   UNL     1      33.058 -22.393 -18.782  0.00  0.00    -0.476 OA
ENDROOT
BRANCH   1   3
ATOM      2  N   UNL     1      36.509 -21.386 -19.385  0.00  0.00    -0.239 NA
ATOM      3  C   UNL     1      34.126 -21.699 -19.290  0.00  0.00    +0.158 C 
ATOM      4  C   UNL     1      33.929 -20.659 -20.180  0.00  0.00    +0.040 C 
ATOM      5  C   UNL     1      35.033 -19.975 -20.678  0.00  0.00    +0.022 C 
ATOM      6  C   UNL     1      35.413 -22.028 -18.922  0.00  0.00    +0.136 C 
ATOM      7  C   UNL     1      36.289 -20.373 -20.253  0.00  0.00    +0.099 C 
BRANCH   5   9
ATOM      8  N   UNL     1      34.224 -14.393 -23.861  0.00  0.00    -0.242 NA
ATOM      9  C   UNL     1      34.872 -18.882 -21.609  0.00  0.00    +0.002 C 
ATOM     10  C   UNL     1      34.537 -16.507 -22.027  0.00  0.00    +0.003 C 
ATOM     11  C   UNL     1      34.695 -17.579 -21.134  0.00  0.00    +0.000 C 
ATOM     12  C   UNL     1      34.558 -16.760 -23.414  0.00  0.00    +0.019 C 
ATOM     13  C   UNL     1      34.891 -19.126 -22.981  0.00  0.00    +0.000 C 
ATOM     14  C   UNL     1      34.735 -18.072 -23.882  0.00  0.00    +0.002 C 
ATOM     15  C   UNL     1      34.359 -15.192 -21.581  0.00  0.00    +0.021 C 
ATOM     16  C   UNL     1      34.398 -15.669 -24.271  0.00  0.00    +0.099 C 
ATOM     17  C   UNL     1      34.210 -14.188 -22.526  0.00  0.00    +0.099 C 
ENDBRANCH   5   9
ENDBRANCH   1   3
BRANCH   1  18
ATOM     18  C   UNL     1      33.354 -23.459 -17.889  0.00  0.00    +0.184 C 
BRANCH  18  19
ATOM     19  C   UNL     1      33.063 -23.024 -16.449  0.00  0.00    -0.021 C 
BRANCH  19  20
ATOM     20  N   UNL     1      31.947 -23.820 -15.936  0.00  0.00    +0.384 N 
ATOM     21  H   UNL     1      31.613 -23.413 -15.062  0.00  0.00    -0.089 HD
ATOM     22  H   UNL     1      32.259 -24.776 -15.768  0.00  0.00    -0.089 HD
ATOM     23  H   UNL     1      31.190 -23.824 -16.620  0.00  0.00    -0.089 HD
ENDBRANCH  19  20
BRANCH  19  24
ATOM     24  C   UNL     1      34.310 -23.177 -15.551  0.00  0.00    -0.012 C 
BRANCH  24  26
ATOM     25  N   UNL     1      34.712 -24.219 -12.280  0.00  0.00    -0.270 NA
ATOM     26  C   UNL     1      34.255 -24.375 -14.622  0.00  0.00    +0.046 C 
ATOM     27  C   UNL     1      35.593 -24.961 -14.306  0.00  0.00    -0.007 C 
ATOM     28  C   UNL     1      33.848 -23.955 -13.214  0.00  0.00    +0.130 C 
ATOM     29  C   UNL     1      35.795 -24.842 -12.925  0.00  0.00    +0.071 C 
ATOM     30  C   UNL     1      36.535 -25.548 -15.128  0.00  0.00    -0.024 C 
ATOM     31  C   UNL     1      36.959 -25.307 -12.337  0.00  0.00    +0.014 C 
ATOM     32  C   UNL     1      37.712 -26.019 -14.542  0.00  0.00    +0.052 C 
ATOM     33  C   UNL     1      37.922 -25.899 -13.158  0.00  0.00    -0.020 C 
ENDBRANCH  24  26
ENDBRANCH  19  24
ENDBRANCH  18  19
ENDBRANCH   1  18
TORSDOF 7
ENDMDL
MODEL 9
REMARK VINA RESULT:     -11.7      1.657      2.654
REMARK  Name = 11840906
REMARK  7 active torsions:
REMARK  status: ('A' for Active; 'I' for Inactive)
REMARK    1  A    between atoms: O_1  and  C_3
REMARK    2  A    between atoms: O_1  and  C_18
REMARK    3  A    between atoms: C_5  and  C_9
REMARK    4  A    between atoms: C_18  and  C_19
REMARK    5  A    between atoms: C_19  and  N_20
REMARK    6  A    between atoms: C_19  and  C_24
REMARK    7  A    between atoms: C_24  and  C_26
REMARK                            x       y       z     vdW  Elec       q    Type
REMARK                         _______ _______ _______ _____ _____    ______ ____
ROOT
ATOM      1  O   UNL     1      33.717 -13.201 -23.520  0.00  0.00    -0.476 OA
ENDROOT
BRANCH   1   3
ATOM      2  N   UNL     1      34.002 -16.089 -25.726  0.00  0.00    -0.239 NA
ATOM      3  C   UNL     1      33.938 -14.491 -23.929  0.00  0.00    +0.158 C 
ATOM      4  C   UNL     1      34.304 -15.464 -23.017  0.00  0.00    +0.040 C 
ATOM      5  C   UNL     1      34.521 -16.764 -23.462  0.00  0.00    +0.022 C 
ATOM      6  C   UNL     1      33.800 -14.838 -25.256  0.00  0.00    +0.136 C 
ATOM      7  C   UNL     1      34.358 -17.022 -24.813  0.00  0.00    +0.099 C 
BRANCH   5   9
ATOM      8  N   UNL     1      35.048 -21.657 -19.254  0.00  0.00    -0.242 NA
ATOM      9  C   UNL     1      34.903 -17.811 -22.544  0.00  0.00    +0.002 C 
ATOM     10  C   UNL     1      34.279 -19.623 -21.042  0.00  0.00    +0.003 C 
ATOM     11  C   UNL     1      33.923 -18.602 -21.939  0.00  0.00    +0.000 C 
ATOM     12  C   UNL     1      35.642 -19.842 -20.759  0.00  0.00    +0.019 C 
ATOM     13  C   UNL     1      36.249 -18.031 -22.259  0.00  0.00    +0.000 C 
ATOM     14  C   UNL     1      36.621 -19.042 -21.371  0.00  0.00    +0.002 C 
ATOM     15  C   UNL     1      33.320 -20.432 -20.422  0.00  0.00    +0.021 C 
ATOM     16  C   UNL     1      35.959 -20.866 -19.864  0.00  0.00    +0.099 C 
ATOM     17  C   UNL     1      33.752 -21.419 -19.550  0.00  0.00    +0.099 C 
ENDBRANCH   5   9
ENDBRANCH   1   3
BRANCH   1  18
ATOM     18  C   UNL     1      33.677 -12.206 -24.535  0.00  0.00    +0.184 C 
BRANCH  18  19
ATOM     19  C   UNL     1      34.184 -10.873 -23.975  0.00  0.00    -0.021 C 
BRANCH  19  20
ATOM     20  N   UNL     1      35.251 -10.377 -24.844  0.00  0.00    +0.384 N 
ATOM     21  H   UNL     1      35.881  -9.782 -24.304  0.00  0.00    -0.089 HD
ATOM     22  H   UNL     1      34.845  -9.835 -25.608  0.00  0.00    -0.089 HD
ATOM     23  H   UNL     1      35.773 -11.165 -25.227  0.00  0.00    -0.089 HD
ENDBRANCH  19  20
BRANCH  19  24
ATOM     24  C   UNL     1      33.043  -9.841 -23.855  0.00  0.00    -0.012 C 
BRANCH  24  26
ATOM     25  N   UNL     1      31.797  -7.696 -21.447  0.00  0.00    -0.270 NA
ATOM     26  C   UNL     1      33.375  -8.658 -22.965  0.00  0.00    +0.046 C 
ATOM     27  C   UNL     1      32.877  -7.348 -23.483  0.00  0.00    -0.007 C 
ATOM     28  C   UNL     1      32.577  -8.712 -21.666  0.00  0.00    +0.130 C 
ATOM     29  C   UNL     1      31.965  -6.839 -22.549  0.00  0.00    +0.071 C 
ATOM     30  C   UNL     1      33.189  -6.660 -24.639  0.00  0.00    -0.024 C 
ATOM     31  C   UNL     1      31.337  -5.624 -22.761  0.00  0.00    +0.014 C 
ATOM     32  C   UNL     1      32.560  -5.433 -24.860  0.00  0.00    +0.052 C 
ATOM     33  C   UNL     1      31.642  -4.920 -23.930  0.00  0.00    -0.020 C 
ENDBRANCH  24  26
ENDBRANCH  19  24
ENDBRANCH  18  19
ENDBRANCH   1  18
TORSDOF 7
ENDMDL
