MODEL 1
REMARK VINA RESULT:     -10.6      0.000      0.000
REMARK  Name = 124093
REMARK  6 active torsions:
REMARK  status: ('A' for Active; 'I' for Inactive)
REMARK    1  A    between atoms: N_2  and  C_24
REMARK    2  A    between atoms: C_6  and  O_31
REMARK    3  A    between atoms: C_7  and  C_28
REMARK    4  A    between atoms: C_8  and  C_16
REMARK    5  A    between atoms: C_28  and  O_29
REMARK    6  A    between atoms: O_31  and  C_34
REMARK                            x       y       z     vdW  Elec       q    Type
REMARK                         _______ _______ _______ _____ _____    ______ ____
ROOT
ATOM      1  O   UNL     1      30.983 -10.401 -20.652  0.00  0.00    -0.286 OA
ATOM      2  N   UNL     1      33.302 -11.846 -23.677  0.00  0.00    -0.285 N 
ATOM      3  C   UNL     1      33.027 -12.698 -22.569  0.00  0.00    +0.089 C 
ATOM      4  C   UNL     1      32.783 -10.566 -23.698  0.00  0.00    +0.075 C 
ATOM      5  C   UNL     1      32.227 -12.224 -21.508  0.00  0.00    +0.056 C 
ATOM      6  C   UNL     1      33.524 -14.010 -22.483  0.00  0.00    +0.158 C 
ATOM      7  C   UNL     1      32.014 -10.020 -22.747  0.00  0.00    +0.129 C 
ATOM      8  C   UNL     1      33.232 -14.817 -21.379  0.00  0.00    +0.035 C 
ATOM      9  C   UNL     1      31.679 -10.843 -21.557  0.00  0.00    +0.204 C 
ATOM     10  C   UNL     1      31.935 -13.033 -20.403  0.00  0.00    +0.005 C 
ATOM     11  C   UNL     1      32.441 -14.330 -20.343  0.00  0.00    +0.003 C 
ENDROOT
BRANCH   8  16
ATOM     12  N   UNL     1      33.747 -20.783 -20.450  0.00  0.00    +0.390 N 
ATOM     13  C   UNL     1      35.004 -20.214 -20.995  0.00  0.00    -0.038 C 
ATOM     14  C   UNL     1      34.748 -18.742 -21.109  0.00  0.00    -0.048 C 
ATOM     15  C   UNL     1      33.386 -18.499 -20.933  0.00  0.00    -0.050 C 
ATOM     16  C   UNL     1      33.741 -16.172 -21.284  0.00  0.00    +0.003 C 
ATOM     17  C   UNL     1      32.678 -19.789 -20.684  0.00  0.00    -0.054 C 
ATOM     18  C   UNL     1      32.863 -17.222 -21.019  0.00  0.00    -0.007 C 
ATOM     19  C   UNL     1      35.625 -17.706 -21.384  0.00  0.00    -0.007 C 
ATOM     20  C   UNL     1      35.111 -16.409 -21.466  0.00  0.00    -0.000 C 
ATOM     21  C   UNL     1      36.192 -20.567 -20.107  0.00  0.00    -0.019 C 
ATOM     22  H   UNL     1      33.847 -20.959 -19.451  0.00  0.00    -0.083 HD
ATOM     23  H   UNL     1      33.523 -21.667 -20.907  0.00  0.00    -0.083 HD
ENDBRANCH   8  16
BRANCH   2  24
ATOM     24  C   UNL     1      34.131 -12.246 -24.839  0.00  0.00    +0.077 C 
ATOM     25  C   UNL     1      33.607 -12.115 -26.229  0.00  0.00    +0.022 C 
ATOM     26  C   UNL     1      34.712 -11.219 -25.750  0.00  0.00    +0.022 C 
ENDBRANCH   2  24
BRANCH   7  28
ATOM     27  O   UNL     1      31.132  -8.192 -23.985  0.00  0.00    -0.245 OA
ATOM     28  C   UNL     1      31.549  -8.645 -22.933  0.00  0.00    +0.342 C 
BRANCH  28  29
ATOM     29  O   UNL     1      31.654  -7.969 -21.769  0.00  0.00    -0.477 OA
ATOM     30  H   UNL     1      30.906  -7.877 -21.212  0.00  0.00    +0.295 HD
ENDBRANCH  28  29
ENDBRANCH   7  28
BRANCH   6  31
ATOM     31  O   UNL     1      34.307 -14.558 -23.459  0.00  0.00    -0.422 OA
BRANCH  31  34
ATOM     32  F   UNL     1      32.961 -15.056 -25.177  0.00  0.00    -0.155 F 
ATOM     33  F   UNL     1      34.738 -16.273 -24.873  0.00  0.00    -0.155 F 
ATOM     34  C   UNL     1      33.746 -15.617 -24.221  0.00  0.00    +0.509 C 
ENDBRANCH  31  34
ENDBRANCH   6  31
TORSDOF 6
ENDMDL
MODEL 2
REMARK VINA RESULT:      -9.6      2.824      4.565
REMARK  Name = 124093
REMARK  6 active torsions:
REMARK  status: ('A' for Active; 'I' for Inactive)
REMARK    1  A    between atoms: N_2  and  C_24
REMARK    2  A    between atoms: C_6  and  O_31
REMARK    3  A    between atoms: C_7  and  C_28
REMARK    4  A    between atoms: C_8  and  C_16
REMARK    5  A    between atoms: C_28  and  O_29
REMARK    6  A    between atoms: O_31  and  C_34
REMARK                            x       y       z     vdW  Elec       q    Type
REMARK                         _______ _______ _______ _____ _____    ______ ____
ROOT
ATOM      1  O   UNL     1      33.415 -15.774 -27.259  0.00  0.00    -0.286 OA
ATOM      2  N   UNL     1      33.592 -14.407 -23.423  0.00  0.00    -0.285 N 
ATOM      3  C   UNL     1      33.952 -15.762 -23.675  0.00  0.00    +0.089 C 
ATOM      4  C   UNL     1      33.198 -13.600 -24.472  0.00  0.00    +0.075 C 
ATOM      5  C   UNL     1      33.899 -16.262 -24.994  0.00  0.00    +0.056 C 
ATOM      6  C   UNL     1      34.361 -16.638 -22.656  0.00  0.00    +0.158 C 
ATOM      7  C   UNL     1      33.115 -13.973 -25.756  0.00  0.00    +0.129 C 
ATOM      8  C   UNL     1      34.705 -17.963 -22.942  0.00  0.00    +0.035 C 
ATOM      9  C   UNL     1      33.473 -15.371 -26.104  0.00  0.00    +0.204 C 
ATOM     10  C   UNL     1      34.245 -17.589 -25.279  0.00  0.00    +0.005 C 
ATOM     11  C   UNL     1      34.647 -18.436 -24.250  0.00  0.00    +0.003 C 
ENDROOT
BRANCH   8  16
ATOM     12  N   UNL     1      34.780 -22.056 -18.474  0.00  0.00    +0.390 N 
ATOM     13  C   UNL     1      36.155 -21.633 -18.838  0.00  0.00    -0.038 C 
ATOM     14  C   UNL     1      35.973 -20.587 -19.896  0.00  0.00    -0.048 C 
ATOM     15  C   UNL     1      34.647 -20.598 -20.327  0.00  0.00    -0.050 C 
ATOM     16  C   UNL     1      35.130 -18.871 -21.894  0.00  0.00    +0.003 C 
ATOM     17  C   UNL     1      33.887 -21.637 -19.575  0.00  0.00    -0.054 C 
ATOM     18  C   UNL     1      34.206 -19.749 -21.327  0.00  0.00    -0.007 C 
ATOM     19  C   UNL     1      36.898 -19.726 -20.461  0.00  0.00    -0.007 C 
ATOM     20  C   UNL     1      36.465 -18.857 -21.467  0.00  0.00    -0.000 C 
ATOM     21  C   UNL     1      36.918 -21.146 -17.612  0.00  0.00    -0.019 C 
ATOM     22  H   UNL     1      34.495 -21.607 -17.604  0.00  0.00    -0.083 HD
ATOM     23  H   UNL     1      34.737 -23.066 -18.339  0.00  0.00    -0.083 HD
ENDBRANCH   8  16
BRANCH   2  24
ATOM     24  C   UNL     1      33.611 -13.786 -22.078  0.00  0.00    +0.077 C 
ATOM     25  C   UNL     1      33.254 -12.350 -21.897  0.00  0.00    +0.022 C 
ATOM     26  C   UNL     1      32.341 -13.426 -21.386  0.00  0.00    +0.022 C 
ENDBRANCH   2  24
BRANCH   7  28
ATOM     27  O   UNL     1      33.223 -11.912 -26.936  0.00  0.00    -0.245 OA
ATOM     28  C   UNL     1      32.676 -12.983 -26.741  0.00  0.00    +0.342 C 
BRANCH  28  29
ATOM     29  O   UNL     1      31.585 -13.442 -27.389  0.00  0.00    -0.477 OA
ATOM     30  H   UNL     1      31.646 -14.208 -27.926  0.00  0.00    +0.295 HD
ENDBRANCH  28  29
ENDBRANCH   7  28
BRANCH   6  31
ATOM     31  O   UNL     1      34.443 -16.248 -21.349  0.00  0.00    -0.422 OA
BRANCH  31  34
ATOM     32  F   UNL     1      33.248 -15.641 -19.554  0.00  0.00    -0.155 F 
ATOM     33  F   UNL     1      32.212 -16.607 -21.205  0.00  0.00    -0.155 F 
ATOM     34  C   UNL     1      33.368 -16.613 -20.495  0.00  0.00    +0.509 C 
ENDBRANCH  31  34
ENDBRANCH   6  31
TORSDOF 6
ENDMDL
MODEL 3
REMARK VINA RESULT:      -9.2      3.279      8.617
REMARK  Name = 124093
REMARK  6 active torsions:
REMARK  status: ('A' for Active; 'I' for Inactive)
REMARK    1  A    between atoms: N_2  and  C_24
REMARK    2  A    between atoms: C_6  and  O_31
REMARK    3  A    between atoms: C_7  and  C_28
REMARK    4  A    between atoms: C_8  and  C_16
REMARK    5  A    between atoms: C_28  and  O_29
REMARK    6  A    between atoms: O_31  and  C_34
REMARK                            x       y       z     vdW  Elec       q    Type
REMARK                         _______ _______ _______ _____ _____    ______ ____
ROOT
ATOM      1  O   UNL     1      34.116 -14.588 -26.677  0.00  0.00    -0.286 OA
ATOM      2  N   UNL     1      33.225 -14.275 -22.712  0.00  0.00    -0.285 N 
ATOM      3  C   UNL     1      33.179 -13.096 -23.510  0.00  0.00    +0.089 C 
ATOM      4  C   UNL     1      33.566 -15.480 -23.294  0.00  0.00    +0.075 C 
ATOM      5  C   UNL     1      33.483 -13.176 -24.886  0.00  0.00    +0.056 C 
ATOM      6  C   UNL     1      32.840 -11.839 -22.983  0.00  0.00    +0.158 C 
ATOM      7  C   UNL     1      33.871 -15.665 -24.585  0.00  0.00    +0.129 C 
ATOM      8  C   UNL     1      32.806 -10.703 -23.799  0.00  0.00    +0.035 C 
ATOM      9  C   UNL     1      33.846 -14.486 -25.487  0.00  0.00    +0.204 C 
ATOM     10  C   UNL     1      33.448 -12.037 -25.702  0.00  0.00    +0.005 C 
ATOM     11  C   UNL     1      33.109 -10.803 -25.154  0.00  0.00    +0.003 C 
ENDROOT
BRANCH   8  16
ATOM     12  N   UNL     1      32.132  -5.910 -20.154  0.00  0.00    +0.390 N 
ATOM     13  C   UNL     1      31.589  -5.636 -21.507  0.00  0.00    -0.038 C 
ATOM     14  C   UNL     1      31.766  -6.917 -22.264  0.00  0.00    -0.048 C 
ATOM     15  C   UNL     1      32.596  -7.768 -21.535  0.00  0.00    -0.050 C 
ATOM     16  C   UNL     1      32.456  -9.403 -23.261  0.00  0.00    +0.003 C 
ATOM     17  C   UNL     1      32.997  -7.103 -20.262  0.00  0.00    -0.054 C 
ATOM     18  C   UNL     1      32.954  -9.014 -22.017  0.00  0.00    -0.007 C 
ATOM     19  C   UNL     1      31.277  -7.291 -23.504  0.00  0.00    -0.007 C 
ATOM     20  C   UNL     1      31.625  -8.550 -24.001  0.00  0.00    -0.000 C 
ATOM     21  C   UNL     1      30.143  -5.160 -21.428  0.00  0.00    -0.019 C 
ATOM     22  H   UNL     1      31.370  -6.090 -19.501  0.00  0.00    -0.083 HD
ATOM     23  H   UNL     1      32.663  -5.110 -19.809  0.00  0.00    -0.083 HD
ENDBRANCH   8  16
BRANCH   2  24
ATOM     24  C   UNL     1      32.925 -14.299 -21.261  0.00  0.00    +0.077 C 
ATOM     25  C   UNL     1      32.322 -15.507 -20.628  0.00  0.00    +0.022 C 
ATOM     26  C   UNL     1      33.742 -15.126 -20.327  0.00  0.00    +0.022 C 
ENDBRANCH   2  24
BRANCH   7  28
ATOM     27  O   UNL     1      33.588 -17.644 -25.872  0.00  0.00    -0.245 OA
ATOM     28  C   UNL     1      34.211 -17.016 -25.033  0.00  0.00    +0.342 C 
BRANCH  28  29
ATOM     29  O   UNL     1      35.310 -17.447 -24.379  0.00  0.00    -0.477 OA
ATOM     30  H   UNL     1      36.121 -17.545 -24.839  0.00  0.00    +0.295 HD
ENDBRANCH  28  29
ENDBRANCH   7  28
BRANCH   6  31
ATOM     31  O   UNL     1      32.531 -11.660 -21.664  0.00  0.00    -0.422 OA
BRANCH  31  34
ATOM     32  F   UNL     1      31.067 -11.535 -19.975  0.00  0.00    -0.155 F 
ATOM     33  F   UNL     1      30.356 -11.120 -21.988  0.00  0.00    -0.155 F 
ATOM     34  C   UNL     1      31.190 -11.916 -21.273  0.00  0.00    +0.509 C 
ENDBRANCH  31  34
ENDBRANCH   6  31
TORSDOF 6
ENDMDL
MODEL 4
REMARK VINA RESULT:      -9.2      7.607     12.782
REMARK  Name = 124093
REMARK  6 active torsions:
REMARK  status: ('A' for Active; 'I' for Inactive)
REMARK    1  A    between atoms: N_2  and  C_24
REMARK    2  A    between atoms: C_6  and  O_31
REMARK    3  A    between atoms: C_7  and  C_28
REMARK    4  A    between atoms: C_8  and  C_16
REMARK    5  A    between atoms: C_28  and  O_29
REMARK    6  A    between atoms: O_31  and  C_34
REMARK                            x       y       z     vdW  Elec       q    Type
REMARK                         _______ _______ _______ _____ _____    ______ ____
ROOT
ATOM      1  O   UNL     1      38.221 -24.236 -13.307  0.00  0.00    -0.286 OA
ATOM      2  N   UNL     1      34.332 -23.773 -14.436  0.00  0.00    -0.285 N 
ATOM      3  C   UNL     1      35.350 -23.260 -15.290  0.00  0.00    +0.089 C 
ATOM      4  C   UNL     1      34.684 -24.407 -13.260  0.00  0.00    +0.075 C 
ATOM      5  C   UNL     1      36.705 -23.406 -14.924  0.00  0.00    +0.056 C 
ATOM      6  C   UNL     1      35.062 -22.604 -16.499  0.00  0.00    +0.158 C 
ATOM      7  C   UNL     1      35.935 -24.599 -12.821  0.00  0.00    +0.129 C 
ATOM      8  C   UNL     1      36.089 -22.113 -17.311  0.00  0.00    +0.035 C 
ATOM      9  C   UNL     1      37.056 -24.094 -13.654  0.00  0.00    +0.204 C 
ATOM     10  C   UNL     1      37.732 -22.913 -15.738  0.00  0.00    +0.005 C 
ATOM     11  C   UNL     1      37.419 -22.267 -16.931  0.00  0.00    +0.003 C 
ENDROOT
BRANCH   8  16
ATOM     12  N   UNL     1      36.422 -18.582 -22.225  0.00  0.00    +0.390 N 
ATOM     13  C   UNL     1      35.180 -19.393 -22.230  0.00  0.00    -0.038 C 
ATOM     14  C   UNL     1      35.208 -20.156 -20.940  0.00  0.00    -0.048 C 
ATOM     15  C   UNL     1      36.473 -20.037 -20.366  0.00  0.00    -0.050 C 
ATOM     16  C   UNL     1      35.799 -21.435 -18.560  0.00  0.00    +0.003 C 
ATOM     17  C   UNL     1      37.337 -19.187 -21.235  0.00  0.00    -0.054 C 
ATOM     18  C   UNL     1      36.789 -20.671 -19.177  0.00  0.00    -0.007 C 
ATOM     19  C   UNL     1      34.223 -20.921 -20.339  0.00  0.00    -0.007 C 
ATOM     20  C   UNL     1      34.525 -21.561 -19.134  0.00  0.00    -0.000 C 
ATOM     21  C   UNL     1      33.951 -18.508 -22.398  0.00  0.00    -0.019 C 
ATOM     22  H   UNL     1      36.211 -17.620 -21.962  0.00  0.00    -0.083 HD
ATOM     23  H   UNL     1      36.850 -18.570 -23.151  0.00  0.00    -0.083 HD
ENDBRANCH   8  16
BRANCH   2  24
ATOM     24  C   UNL     1      32.883 -23.671 -14.727  0.00  0.00    +0.077 C 
ATOM     25  C   UNL     1      31.909 -24.597 -14.082  0.00  0.00    +0.022 C 
ATOM     26  C   UNL     1      31.934 -23.145 -13.703  0.00  0.00    +0.022 C 
ENDBRANCH   2  24
BRANCH   7  28
ATOM     27  O   UNL     1      35.504 -25.050 -10.527  0.00  0.00    -0.245 OA
ATOM     28  C   UNL     1      36.126 -25.293 -11.547  0.00  0.00    +0.342 C 
BRANCH  28  29
ATOM     29  O   UNL     1      37.086 -26.232 -11.681  0.00  0.00    -0.477 OA
ATOM     30  H   UNL     1      37.871 -26.035 -12.154  0.00  0.00    +0.295 HD
ENDBRANCH  28  29
ENDBRANCH   7  28
BRANCH   6  31
ATOM     31  O   UNL     1      33.783 -22.413 -16.938  0.00  0.00    -0.422 OA
BRANCH  31  34
ATOM     32  F   UNL     1      31.791 -23.166 -17.631  0.00  0.00    -0.155 F 
ATOM     33  F   UNL     1      33.584 -24.070 -18.469  0.00  0.00    -0.155 F 
ATOM     34  C   UNL     1      33.052 -23.568 -17.326  0.00  0.00    +0.509 C 
ENDBRANCH  31  34
ENDBRANCH   6  31
TORSDOF 6
ENDMDL
MODEL 5
REMARK VINA RESULT:      -9.1      4.129      9.600
REMARK  Name = 124093
REMARK  6 active torsions:
REMARK  status: ('A' for Active; 'I' for Inactive)
REMARK    1  A    between atoms: N_2  and  C_24
REMARK    2  A    between atoms: C_6  and  O_31
REMARK    3  A    between atoms: C_7  and  C_28
REMARK    4  A    between atoms: C_8  and  C_16
REMARK    5  A    between atoms: C_28  and  O_29
REMARK    6  A    between atoms: O_31  and  C_34
REMARK                            x       y       z     vdW  Elec       q    Type
REMARK                         _______ _______ _______ _____ _____    ______ ____
ROOT
ATOM      1  O   UNL     1      32.043 -13.249 -21.646  0.00  0.00    -0.286 OA
ATOM      2  N   UNL     1      33.852 -11.081 -24.586  0.00  0.00    -0.285 N 
ATOM      3  C   UNL     1      33.012 -10.397 -23.662  0.00  0.00    +0.089 C 
ATOM      4  C   UNL     1      34.031 -12.445 -24.465  0.00  0.00    +0.075 C 
ATOM      5  C   UNL     1      32.373 -11.123 -22.634  0.00  0.00    +0.056 C 
ATOM      6  C   UNL     1      32.785  -9.012 -23.727  0.00  0.00    +0.158 C 
ATOM      7  C   UNL     1      33.475 -13.226 -23.529  0.00  0.00    +0.129 C 
ATOM      8  C   UNL     1      31.952  -8.376 -22.801  0.00  0.00    +0.035 C 
ATOM      9  C   UNL     1      32.584 -12.590 -22.525  0.00  0.00    +0.204 C 
ATOM     10  C   UNL     1      31.539 -10.485 -21.707  0.00  0.00    +0.005 C 
ATOM     11  C   UNL     1      31.332  -9.111 -21.795  0.00  0.00    +0.003 C 
ENDROOT
BRANCH   8  16
ATOM     12  N   UNL     1      30.701  -2.769 -24.728  0.00  0.00    +0.390 N 
ATOM     13  C   UNL     1      30.920  -2.796 -23.261  0.00  0.00    -0.038 C 
ATOM     14  C   UNL     1      31.278  -4.217 -22.947  0.00  0.00    -0.048 C 
ATOM     15  C   UNL     1      31.011  -5.013 -24.060  0.00  0.00    -0.050 C 
ATOM     16  C   UNL     1      31.715  -6.947 -22.863  0.00  0.00    +0.003 C 
ATOM     17  C   UNL     1      30.476  -4.163 -25.163  0.00  0.00    -0.054 C 
ATOM     18  C   UNL     1      31.220  -6.380 -24.038  0.00  0.00    -0.007 C 
ATOM     19  C   UNL     1      31.759  -4.774 -21.774  0.00  0.00    -0.007 C 
ATOM     20  C   UNL     1      31.983  -6.152 -21.739  0.00  0.00    -0.000 C 
ATOM     21  C   UNL     1      31.985  -1.786 -22.849  0.00  0.00    -0.019 C 
ATOM     22  H   UNL     1      31.521  -2.385 -25.197  0.00  0.00    -0.083 HD
ATOM     23  H   UNL     1      29.899  -2.184 -24.962  0.00  0.00    -0.083 HD
ENDBRANCH   8  16
BRANCH   2  24
ATOM     24  C   UNL     1      34.566 -10.414 -25.700  0.00  0.00    +0.077 C 
ATOM     25  C   UNL     1      36.056 -10.418 -25.761  0.00  0.00    +0.022 C 
ATOM     26  C   UNL     1      35.257 -11.214 -26.751  0.00  0.00    +0.022 C 
ENDBRANCH   2  24
BRANCH   7  28
ATOM     27  O   UNL     1      33.494 -15.410 -24.467  0.00  0.00    -0.245 OA
ATOM     28  C   UNL     1      33.774 -14.658 -23.550  0.00  0.00    +0.342 C 
BRANCH  28  29
ATOM     29  O   UNL     1      34.403 -15.006 -22.407  0.00  0.00    -0.477 OA
ATOM     30  H   UNL     1      34.415 -14.416 -21.680  0.00  0.00    +0.295 HD
ENDBRANCH  28  29
ENDBRANCH   7  28
BRANCH   6  31
ATOM     31  O   UNL     1      33.358  -8.225 -24.686  0.00  0.00    -0.422 OA
BRANCH  31  34
ATOM     32  F   UNL     1      34.468  -6.282 -24.611  0.00  0.00    -0.155 F 
ATOM     33  F   UNL     1      34.826  -7.735 -23.033  0.00  0.00    -0.155 F 
ATOM     34  C   UNL     1      34.598  -7.611 -24.364  0.00  0.00    +0.509 C 
ENDBRANCH  31  34
ENDBRANCH   6  31
TORSDOF 6
ENDMDL
MODEL 6
REMARK VINA RESULT:      -8.6      3.184      8.606
REMARK  Name = 124093
REMARK  6 active torsions:
REMARK  status: ('A' for Active; 'I' for Inactive)
REMARK    1  A    between atoms: N_2  and  C_24
REMARK    2  A    between atoms: C_6  and  O_31
REMARK    3  A    between atoms: C_7  and  C_28
REMARK    4  A    between atoms: C_8  and  C_16
REMARK    5  A    between atoms: C_28  and  O_29
REMARK    6  A    between atoms: O_31  and  C_34
REMARK                            x       y       z     vdW  Elec       q    Type
REMARK                         _______ _______ _______ _____ _____    ______ ____
ROOT
ATOM      1  O   UNL     1      32.007 -13.512 -19.700  0.00  0.00    -0.286 OA
ATOM      2  N   UNL     1      33.154 -13.380 -23.609  0.00  0.00    -0.285 N 
ATOM      3  C   UNL     1      32.865 -12.153 -22.948  0.00  0.00    +0.089 C 
ATOM      4  C   UNL     1      33.041 -14.571 -22.918  0.00  0.00    +0.075 C 
ATOM      5  C   UNL     1      32.466 -12.169 -21.595  0.00  0.00    +0.056 C 
ATOM      6  C   UNL     1      32.960 -10.907 -23.591  0.00  0.00    +0.158 C 
ATOM      7  C   UNL     1      32.672 -14.697 -21.636  0.00  0.00    +0.129 C 
ATOM      8  C   UNL     1      32.667  -9.722 -22.908  0.00  0.00    +0.035 C 
ATOM      9  C   UNL     1      32.353 -13.464 -20.874  0.00  0.00    +0.204 C 
ATOM     10  C   UNL     1      32.173 -10.981 -20.912  0.00  0.00    +0.005 C 
ATOM     11  C   UNL     1      32.274  -9.760 -21.573  0.00  0.00    +0.003 C 
ENDROOT
BRANCH   8  16
ATOM     12  N   UNL     1      31.350  -4.444 -25.578  0.00  0.00    +0.390 N 
ATOM     13  C   UNL     1      32.816  -4.623 -25.437  0.00  0.00    -0.038 C 
ATOM     14  C   UNL     1      32.985  -5.982 -24.828  0.00  0.00    -0.048 C 
ATOM     15  C   UNL     1      31.746  -6.440 -24.380  0.00  0.00    -0.050 C 
ATOM     16  C   UNL     1      32.763  -8.433 -23.566  0.00  0.00    +0.003 C 
ATOM     17  C   UNL     1      30.700  -5.419 -24.677  0.00  0.00    -0.054 C 
ATOM     18  C   UNL     1      31.615  -7.662 -23.745  0.00  0.00    -0.007 C 
ATOM     19  C   UNL     1      34.131  -6.737 -24.645  0.00  0.00    -0.007 C 
ATOM     20  C   UNL     1      34.012  -7.977 -24.012  0.00  0.00    -0.000 C 
ATOM     21  C   UNL     1      33.517  -4.457 -26.780  0.00  0.00    -0.019 C 
ATOM     22  H   UNL     1      31.067  -4.617 -26.542  0.00  0.00    -0.083 HD
ATOM     23  H   UNL     1      31.078  -3.491 -25.334  0.00  0.00    -0.083 HD
ENDBRANCH   8  16
BRANCH   2  24
ATOM     24  C   UNL     1      33.580 -13.473 -25.026  0.00  0.00    +0.077 C 
ATOM     25  C   UNL     1      33.751 -14.800 -25.685  0.00  0.00    +0.022 C 
ATOM     26  C   UNL     1      32.619 -13.898 -26.084  0.00  0.00    +0.022 C 
ENDBRANCH   2  24
BRANCH   7  28
ATOM     27  O   UNL     1      33.513 -16.852 -21.088  0.00  0.00    -0.245 OA
ATOM     28  C   UNL     1      32.603 -16.041 -21.062  0.00  0.00    +0.342 C 
BRANCH  28  29
ATOM     29  O   UNL     1      31.390 -16.235 -20.504  0.00  0.00    -0.477 OA
ATOM     30  H   UNL     1      31.220 -15.932 -19.634  0.00  0.00    +0.295 HD
ENDBRANCH  28  29
ENDBRANCH   7  28
BRANCH   6  31
ATOM     31  O   UNL     1      33.337 -10.789 -24.899  0.00  0.00    -0.422 OA
BRANCH  31  34
ATOM     32  F   UNL     1      34.973 -10.257 -26.332  0.00  0.00    -0.155 F 
ATOM     33  F   UNL     1      35.453 -10.365 -24.214  0.00  0.00    -0.155 F 
ATOM     34  C   UNL     1      34.717 -10.950 -25.192  0.00  0.00    +0.509 C 
ENDBRANCH  31  34
ENDBRANCH   6  31
TORSDOF 6
ENDMDL
MODEL 7
REMARK VINA RESULT:      -8.5      2.922      8.548
REMARK  Name = 124093
REMARK  6 active torsions:
REMARK  status: ('A' for Active; 'I' for Inactive)
REMARK    1  A    between atoms: N_2  and  C_24
REMARK    2  A    between atoms: C_6  and  O_31
REMARK    3  A    between atoms: C_7  and  C_28
REMARK    4  A    between atoms: C_8  and  C_16
REMARK    5  A    between atoms: C_28  and  O_29
REMARK    6  A    between atoms: O_31  and  C_34
REMARK                            x       y       z     vdW  Elec       q    Type
REMARK                         _______ _______ _______ _____ _____    ______ ____
ROOT
ATOM      1  O   UNL     1      34.322 -16.381 -26.282  0.00  0.00    -0.286 OA
ATOM      2  N   UNL     1      34.008 -15.042 -22.445  0.00  0.00    -0.285 N 
ATOM      3  C   UNL     1      33.881 -14.097 -23.503  0.00  0.00    +0.089 C 
ATOM      4  C   UNL     1      34.231 -16.372 -22.741  0.00  0.00    +0.075 C 
ATOM      5  C   UNL     1      33.986 -14.533 -24.841  0.00  0.00    +0.056 C 
ATOM      6  C   UNL     1      33.654 -12.730 -23.273  0.00  0.00    +0.158 C 
ATOM      7  C   UNL     1      34.345 -16.890 -23.972  0.00  0.00    +0.129 C 
ATOM      8  C   UNL     1      33.536 -11.832 -24.338  0.00  0.00    +0.035 C 
ATOM      9  C   UNL     1      34.225 -15.971 -25.132  0.00  0.00    +0.204 C 
ATOM     10  C   UNL     1      33.867 -13.633 -25.907  0.00  0.00    +0.005 C 
ATOM     11  C   UNL     1      33.643 -12.282 -25.651  0.00  0.00    +0.003 C 
ENDROOT
BRANCH   8  16
ATOM     12  N   UNL     1      30.910  -6.457 -23.375  0.00  0.00    +0.390 N 
ATOM     13  C   UNL     1      32.389  -6.341 -23.362  0.00  0.00    -0.038 C 
ATOM     14  C   UNL     1      32.890  -7.719 -23.674  0.00  0.00    -0.048 C 
ATOM     15  C   UNL     1      31.830  -8.621 -23.588  0.00  0.00    -0.050 C 
ATOM     16  C   UNL     1      33.301 -10.420 -24.106  0.00  0.00    +0.003 C 
ATOM     17  C   UNL     1      30.581  -7.889 -23.228  0.00  0.00    -0.054 C 
ATOM     18  C   UNL     1      32.016  -9.975 -23.799  0.00  0.00    -0.007 C 
ATOM     19  C   UNL     1      34.171  -8.153 -23.968  0.00  0.00    -0.007 C 
ATOM     20  C   UNL     1      34.372  -9.518 -24.191  0.00  0.00    -0.000 C 
ATOM     21  C   UNL     1      32.862  -5.276 -24.344  0.00  0.00    -0.019 C 
ATOM     22  H   UNL     1      30.540  -6.102 -24.256  0.00  0.00    -0.083 HD
ATOM     23  H   UNL     1      30.499  -5.912 -22.616  0.00  0.00    -0.083 HD
ENDBRANCH   8  16
BRANCH   2  24
ATOM     24  C   UNL     1      33.915 -14.688 -21.008  0.00  0.00    +0.077 C 
ATOM     25  C   UNL     1      32.866 -15.296 -20.140  0.00  0.00    +0.022 C 
ATOM     26  C   UNL     1      34.308 -15.667 -19.955  0.00  0.00    +0.022 C 
ENDBRANCH   2  24
BRANCH   7  28
ATOM     27  O   UNL     1      35.299 -18.980 -23.364  0.00  0.00    -0.245 OA
ATOM     28  C   UNL     1      34.582 -18.327 -24.103  0.00  0.00    +0.342 C 
BRANCH  28  29
ATOM     29  O   UNL     1      33.889 -18.808 -25.156  0.00  0.00    -0.477 OA
ATOM     30  H   UNL     1      33.641 -18.234 -25.854  0.00  0.00    +0.295 HD
ENDBRANCH  28  29
ENDBRANCH   7  28
BRANCH   6  31
ATOM     31  O   UNL     1      33.539 -12.212 -22.013  0.00  0.00    -0.422 OA
BRANCH  31  34
ATOM     32  F   UNL     1      31.417 -12.925 -22.023  0.00  0.00    -0.155 F 
ATOM     33  F   UNL     1      32.207 -12.065 -20.188  0.00  0.00    -0.155 F 
ATOM     34  C   UNL     1      32.227 -11.948 -21.539  0.00  0.00    +0.509 C 
ENDBRANCH  31  34
ENDBRANCH   6  31
TORSDOF 6
ENDMDL
MODEL 8
REMARK VINA RESULT:      -8.5      1.368      1.703
REMARK  Name = 124093
REMARK  6 active torsions:
REMARK  status: ('A' for Active; 'I' for Inactive)
REMARK    1  A    between atoms: N_2  and  C_24
REMARK    2  A    between atoms: C_6  and  O_31
REMARK    3  A    between atoms: C_7  and  C_28
REMARK    4  A    between atoms: C_8  and  C_16
REMARK    5  A    between atoms: C_28  and  O_29
REMARK    6  A    between atoms: O_31  and  C_34
REMARK                            x       y       z     vdW  Elec       q    Type
REMARK                         _______ _______ _______ _____ _____    ______ ____
ROOT
ATOM      1  O   UNL     1      31.942 -11.283 -20.708  0.00  0.00    -0.286 OA
ATOM      2  N   UNL     1      33.087 -13.485 -23.942  0.00  0.00    -0.285 N 
ATOM      3  C   UNL     1      33.097 -14.108 -22.662  0.00  0.00    +0.089 C 
ATOM      4  C   UNL     1      32.694 -12.165 -24.055  0.00  0.00    +0.075 C 
ATOM      5  C   UNL     1      32.706 -13.369 -21.525  0.00  0.00    +0.056 C 
ATOM      6  C   UNL     1      33.486 -15.445 -22.475  0.00  0.00    +0.158 C 
ATOM      7  C   UNL     1      32.304 -11.377 -23.044  0.00  0.00    +0.129 C 
ATOM      8  C   UNL     1      33.485 -16.023 -21.201  0.00  0.00    +0.035 C 
ATOM      9  C   UNL     1      32.286 -11.952 -21.675  0.00  0.00    +0.204 C 
ATOM     10  C   UNL     1      32.705 -13.949 -20.249  0.00  0.00    +0.005 C 
ATOM     11  C   UNL     1      33.095 -15.277 -20.093  0.00  0.00    +0.003 C 
ENDROOT
BRANCH   8  16
ATOM     12  N   UNL     1      33.474 -21.966 -20.018  0.00  0.00    +0.390 N 
ATOM     13  C   UNL     1      34.822 -21.503 -20.431  0.00  0.00    -0.038 C 
ATOM     14  C   UNL     1      34.683 -20.023 -20.624  0.00  0.00    -0.048 C 
ATOM     15  C   UNL     1      33.330 -19.686 -20.616  0.00  0.00    -0.050 C 
ATOM     16  C   UNL     1      33.884 -17.403 -21.003  0.00  0.00    +0.003 C 
ATOM     17  C   UNL     1      32.511 -20.915 -20.408  0.00  0.00    -0.054 C 
ATOM     18  C   UNL     1      32.910 -18.382 -20.806  0.00  0.00    -0.007 C 
ATOM     19  C   UNL     1      35.655 -19.060 -20.830  0.00  0.00    -0.007 C 
ATOM     20  C   UNL     1      35.246 -17.736 -21.016  0.00  0.00    -0.000 C 
ATOM     21  C   UNL     1      35.873 -21.896 -19.400  0.00  0.00    -0.019 C 
ATOM     22  H   UNL     1      33.447 -22.107 -19.008  0.00  0.00    -0.083 HD
ATOM     23  H   UNL     1      33.243 -22.852 -20.468  0.00  0.00    -0.083 HD
ENDBRANCH   8  16
BRANCH   2  24
ATOM     24  C   UNL     1      33.479 -14.170 -25.196  0.00  0.00    +0.077 C 
ATOM     25  C   UNL     1      32.456 -14.541 -26.214  0.00  0.00    +0.022 C 
ATOM     26  C   UNL     1      33.447 -13.450 -26.501  0.00  0.00    +0.022 C 
ENDBRANCH   2  24
BRANCH   7  28
ATOM     27  O   UNL     1      32.595  -9.218 -23.995  0.00  0.00    -0.245 OA
ATOM     28  C   UNL     1      31.920  -9.998 -23.345  0.00  0.00    +0.342 C 
BRANCH  28  29
ATOM     29  O   UNL     1      30.715  -9.733 -22.798  0.00  0.00    -0.477 OA
ATOM     30  H   UNL     1      30.638  -9.610 -21.872  0.00  0.00    +0.295 HD
ENDBRANCH  28  29
ENDBRANCH   7  28
BRANCH   6  31
ATOM     31  O   UNL     1      33.882 -16.241 -23.513  0.00  0.00    -0.422 OA
BRANCH  31  34
ATOM     32  F   UNL     1      36.031 -16.803 -23.229  0.00  0.00    -0.155 F 
ATOM     33  F   UNL     1      35.287 -16.562 -25.259  0.00  0.00    -0.155 F 
ATOM     34  C   UNL     1      35.202 -16.056 -24.004  0.00  0.00    +0.509 C 
ENDBRANCH  31  34
ENDBRANCH   6  31
TORSDOF 6
ENDMDL
MODEL 9
REMARK VINA RESULT:      -8.4      5.744     10.576
REMARK  Name = 124093
REMARK  6 active torsions:
REMARK  status: ('A' for Active; 'I' for Inactive)
REMARK    1  A    between atoms: N_2  and  C_24
REMARK    2  A    between atoms: C_6  and  O_31
REMARK    3  A    between atoms: C_7  and  C_28
REMARK    4  A    between atoms: C_8  and  C_16
REMARK    5  A    between atoms: C_28  and  O_29
REMARK    6  A    between atoms: O_31  and  C_34
REMARK                            x       y       z     vdW  Elec       q    Type
REMARK                         _______ _______ _______ _____ _____    ______ ____
ROOT
ATOM      1  O   UNL     1      31.833 -23.655 -16.874  0.00  0.00    -0.286 OA
ATOM      2  N   UNL     1      35.673 -22.347 -17.280  0.00  0.00    -0.285 N 
ATOM      3  C   UNL     1      34.692 -21.856 -18.189  0.00  0.00    +0.089 C 
ATOM      4  C   UNL     1      35.303 -23.243 -16.296  0.00  0.00    +0.075 C 
ATOM      5  C   UNL     1      33.355 -22.292 -18.071  0.00  0.00    +0.056 C 
ATOM      6  C   UNL     1      34.998 -20.945 -19.213  0.00  0.00    +0.158 C 
ATOM      7  C   UNL     1      34.067 -23.718 -16.097  0.00  0.00    +0.129 C 
ATOM      8  C   UNL     1      34.007 -20.486 -20.086  0.00  0.00    +0.035 C 
ATOM      9  C   UNL     1      32.984 -23.256 -17.002  0.00  0.00    +0.204 C 
ATOM     10  C   UNL     1      32.363 -21.832 -18.947  0.00  0.00    +0.005 C 
ATOM     11  C   UNL     1      32.695 -20.928 -19.953  0.00  0.00    +0.003 C 
ENDROOT
BRANCH   8  16
ATOM     12  N   UNL     1      34.781 -15.418 -23.318  0.00  0.00    +0.390 N 
ATOM     13  C   UNL     1      35.221 -16.613 -24.079  0.00  0.00    -0.038 C 
ATOM     14  C   UNL     1      34.912 -17.778 -23.188  0.00  0.00    -0.048 C 
ATOM     15  C   UNL     1      34.598 -17.308 -21.914  0.00  0.00    -0.050 C 
ATOM     16  C   UNL     1      34.318 -19.544 -21.145  0.00  0.00    +0.003 C 
ATOM     17  C   UNL     1      34.671 -15.818 -21.900  0.00  0.00    -0.054 C 
ATOM     18  C   UNL     1      34.300 -18.176 -20.878  0.00  0.00    -0.007 C 
ATOM     19  C   UNL     1      34.944 -19.136 -23.459  0.00  0.00    -0.007 C 
ATOM     20  C   UNL     1      34.637 -20.023 -22.424  0.00  0.00    -0.000 C 
ATOM     21  C   UNL     1      34.535 -16.676 -25.439  0.00  0.00    -0.019 C 
ATOM     22  H   UNL     1      33.876 -15.098 -23.661  0.00  0.00    -0.083 HD
ATOM     23  H   UNL     1      35.449 -14.655 -23.426  0.00  0.00    -0.083 HD
ENDBRANCH   8  16
BRANCH   2  24
ATOM     24  C   UNL     1      37.101 -21.954 -17.318  0.00  0.00    +0.077 C 
ATOM     25  C   UNL     1      37.703 -21.161 -16.209  0.00  0.00    +0.022 C 
ATOM     26  C   UNL     1      38.093 -22.596 -16.409  0.00  0.00    +0.022 C 
ENDBRANCH   2  24
BRANCH   7  28
ATOM     27  O   UNL     1      32.840 -24.726 -14.328  0.00  0.00    -0.245 OA
ATOM     28  C   UNL     1      33.854 -24.665 -15.002  0.00  0.00    +0.342 C 
BRANCH  28  29
ATOM     29  O   UNL     1      34.943 -25.450 -14.862  0.00  0.00    -0.477 OA
ATOM     30  H   UNL     1      35.063 -26.190 -15.423  0.00  0.00    +0.295 HD
ENDBRANCH  28  29
ENDBRANCH   7  28
BRANCH   6  31
ATOM     31  O   UNL     1      36.263 -20.466 -19.407  0.00  0.00    -0.422 OA
BRANCH  31  34
ATOM     32  F   UNL     1      37.695 -19.779 -20.986  0.00  0.00    -0.155 F 
ATOM     33  F   UNL     1      37.750 -21.867 -20.383  0.00  0.00    -0.155 F 
ATOM     34  C   UNL     1      36.913 -20.826 -20.618  0.00  0.00    +0.509 C 
ENDBRANCH  31  34
ENDBRANCH   6  31
TORSDOF 6
ENDMDL
