MODEL 1
REMARK VINA RESULT:      -7.3      0.000      0.000
REMARK  Name = 997
REMARK  4 active torsions:
REMARK  status: ('A' for Active; 'I' for Inactive)
REMARK    1  A    between atoms: C_1  and  C_2
REMARK    2  A    between atoms: C_1  and  C_9
REMARK    3  A    between atoms: C_9  and  C_11
REMARK    4  A    between atoms: C_11  and  O_12
REMARK                            x       y       z     vdW  Elec       q    Type
REMARK                         _______ _______ _______ _____ _____    ______ ____
ROOT
ATOM      1  C   UNL     1      35.693 -18.517 -21.839  0.00  0.00    +0.102 C 
ENDROOT
BRANCH   1   2
ATOM      2  C   UNL     1      34.950 -19.533 -21.039  0.00  0.00    -0.014 C 
ATOM      3  C   UNL     1      35.648 -20.507 -20.325  0.00  0.00    -0.004 C 
ATOM      4  C   UNL     1      33.554 -19.508 -21.003  0.00  0.00    -0.004 C 
ATOM      5  C   UNL     1      34.953 -21.456 -19.577  0.00  0.00    -0.000 C 
ATOM      6  C   UNL     1      32.859 -20.458 -20.255  0.00  0.00    -0.000 C 
ATOM      7  C   UNL     1      33.559 -21.432 -19.542  0.00  0.00    -0.000 C 
ENDBRANCH   1   2
BRANCH   1   9
ATOM      8  O   UNL     1      35.198 -16.615 -20.384  0.00  0.00    -0.284 OA
ATOM      9  C   UNL     1      35.231 -17.114 -21.500  0.00  0.00    +0.252 C 
BRANCH   9  11
ATOM     10  O   UNL     1      33.698 -15.675 -22.616  0.00  0.00    -0.242 OA
ATOM     11  C   UNL     1      34.764 -16.257 -22.641  0.00  0.00    +0.374 C 
BRANCH  11  12
ATOM     12  O   UNL     1      35.704 -16.212 -23.594  0.00  0.00    -0.475 OA
ATOM     13  H   UNL     1      35.948 -15.390 -23.972  0.00  0.00    +0.295 HD
ENDBRANCH  11  12
ENDBRANCH   9  11
ENDBRANCH   1   9
TORSDOF 4
ENDMDL
MODEL 2
REMARK VINA RESULT:      -7.2      1.499      2.378
REMARK  Name = 997
REMARK  4 active torsions:
REMARK  status: ('A' for Active; 'I' for Inactive)
REMARK    1  A    between atoms: C_1  and  C_2
REMARK    2  A    between atoms: C_1  and  C_9
REMARK    3  A    between atoms: C_9  and  C_11
REMARK    4  A    between atoms: C_11  and  O_12
REMARK                            x       y       z     vdW  Elec       q    Type
REMARK                         _______ _______ _______ _____ _____    ______ ____
ROOT
ATOM      1  C   UNL     1      35.274 -18.129 -22.041  0.00  0.00    +0.102 C 
ENDROOT
BRANCH   1   2
ATOM      2  C   UNL     1      34.782 -19.253 -21.194  0.00  0.00    -0.014 C 
ATOM      3  C   UNL     1      33.415 -19.410 -20.968  0.00  0.00    -0.004 C 
ATOM      4  C   UNL     1      35.689 -20.151 -20.628  0.00  0.00    -0.004 C 
ATOM      5  C   UNL     1      32.954 -20.461 -20.176  0.00  0.00    -0.000 C 
ATOM      6  C   UNL     1      35.228 -21.202 -19.836  0.00  0.00    -0.000 C 
ATOM      7  C   UNL     1      33.860 -21.357 -19.610  0.00  0.00    -0.000 C 
ENDBRANCH   1   2
BRANCH   1   9
ATOM      8  O   UNL     1      34.951 -19.537 -24.014  0.00  0.00    -0.284 OA
ATOM      9  C   UNL     1      35.069 -18.428 -23.513  0.00  0.00    +0.252 C 
BRANCH   9  11
ATOM     10  O   UNL     1      34.486 -17.321 -25.538  0.00  0.00    -0.242 OA
ATOM     11  C   UNL     1      35.009 -17.252 -24.444  0.00  0.00    +0.374 C 
BRANCH  11  12
ATOM     12  O   UNL     1      35.550 -16.176 -23.859  0.00  0.00    -0.475 OA
ATOM     13  H   UNL     1      35.887 -16.238 -22.986  0.00  0.00    +0.295 HD
ENDBRANCH  11  12
ENDBRANCH   9  11
ENDBRANCH   1   9
TORSDOF 4
ENDMDL
MODEL 3
REMARK VINA RESULT:      -6.7      8.229      9.892
REMARK  Name = 997
REMARK  4 active torsions:
REMARK  status: ('A' for Active; 'I' for Inactive)
REMARK    1  A    between atoms: C_1  and  C_2
REMARK    2  A    between atoms: C_1  and  C_9
REMARK    3  A    between atoms: C_9  and  C_11
REMARK    4  A    between atoms: C_11  and  O_12
REMARK                            x       y       z     vdW  Elec       q    Type
REMARK                         _______ _______ _______ _____ _____    ______ ____
ROOT
ATOM      1  C   UNL     1      38.003 -24.704 -13.787  0.00  0.00    +0.102 C 
ENDROOT
BRANCH   1   2
ATOM      2  C   UNL     1      37.066 -24.045 -14.742  0.00  0.00    -0.014 C 
ATOM      3  C   UNL     1      37.523 -23.023 -15.575  0.00  0.00    -0.004 C 
ATOM      4  C   UNL     1      35.732 -24.451 -14.804  0.00  0.00    -0.004 C 
ATOM      5  C   UNL     1      36.647 -22.407 -16.468  0.00  0.00    -0.000 C 
ATOM      6  C   UNL     1      34.856 -23.835 -15.697  0.00  0.00    -0.000 C 
ATOM      7  C   UNL     1      35.314 -22.813 -16.530  0.00  0.00    -0.000 C 
ENDBRANCH   1   2
BRANCH   1   9
ATOM      8  O   UNL     1      38.446 -26.929 -14.700  0.00  0.00    -0.284 OA
ATOM      9  C   UNL     1      38.812 -25.783 -14.478  0.00  0.00    +0.252 C 
BRANCH   9  11
ATOM     10  O   UNL     1      40.953 -24.774 -14.227  0.00  0.00    -0.242 OA
ATOM     11  C   UNL     1      40.196 -25.413 -14.929  0.00  0.00    +0.374 C 
BRANCH  11  12
ATOM     12  O   UNL     1      40.438 -25.934 -16.139  0.00  0.00    -0.475 OA
ATOM     13  H   UNL     1      40.548 -26.860 -16.236  0.00  0.00    +0.295 HD
ENDBRANCH  11  12
ENDBRANCH   9  11
ENDBRANCH   1   9
TORSDOF 4
ENDMDL
MODEL 4
REMARK VINA RESULT:      -6.7      2.943      5.069
REMARK  Name = 997
REMARK  4 active torsions:
REMARK  status: ('A' for Active; 'I' for Inactive)
REMARK    1  A    between atoms: C_1  and  C_2
REMARK    2  A    between atoms: C_1  and  C_9
REMARK    3  A    between atoms: C_9  and  C_11
REMARK    4  A    between atoms: C_11  and  O_12
REMARK                            x       y       z     vdW  Elec       q    Type
REMARK                         _______ _______ _______ _____ _____    ______ ____
ROOT
ATOM      1  C   UNL     1      33.627 -19.999 -20.791  0.00  0.00    +0.102 C 
ENDROOT
BRANCH   1   2
ATOM      2  C   UNL     1      34.223 -18.963 -21.683  0.00  0.00    -0.014 C 
ATOM      3  C   UNL     1      34.729 -19.325 -22.931  0.00  0.00    -0.004 C 
ATOM      4  C   UNL     1      34.272 -17.631 -21.271  0.00  0.00    -0.004 C 
ATOM      5  C   UNL     1      35.286 -18.357 -23.766  0.00  0.00    -0.000 C 
ATOM      6  C   UNL     1      34.828 -16.662 -22.105  0.00  0.00    -0.000 C 
ATOM      7  C   UNL     1      35.336 -17.025 -23.354  0.00  0.00    -0.000 C 
ENDBRANCH   1   2
BRANCH   1   9
ATOM      8  O   UNL     1      35.868 -20.368 -19.885  0.00  0.00    -0.284 OA
ATOM      9  C   UNL     1      34.702 -20.717 -19.999  0.00  0.00    +0.252 C 
BRANCH   9  11
ATOM     10  O   UNL     1      35.039 -22.549 -18.517  0.00  0.00    -0.242 OA
ATOM     11  C   UNL     1      34.298 -21.978 -19.291  0.00  0.00    +0.374 C 
BRANCH  11  12
ATOM     12  O   UNL     1      33.036 -22.297 -19.608  0.00  0.00    -0.475 OA
ATOM     13  H   UNL     1      32.379 -21.630 -19.644  0.00  0.00    +0.295 HD
ENDBRANCH  11  12
ENDBRANCH   9  11
ENDBRANCH   1   9
TORSDOF 4
ENDMDL
MODEL 5
REMARK VINA RESULT:      -6.7      3.050      5.133
REMARK  Name = 997
REMARK  4 active torsions:
REMARK  status: ('A' for Active; 'I' for Inactive)
REMARK    1  A    between atoms: C_1  and  C_2
REMARK    2  A    between atoms: C_1  and  C_9
REMARK    3  A    between atoms: C_9  and  C_11
REMARK    4  A    between atoms: C_11  and  O_12
REMARK                            x       y       z     vdW  Elec       q    Type
REMARK                         _______ _______ _______ _____ _____    ______ ____
ROOT
ATOM      1  C   UNL     1      35.123 -20.252 -20.505  0.00  0.00    +0.102 C 
ENDROOT
BRANCH   1   2
ATOM      2  C   UNL     1      35.010 -19.157 -21.510  0.00  0.00    -0.014 C 
ATOM      3  C   UNL     1      35.059 -17.825 -21.099  0.00  0.00    -0.004 C 
ATOM      4  C   UNL     1      34.856 -19.464 -22.863  0.00  0.00    -0.004 C 
ATOM      5  C   UNL     1      34.953 -16.800 -22.039  0.00  0.00    -0.000 C 
ATOM      6  C   UNL     1      34.750 -18.440 -23.803  0.00  0.00    -0.000 C 
ATOM      7  C   UNL     1      34.799 -17.107 -23.392  0.00  0.00    -0.000 C 
ENDBRANCH   1   2
BRANCH   1   9
ATOM      8  O   UNL     1      32.687 -20.191 -20.298  0.00  0.00    -0.284 OA
ATOM      9  C   UNL     1      33.754 -20.751 -20.087  0.00  0.00    +0.252 C 
BRANCH   9  11
ATOM     10  O   UNL     1      34.636 -22.828 -19.331  0.00  0.00    -0.242 OA
ATOM     11  C   UNL     1      33.702 -22.052 -19.340  0.00  0.00    +0.374 C 
BRANCH  11  12
ATOM     12  O   UNL     1      32.538 -22.159 -18.686  0.00  0.00    -0.475 OA
ATOM     13  H   UNL     1      31.827 -21.587 -18.899  0.00  0.00    +0.295 HD
ENDBRANCH  11  12
ENDBRANCH   9  11
ENDBRANCH   1   9
TORSDOF 4
ENDMDL
MODEL 6
REMARK VINA RESULT:      -6.7      8.233      9.263
REMARK  Name = 997
REMARK  4 active torsions:
REMARK  status: ('A' for Active; 'I' for Inactive)
REMARK    1  A    between atoms: C_1  and  C_2
REMARK    2  A    between atoms: C_1  and  C_9
REMARK    3  A    between atoms: C_9  and  C_11
REMARK    4  A    between atoms: C_11  and  O_12
REMARK                            x       y       z     vdW  Elec       q    Type
REMARK                         _______ _______ _______ _____ _____    ______ ____
ROOT
ATOM      1  C   UNL     1      28.739 -24.130 -15.606  0.00  0.00    +0.102 C 
ENDROOT
BRANCH   1   2
ATOM      2  C   UNL     1      30.183 -24.120 -15.234  0.00  0.00    -0.014 C 
ATOM      3  C   UNL     1      30.625 -24.847 -14.129  0.00  0.00    -0.004 C 
ATOM      4  C   UNL     1      31.094 -23.383 -15.993  0.00  0.00    -0.004 C 
ATOM      5  C   UNL     1      31.975 -24.838 -13.782  0.00  0.00    -0.000 C 
ATOM      6  C   UNL     1      32.445 -23.373 -15.645  0.00  0.00    -0.000 C 
ATOM      7  C   UNL     1      32.886 -24.102 -14.540  0.00  0.00    -0.000 C 
ENDBRANCH   1   2
BRANCH   1   9
ATOM      8  O   UNL     1      28.287 -21.800 -15.018  0.00  0.00    -0.284 OA
ATOM      9  C   UNL     1      28.223 -22.721 -15.820  0.00  0.00    +0.252 C 
BRANCH   9  11
ATOM     10  O   UNL     1      27.021 -21.369 -17.367  0.00  0.00    -0.242 OA
ATOM     11  C   UNL     1      27.568 -22.429 -17.139  0.00  0.00    +0.374 C 
BRANCH  11  12
ATOM     12  O   UNL     1      27.739 -23.462 -17.974  0.00  0.00    -0.475 OA
ATOM     13  H   UNL     1      27.012 -24.009 -18.197  0.00  0.00    +0.295 HD
ENDBRANCH  11  12
ENDBRANCH   9  11
ENDBRANCH   1   9
TORSDOF 4
ENDMDL
MODEL 7
REMARK VINA RESULT:      -6.7      7.345      8.917
REMARK  Name = 997
REMARK  4 active torsions:
REMARK  status: ('A' for Active; 'I' for Inactive)
REMARK    1  A    between atoms: C_1  and  C_2
REMARK    2  A    between atoms: C_1  and  C_9
REMARK    3  A    between atoms: C_9  and  C_11
REMARK    4  A    between atoms: C_11  and  O_12
REMARK                            x       y       z     vdW  Elec       q    Type
REMARK                         _______ _______ _______ _____ _____    ______ ____
ROOT
ATOM      1  C   UNL     1      29.948 -22.706 -15.052  0.00  0.00    +0.102 C 
ENDROOT
BRANCH   1   2
ATOM      2  C   UNL     1      31.361 -22.980 -15.444  0.00  0.00    -0.014 C 
ATOM      3  C   UNL     1      31.723 -22.981 -16.791  0.00  0.00    -0.004 C 
ATOM      4  C   UNL     1      32.321 -23.234 -14.463  0.00  0.00    -0.004 C 
ATOM      5  C   UNL     1      33.044 -23.237 -17.158  0.00  0.00    -0.000 C 
ATOM      6  C   UNL     1      33.642 -23.490 -14.830  0.00  0.00    -0.000 C 
ATOM      7  C   UNL     1      34.004 -23.492 -16.178  0.00  0.00    -0.000 C 
ENDBRANCH   1   2
BRANCH   1   9
ATOM      8  O   UNL     1      28.850 -24.871 -15.341  0.00  0.00    -0.284 OA
ATOM      9  C   UNL     1      29.004 -23.708 -15.685  0.00  0.00    +0.252 C 
BRANCH   9  11
ATOM     10  O   UNL     1      27.636 -24.000 -17.611  0.00  0.00    -0.242 OA
ATOM     11  C   UNL     1      28.184 -23.230 -16.848  0.00  0.00    +0.374 C 
BRANCH  11  12
ATOM     12  O   UNL     1      28.126 -21.892 -16.849  0.00  0.00    -0.475 OA
ATOM     13  H   UNL     1      28.376 -21.412 -16.083  0.00  0.00    +0.295 HD
ENDBRANCH  11  12
ENDBRANCH   9  11
ENDBRANCH   1   9
TORSDOF 4
ENDMDL
MODEL 8
REMARK VINA RESULT:      -6.5      8.344      9.523
REMARK  Name = 997
REMARK  4 active torsions:
REMARK  status: ('A' for Active; 'I' for Inactive)
REMARK    1  A    between atoms: C_1  and  C_2
REMARK    2  A    between atoms: C_1  and  C_9
REMARK    3  A    between atoms: C_9  and  C_11
REMARK    4  A    between atoms: C_11  and  O_12
REMARK                            x       y       z     vdW  Elec       q    Type
REMARK                         _______ _______ _______ _____ _____    ______ ____
ROOT
ATOM      1  C   UNL     1      28.586 -23.650 -16.308  0.00  0.00    +0.102 C 
ENDROOT
BRANCH   1   2
ATOM      2  C   UNL     1      29.885 -23.904 -15.621  0.00  0.00    -0.014 C 
ATOM      3  C   UNL     1      31.038 -23.241 -16.040  0.00  0.00    -0.004 C 
ATOM      4  C   UNL     1      29.947 -24.805 -14.556  0.00  0.00    -0.004 C 
ATOM      5  C   UNL     1      32.252 -23.478 -15.398  0.00  0.00    -0.000 C 
ATOM      6  C   UNL     1      31.162 -25.042 -13.914  0.00  0.00    -0.000 C 
ATOM      7  C   UNL     1      32.315 -24.378 -14.334  0.00  0.00    -0.000 C 
ENDBRANCH   1   2
BRANCH   1   9
ATOM      8  O   UNL     1      28.344 -21.689 -14.868  0.00  0.00    -0.284 OA
ATOM      9  C   UNL     1      27.929 -22.390 -15.780  0.00  0.00    +0.252 C 
BRANCH   9  11
ATOM     10  O   UNL     1      25.570 -22.088 -15.884  0.00  0.00    -0.242 OA
ATOM     11  C   UNL     1      26.646 -21.966 -16.434  0.00  0.00    +0.374 C 
BRANCH  11  12
ATOM     12  O   UNL     1      26.901 -21.414 -17.627  0.00  0.00    -0.475 OA
ATOM     13  H   UNL     1      26.249 -21.432 -18.300  0.00  0.00    +0.295 HD
ENDBRANCH  11  12
ENDBRANCH   9  11
ENDBRANCH   1   9
TORSDOF 4
ENDMDL
MODEL 9
REMARK VINA RESULT:      -6.4      2.427      3.696
REMARK  Name = 997
REMARK  4 active torsions:
REMARK  status: ('A' for Active; 'I' for Inactive)
REMARK    1  A    between atoms: C_1  and  C_2
REMARK    2  A    between atoms: C_1  and  C_9
REMARK    3  A    between atoms: C_9  and  C_11
REMARK    4  A    between atoms: C_11  and  O_12
REMARK                            x       y       z     vdW  Elec       q    Type
REMARK                         _______ _______ _______ _____ _____    ______ ____
ROOT
ATOM      1  C   UNL     1      34.964 -15.570 -23.616  0.00  0.00    +0.102 C 
ENDROOT
BRANCH   1   2
ATOM      2  C   UNL     1      34.814 -16.936 -23.037  0.00  0.00    -0.014 C 
ATOM      3  C   UNL     1      34.999 -18.060 -23.843  0.00  0.00    -0.004 C 
ATOM      4  C   UNL     1      34.490 -17.091 -21.688  0.00  0.00    -0.004 C 
ATOM      5  C   UNL     1      34.860 -19.337 -23.301  0.00  0.00    -0.000 C 
ATOM      6  C   UNL     1      34.350 -18.368 -21.147  0.00  0.00    -0.000 C 
ATOM      7  C   UNL     1      34.535 -19.492 -21.953  0.00  0.00    -0.000 C 
ENDBRANCH   1   2
BRANCH   1   9
ATOM      8  O   UNL     1      32.767 -14.523 -23.387  0.00  0.00    -0.284 OA
ATOM      9  C   UNL     1      33.629 -15.031 -24.089  0.00  0.00    +0.252 C 
BRANCH   9  11
ATOM     10  O   UNL     1      33.931 -15.906 -26.282  0.00  0.00    -0.242 OA
ATOM     11  C   UNL     1      33.334 -15.135 -25.558  0.00  0.00    +0.374 C 
BRANCH  11  12
ATOM     12  O   UNL     1      32.323 -14.319 -25.882  0.00  0.00    -0.475 OA
ATOM     13  H   UNL     1      32.484 -13.559 -26.405  0.00  0.00    +0.295 HD
ENDBRANCH  11  12
ENDBRANCH   9  11
ENDBRANCH   1   9
TORSDOF 4
ENDMDL
