MODEL 1
REMARK VINA RESULT:      -5.3      0.000      0.000
REMARK  Name = 100714
REMARK  5 active torsions:
REMARK  status: ('A' for Active; 'I' for Inactive)
REMARK    1  A    between atoms: CA_1  and  N_2
REMARK    2  A    between atoms: CA_1  and  C_7
REMARK    3  A    between atoms: CA_1  and  C_11
REMARK    4  A    between atoms: C_7  and  O_8
REMARK    5  A    between atoms: C_11  and  O_12
REMARK                            x       y       z     vdW  Elec       q    Type
REMARK                         _______ _______ _______ _____ _____    ______ ____
ROOT
ATOM      1  CA  UNL     1      38.655 -24.991 -14.686  0.00  0.00    +0.136 C 
ENDROOT
BRANCH   1   2
ATOM      2  N   UNL     1      38.192 -23.936 -15.582  0.00  0.00    +0.396 N 
ATOM      3  H1  UNL     1      37.396 -23.457 -15.162  0.00  0.00    -0.088 HD
ATOM      4  H2  UNL     1      37.911 -24.346 -16.473  0.00  0.00    -0.088 HD
ATOM      5  H3  UNL     1      38.948 -23.267 -15.739  0.00  0.00    -0.088 HD
ENDBRANCH   1   2
BRANCH   1   7
ATOM      6  O   UNL     1      41.046 -24.715 -14.274  0.00  0.00    -0.252 OA
ATOM      7  C   UNL     1      40.135 -25.187 -14.937  0.00  0.00    +0.304 C 
BRANCH   7   8
ATOM      8  O   UNL     1      40.343 -25.937 -16.053  0.00  0.00    -0.481 OA
ATOM      9  H   UNL     1      41.216 -26.156 -16.314  0.00  0.00    +0.295 HD
ENDBRANCH   7   8
ENDBRANCH   1   7
BRANCH   1  11
ATOM     10  OXT UNL     1      38.048 -27.350 -14.622  0.00  0.00    -0.252 OA
ATOM     11  C   UNL     1      37.786 -26.202 -14.953  0.00  0.00    +0.304 C 
BRANCH  11  12
ATOM     12  O   UNL     1      36.652 -25.876 -15.628  0.00  0.00    -0.481 OA
ATOM     13  H   UNL     1      36.706 -25.539 -16.501  0.00  0.00    +0.295 HD
ENDBRANCH  11  12
ENDBRANCH   1  11
TORSDOF 5
ENDMDL
MODEL 2
REMARK VINA RESULT:      -5.1      1.790      2.995
REMARK  Name = 100714
REMARK  5 active torsions:
REMARK  status: ('A' for Active; 'I' for Inactive)
REMARK    1  A    between atoms: CA_1  and  N_2
REMARK    2  A    between atoms: CA_1  and  C_7
REMARK    3  A    between atoms: CA_1  and  C_11
REMARK    4  A    between atoms: C_7  and  O_8
REMARK    5  A    between atoms: C_11  and  O_12
REMARK                            x       y       z     vdW  Elec       q    Type
REMARK                         _______ _______ _______ _____ _____    ______ ____
ROOT
ATOM      1  CA  UNL     1      39.150 -25.236 -14.096  0.00  0.00    +0.136 C 
ENDROOT
BRANCH   1   2
ATOM      2  N   UNL     1      38.415 -26.214 -13.299  0.00  0.00    +0.396 N 
ATOM      3  H1  UNL     1      37.413 -26.055 -13.404  0.00  0.00    -0.088 HD
ATOM      4  H2  UNL     1      38.675 -26.116 -12.317  0.00  0.00    -0.088 HD
ATOM      5  H3  UNL     1      38.646 -27.155 -13.619  0.00  0.00    -0.088 HD
ENDBRANCH   1   2
BRANCH   1   7
ATOM      6  O   UNL     1      37.048 -25.031 -15.322  0.00  0.00    -0.252 OA
ATOM      7  C   UNL     1      38.178 -24.629 -15.085  0.00  0.00    +0.304 C 
BRANCH   7   8
ATOM      8  O   UNL     1      38.742 -23.576 -15.736  0.00  0.00    -0.481 OA
ATOM      9  H   UNL     1      38.635 -23.487 -16.662  0.00  0.00    +0.295 HD
ENDBRANCH   7   8
ENDBRANCH   1   7
BRANCH   1  11
ATOM     10  OXT UNL     1      41.190 -26.569 -14.086  0.00  0.00    -0.252 OA
ATOM     11  C   UNL     1      40.326 -25.968 -14.708  0.00  0.00    +0.304 C 
BRANCH  11  12
ATOM     12  O   UNL     1      40.330 -25.878 -16.065  0.00  0.00    -0.481 OA
ATOM     13  H   UNL     1      40.773 -25.168 -16.487  0.00  0.00    +0.295 HD
ENDBRANCH  11  12
ENDBRANCH   1  11
TORSDOF 5
ENDMDL
MODEL 3
REMARK VINA RESULT:      -5.0      1.791      2.038
REMARK  Name = 100714
REMARK  5 active torsions:
REMARK  status: ('A' for Active; 'I' for Inactive)
REMARK    1  A    between atoms: CA_1  and  N_2
REMARK    2  A    between atoms: CA_1  and  C_7
REMARK    3  A    between atoms: CA_1  and  C_11
REMARK    4  A    between atoms: C_7  and  O_8
REMARK    5  A    between atoms: C_11  and  O_12
REMARK                            x       y       z     vdW  Elec       q    Type
REMARK                         _______ _______ _______ _____ _____    ______ ____
ROOT
ATOM      1  CA  UNL     1      38.696 -25.656 -14.625  0.00  0.00    +0.136 C 
ENDROOT
BRANCH   1   2
ATOM      2  N   UNL     1      38.569 -25.986 -13.209  0.00  0.00    +0.396 N 
ATOM      3  H1  UNL     1      37.590 -25.928 -12.931  0.00  0.00    -0.088 HD
ATOM      4  H2  UNL     1      39.119 -25.327 -12.656  0.00  0.00    -0.088 HD
ATOM      5  H3  UNL     1      38.913 -26.934 -13.049  0.00  0.00    -0.088 HD
ENDBRANCH   1   2
BRANCH   1   7
ATOM      6  O   UNL     1      40.947 -24.806 -14.211  0.00  0.00    -0.252 OA
ATOM      7  C   UNL     1      40.165 -25.430 -14.912  0.00  0.00    +0.304 C 
BRANCH   7   8
ATOM      8  O   UNL     1      40.517 -25.979 -16.106  0.00  0.00    -0.481 OA
ATOM      9  H   UNL     1      40.742 -25.426 -16.827  0.00  0.00    +0.295 HD
ENDBRANCH   7   8
ENDBRANCH   1   7
BRANCH   1  11
ATOM     10  OXT UNL     1      36.649 -24.342 -14.465  0.00  0.00    -0.252 OA
ATOM     11  C   UNL     1      37.795 -24.465 -14.877  0.00  0.00    +0.304 C 
BRANCH  11  12
ATOM     12  O   UNL     1      38.403 -23.519 -15.641  0.00  0.00    -0.481 OA
ATOM     13  H   UNL     1      38.145 -23.401 -16.534  0.00  0.00    +0.295 HD
ENDBRANCH  11  12
ENDBRANCH   1  11
TORSDOF 5
ENDMDL
MODEL 4
REMARK VINA RESULT:      -4.9      1.987      3.153
REMARK  Name = 100714
REMARK  5 active torsions:
REMARK  status: ('A' for Active; 'I' for Inactive)
REMARK    1  A    between atoms: CA_1  and  N_2
REMARK    2  A    between atoms: CA_1  and  C_7
REMARK    3  A    between atoms: CA_1  and  C_11
REMARK    4  A    between atoms: C_7  and  O_8
REMARK    5  A    between atoms: C_11  and  O_12
REMARK                            x       y       z     vdW  Elec       q    Type
REMARK                         _______ _______ _______ _____ _____    ______ ____
ROOT
ATOM      1  CA  UNL     1      38.864 -25.740 -14.098  0.00  0.00    +0.136 C 
ENDROOT
BRANCH   1   2
ATOM      2  N   UNL     1      38.256 -24.972 -15.180  0.00  0.00    +0.396 N 
ATOM      3  H1  UNL     1      37.914 -24.083 -14.817  0.00  0.00    -0.088 HD
ATOM      4  H2  UNL     1      37.477 -25.500 -15.575  0.00  0.00    -0.088 HD
ATOM      5  H3  UNL     1      38.952 -24.798 -15.906  0.00  0.00    -0.088 HD
ENDBRANCH   1   2
BRANCH   1   7
ATOM      6  O   UNL     1      38.750 -23.948 -12.442  0.00  0.00    -0.252 OA
ATOM      7  C   UNL     1      38.466 -25.084 -12.793  0.00  0.00    +0.304 C 
BRANCH   7   8
ATOM      8  O   UNL     1      37.771 -25.950 -12.007  0.00  0.00    -0.481 OA
ATOM      9  H   UNL     1      37.695 -26.850 -12.255  0.00  0.00    +0.295 HD
ENDBRANCH   7   8
ENDBRANCH   1   7
BRANCH   1  11
ATOM     10  OXT UNL     1      41.004 -26.791 -14.604  0.00  0.00    -0.252 OA
ATOM     11  C   UNL     1      40.352 -25.781 -14.375  0.00  0.00    +0.304 C 
BRANCH  11  12
ATOM     12  O   UNL     1      40.913 -24.543 -14.333  0.00  0.00    -0.481 OA
ATOM     13  H   UNL     1      41.649 -24.380 -13.776  0.00  0.00    +0.295 HD
ENDBRANCH  11  12
ENDBRANCH   1  11
TORSDOF 5
ENDMDL
MODEL 5
REMARK VINA RESULT:      -4.8      2.212      2.648
REMARK  Name = 100714
REMARK  5 active torsions:
REMARK  status: ('A' for Active; 'I' for Inactive)
REMARK    1  A    between atoms: CA_1  and  N_2
REMARK    2  A    between atoms: CA_1  and  C_7
REMARK    3  A    between atoms: CA_1  and  C_11
REMARK    4  A    between atoms: C_7  and  O_8
REMARK    5  A    between atoms: C_11  and  O_12
REMARK                            x       y       z     vdW  Elec       q    Type
REMARK                         _______ _______ _______ _____ _____    ______ ____
ROOT
ATOM      1  CA  UNL     1      38.756 -25.585 -14.128  0.00  0.00    +0.136 C 
ENDROOT
BRANCH   1   2
ATOM      2  N   UNL     1      38.111 -26.866 -14.397  0.00  0.00    +0.396 N 
ATOM      3  H1  UNL     1      37.098 -26.751 -14.362  0.00  0.00    -0.088 HD
ATOM      4  H2  UNL     1      38.400 -27.547 -13.694  0.00  0.00    -0.088 HD
ATOM      5  H3  UNL     1      38.384 -27.197 -15.323  0.00  0.00    -0.088 HD
ENDBRANCH   1   2
BRANCH   1   7
ATOM      6  O   UNL     1      40.804 -26.801 -14.668  0.00  0.00    -0.252 OA
ATOM      7  C   UNL     1      40.235 -25.752 -14.405  0.00  0.00    +0.304 C 
BRANCH   7   8
ATOM      8  O   UNL     1      40.890 -24.566 -14.275  0.00  0.00    -0.481 OA
ATOM      9  H   UNL     1      40.470 -23.769 -14.531  0.00  0.00    +0.295 HD
ENDBRANCH   7   8
ENDBRANCH   1   7
BRANCH   1  11
ATOM     10  OXT UNL     1      37.780 -25.909 -11.918  0.00  0.00    -0.252 OA
ATOM     11  C   UNL     1      38.401 -25.208 -12.705  0.00  0.00    +0.304 C 
BRANCH  11  12
ATOM     12  O   UNL     1      38.848 -23.965 -12.381  0.00  0.00    -0.481 OA
ATOM     13  H   UNL     1      39.745 -23.737 -12.528  0.00  0.00    +0.295 HD
ENDBRANCH  11  12
ENDBRANCH   1  11
TORSDOF 5
ENDMDL
MODEL 6
REMARK VINA RESULT:      -4.8      4.079      4.412
REMARK  Name = 100714
REMARK  5 active torsions:
REMARK  status: ('A' for Active; 'I' for Inactive)
REMARK    1  A    between atoms: CA_1  and  N_2
REMARK    2  A    between atoms: CA_1  and  C_7
REMARK    3  A    between atoms: CA_1  and  C_11
REMARK    4  A    between atoms: C_7  and  O_8
REMARK    5  A    between atoms: C_11  and  O_12
REMARK                            x       y       z     vdW  Elec       q    Type
REMARK                         _______ _______ _______ _____ _____    ______ ____
ROOT
ATOM      1  CA  UNL     1      36.626 -24.678 -12.556  0.00  0.00    +0.136 C 
ENDROOT
BRANCH   1   2
ATOM      2  N   UNL     1      36.931 -26.105 -12.600  0.00  0.00    +0.396 N 
ATOM      3  H1  UNL     1      36.063 -26.640 -12.596  0.00  0.00    -0.088 HD
ATOM      4  H2  UNL     1      37.490 -26.358 -11.784  0.00  0.00    -0.088 HD
ATOM      5  H3  UNL     1      37.456 -26.314 -13.449  0.00  0.00    -0.088 HD
ENDBRANCH   1   2
BRANCH   1   7
ATOM      6  O   UNL     1      39.014 -24.168 -12.596  0.00  0.00    -0.252 OA
ATOM      7  C   UNL     1      37.893 -23.951 -12.159  0.00  0.00    +0.304 C 
BRANCH   7   8
ATOM      8  O   UNL     1      37.641 -23.028 -11.192  0.00  0.00    -0.481 OA
ATOM      9  H   UNL     1      38.076 -23.088 -10.364  0.00  0.00    +0.295 HD
ENDBRANCH   7   8
ENDBRANCH   1   7
BRANCH   1  11
ATOM     10  OXT UNL     1      35.302 -25.124 -10.558  0.00  0.00    -0.252 OA
ATOM     11  C   UNL     1      35.459 -24.511 -11.606  0.00  0.00    +0.304 C 
BRANCH  11  12
ATOM     12  O   UNL     1      34.566 -23.588 -12.053  0.00  0.00    -0.481 OA
ATOM     13  H   UNL     1      34.267 -23.616 -12.940  0.00  0.00    +0.295 HD
ENDBRANCH  11  12
ENDBRANCH   1  11
TORSDOF 5
ENDMDL
MODEL 7
REMARK VINA RESULT:      -4.8      4.050      5.203
REMARK  Name = 100714
REMARK  5 active torsions:
REMARK  status: ('A' for Active; 'I' for Inactive)
REMARK    1  A    between atoms: CA_1  and  N_2
REMARK    2  A    between atoms: CA_1  and  C_7
REMARK    3  A    between atoms: CA_1  and  C_11
REMARK    4  A    between atoms: C_7  and  O_8
REMARK    5  A    between atoms: C_11  and  O_12
REMARK                            x       y       z     vdW  Elec       q    Type
REMARK                         _______ _______ _______ _____ _____    ______ ____
ROOT
ATOM      1  CA  UNL     1      36.866 -24.841 -12.048  0.00  0.00    +0.136 C 
ENDROOT
BRANCH   1   2
ATOM      2  N   UNL     1      36.497 -25.629 -13.219  0.00  0.00    +0.396 N 
ATOM      3  H1  UNL     1      35.497 -25.531 -13.395  0.00  0.00    -0.088 HD
ATOM      4  H2  UNL     1      36.718 -26.611 -13.051  0.00  0.00    -0.088 HD
ATOM      5  H3  UNL     1      37.019 -25.298 -14.031  0.00  0.00    -0.088 HD
ENDBRANCH   1   2
BRANCH   1   7
ATOM      6  O   UNL     1      35.236 -25.036 -10.240  0.00  0.00    -0.252 OA
ATOM      7  C   UNL     1      35.594 -24.524 -11.290  0.00  0.00    +0.304 C 
BRANCH   7   8
ATOM      8  O   UNL     1      34.847 -23.606 -11.960  0.00  0.00    -0.481 OA
ATOM      9  H   UNL     1      34.638 -23.741 -12.864  0.00  0.00    +0.295 HD
ENDBRANCH   7   8
ENDBRANCH   1   7
BRANCH   1  11
ATOM     10  OXT UNL     1      37.476 -23.102 -13.643  0.00  0.00    -0.252 OA
ATOM     11  C   UNL     1      37.635 -23.639 -12.555  0.00  0.00    +0.304 C 
BRANCH  11  12
ATOM     12  O   UNL     1      38.558 -23.207 -11.655  0.00  0.00    -0.481 OA
ATOM     13  H   UNL     1      38.401 -22.427 -11.161  0.00  0.00    +0.295 HD
ENDBRANCH  11  12
ENDBRANCH   1  11
TORSDOF 5
ENDMDL
MODEL 8
REMARK VINA RESULT:      -4.8      2.433      2.767
REMARK  Name = 100714
REMARK  5 active torsions:
REMARK  status: ('A' for Active; 'I' for Inactive)
REMARK    1  A    between atoms: CA_1  and  N_2
REMARK    2  A    between atoms: CA_1  and  C_7
REMARK    3  A    between atoms: CA_1  and  C_11
REMARK    4  A    between atoms: C_7  and  O_8
REMARK    5  A    between atoms: C_11  and  O_12
REMARK                            x       y       z     vdW  Elec       q    Type
REMARK                         _______ _______ _______ _____ _____    ______ ____
ROOT
ATOM      1  CA  UNL     1      37.179 -25.947 -13.130  0.00  0.00    +0.136 C 
ENDROOT
BRANCH   1   2
ATOM      2  N   UNL     1      35.860 -25.351 -13.313  0.00  0.00    +0.396 N 
ATOM      3  H1  UNL     1      35.194 -26.073 -13.589  0.00  0.00    -0.088 HD
ATOM      4  H2  UNL     1      35.908 -24.637 -14.041  0.00  0.00    -0.088 HD
ATOM      5  H3  UNL     1      35.555 -24.924 -12.438  0.00  0.00    -0.088 HD
ENDBRANCH   1   2
BRANCH   1   7
ATOM      6  O   UNL     1      37.824 -24.503 -11.269  0.00  0.00    -0.252 OA
ATOM      7  C   UNL     1      38.036 -24.942 -12.389  0.00  0.00    +0.304 C 
BRANCH   7   8
ATOM      8  O   UNL     1      39.080 -24.533 -13.160  0.00  0.00    -0.481 OA
ATOM      9  H   UNL     1      38.918 -24.095 -13.973  0.00  0.00    +0.295 HD
ENDBRANCH   7   8
ENDBRANCH   1   7
BRANCH   1  11
ATOM     10  OXT UNL     1      38.475 -27.230 -14.747  0.00  0.00    -0.252 OA
ATOM     11  C   UNL     1      37.677 -26.334 -14.506  0.00  0.00    +0.304 C 
BRANCH  11  12
ATOM     12  O   UNL     1      37.140 -25.553 -15.481  0.00  0.00    -0.481 OA
ATOM     13  H   UNL     1      36.234 -25.316 -15.445  0.00  0.00    +0.295 HD
ENDBRANCH  11  12
ENDBRANCH   1  11
TORSDOF 5
ENDMDL
MODEL 9
REMARK VINA RESULT:      -4.7      2.420      3.387
REMARK  Name = 100714
REMARK  5 active torsions:
REMARK  status: ('A' for Active; 'I' for Inactive)
REMARK    1  A    between atoms: CA_1  and  N_2
REMARK    2  A    between atoms: CA_1  and  C_7
REMARK    3  A    between atoms: CA_1  and  C_11
REMARK    4  A    between atoms: C_7  and  O_8
REMARK    5  A    between atoms: C_11  and  O_12
REMARK                            x       y       z     vdW  Elec       q    Type
REMARK                         _______ _______ _______ _____ _____    ______ ____
ROOT
ATOM      1  CA  UNL     1      36.877 -25.493 -14.260  0.00  0.00    +0.136 C 
ENDROOT
BRANCH   1   2
ATOM      2  N   UNL     1      35.423 -25.485 -14.144  0.00  0.00    +0.396 N 
ATOM      3  H1  UNL     1      35.053 -26.392 -14.427  0.00  0.00    -0.088 HD
ATOM      4  H2  UNL     1      35.038 -24.758 -14.748  0.00  0.00    -0.088 HD
ATOM      5  H3  UNL     1      35.159 -25.297 -13.176  0.00  0.00    -0.088 HD
ENDBRANCH   1   2
BRANCH   1   7
ATOM      6  O   UNL     1      36.638 -27.124 -16.061  0.00  0.00    -0.252 OA
ATOM      7  C   UNL     1      37.262 -26.688 -15.105  0.00  0.00    +0.304 C 
BRANCH   7   8
ATOM      8  O   UNL     1      38.398 -27.270 -14.634  0.00  0.00    -0.481 OA
ATOM      9  H   UNL     1      39.019 -27.636 -15.232  0.00  0.00    +0.295 HD
ENDBRANCH   7   8
ENDBRANCH   1   7
BRANCH   1  11
ATOM     10  OXT UNL     1      38.350 -24.798 -12.446  0.00  0.00    -0.252 OA
ATOM     11  C   UNL     1      37.427 -25.493 -12.849  0.00  0.00    +0.304 C 
BRANCH  11  12
ATOM     12  O   UNL     1      36.776 -26.379 -12.048  0.00  0.00    -0.481 OA
ATOM     13  H   UNL     1      36.767 -27.290 -12.268  0.00  0.00    +0.295 HD
ENDBRANCH  11  12
ENDBRANCH   1  11
TORSDOF 5
ENDMDL
