MODEL 1
REMARK VINA RESULT:      -9.9      0.000      0.000
REMARK  Name = 5289228
REMARK  6 active torsions:
REMARK  status: ('A' for Active; 'I' for Inactive)
REMARK    1  A    between atoms: N_1  and  C_13
REMARK    2  A    between atoms: C_5  and  C_17
REMARK    3  A    between atoms: C_13  and  C_14
REMARK    4  A    between atoms: C_14  and  C_15
REMARK    5  A    between atoms: C_17  and  C_18
REMARK    6  A    between atoms: C_21  and  O_24
REMARK                            x       y       z     vdW  Elec       q    Type
REMARK                         _______ _______ _______ _____ _____    ______ ____
ROOT
ATOM      1  N   UNL     1      33.541 -23.453 -16.350  0.00  0.00    -0.249 N 
ATOM      2  N   UNL     1      31.974 -22.739 -17.744  0.00  0.00    -0.385 NA
ATOM      3  N   UNL     1      32.216 -23.815 -14.351  0.00  0.00    -0.227 NA
ATOM      4  N   UNL     1      29.873 -23.262 -14.745  0.00  0.00    -0.227 NA
ATOM      5  C   UNL     1      33.254 -23.016 -17.607  0.00  0.00    +0.169 C 
ATOM      6  C   UNL     1      32.391 -23.458 -15.632  0.00  0.00    +0.167 C 
ATOM      7  C   UNL     1      31.423 -23.010 -16.516  0.00  0.00    +0.195 C 
ATOM      8  C   UNL     1      30.121 -22.917 -16.031  0.00  0.00    +0.155 C 
ATOM      9  C   UNL     1      30.920 -23.683 -13.996  0.00  0.00    +0.253 C 
ATOM     10  N   UNL     1      29.077 -22.472 -16.859  0.00  0.00    -0.341 N 
ATOM     11  H   UNL     1      28.160 -22.410 -16.505  0.00  0.00    +0.144 HD
ATOM     12  H   UNL     1      29.261 -22.222 -17.794  0.00  0.00    +0.144 HD
ENDROOT
BRANCH   1  13
ATOM     13  C   UNL     1      34.856 -23.846 -15.854  0.00  0.00    +0.099 C 
BRANCH  13  14
ATOM     14  C   UNL     1      35.604 -22.676 -15.218  0.00  0.00    +0.022 C 
BRANCH  14  15
ATOM     15  C   UNL     1      37.040 -22.592 -15.735  0.00  0.00    +0.002 C 
ATOM     16  C   UNL     1      37.197 -21.488 -16.769  0.00  0.00    +0.000 C 
ENDBRANCH  14  15
ENDBRANCH  13  14
ENDBRANCH   1  13
BRANCH   5  17
ATOM     17  C   UNL     1      34.283 -22.886 -18.658  0.00  0.00    +0.102 C 
BRANCH  17  18
ATOM     18  C   UNL     1      34.166 -21.611 -19.482  0.00  0.00    -0.011 C 
ATOM     19  C   UNL     1      35.320 -20.984 -19.907  0.00  0.00    +0.033 C 
ATOM     20  C   UNL     1      32.910 -21.124 -19.780  0.00  0.00    -0.004 C 
ATOM     21  C   UNL     1      35.212 -19.817 -20.663  0.00  0.00    +0.138 C 
ATOM     22  C   UNL     1      32.803 -19.956 -20.536  0.00  0.00    +0.003 C 
ATOM     23  C   UNL     1      33.955 -19.303 -20.976  0.00  0.00    +0.037 C 
BRANCH  21  24
ATOM     24  O   UNL     1      36.335 -19.179 -21.094  0.00  0.00    -0.471 OA
ATOM     25  C   UNL     1      36.196 -18.301 -22.210  0.00  0.00    +0.252 C 
ENDBRANCH  21  24
ENDBRANCH  17  18
ENDBRANCH   5  17
TORSDOF 6
ENDMDL
MODEL 2
REMARK VINA RESULT:      -9.7      5.206      8.682
REMARK  Name = 5289228
REMARK  6 active torsions:
REMARK  status: ('A' for Active; 'I' for Inactive)
REMARK    1  A    between atoms: N_1  and  C_13
REMARK    2  A    between atoms: C_5  and  C_17
REMARK    3  A    between atoms: C_13  and  C_14
REMARK    4  A    between atoms: C_14  and  C_15
REMARK    5  A    between atoms: C_17  and  C_18
REMARK    6  A    between atoms: C_21  and  O_24
REMARK                            x       y       z     vdW  Elec       q    Type
REMARK                         _______ _______ _______ _____ _____    ______ ____
ROOT
ATOM      1  N   UNL     1      34.716 -16.356 -23.197  0.00  0.00    -0.249 N 
ATOM      2  N   UNL     1      34.247 -16.071 -21.051  0.00  0.00    -0.385 NA
ATOM      3  N   UNL     1      33.475 -14.509 -24.164  0.00  0.00    -0.227 NA
ATOM      4  N   UNL     1      32.326 -13.229 -22.435  0.00  0.00    -0.227 NA
ATOM      5  C   UNL     1      34.895 -16.810 -21.927  0.00  0.00    +0.169 C 
ATOM      6  C   UNL     1      33.910 -15.267 -23.146  0.00  0.00    +0.167 C 
ATOM      7  C   UNL     1      33.626 -15.103 -21.800  0.00  0.00    +0.195 C 
ATOM      8  C   UNL     1      32.801 -14.036 -21.455  0.00  0.00    +0.155 C 
ATOM      9  C   UNL     1      32.687 -13.511 -23.709  0.00  0.00    +0.253 C 
ATOM     10  N   UNL     1      32.462 -13.795 -20.113  0.00  0.00    -0.341 N 
ATOM     11  H   UNL     1      31.877 -13.037 -19.882  0.00  0.00    +0.144 HD
ATOM     12  H   UNL     1      32.809 -14.383 -19.404  0.00  0.00    +0.144 HD
ENDROOT
BRANCH   1  13
ATOM     13  C   UNL     1      35.288 -16.936 -24.408  0.00  0.00    +0.099 C 
BRANCH  13  14
ATOM     14  C   UNL     1      34.217 -17.529 -25.322  0.00  0.00    +0.022 C 
BRANCH  14  15
ATOM     15  C   UNL     1      33.842 -18.945 -24.885  0.00  0.00    +0.002 C 
ATOM     16  C   UNL     1      35.076 -19.805 -24.661  0.00  0.00    +0.000 C 
ENDBRANCH  14  15
ENDBRANCH  13  14
ENDBRANCH   1  13
BRANCH   5  17
ATOM     17  C   UNL     1      35.725 -17.992 -21.614  0.00  0.00    +0.102 C 
BRANCH  17  18
ATOM     18  C   UNL     1      34.949 -19.143 -20.989  0.00  0.00    -0.011 C 
ATOM     19  C   UNL     1      35.643 -20.127 -20.315  0.00  0.00    +0.033 C 
ATOM     20  C   UNL     1      33.575 -19.165 -21.113  0.00  0.00    -0.004 C 
ATOM     21  C   UNL     1      34.932 -21.180 -19.742  0.00  0.00    +0.138 C 
ATOM     22  C   UNL     1      32.864 -20.219 -20.539  0.00  0.00    +0.003 C 
ATOM     23  C   UNL     1      33.543 -21.227 -19.854  0.00  0.00    +0.037 C 
BRANCH  21  24
ATOM     24  O   UNL     1      35.594 -22.164 -19.072  0.00  0.00    -0.471 OA
ATOM     25  C   UNL     1      36.619 -21.756 -18.167  0.00  0.00    +0.252 C 
ENDBRANCH  21  24
ENDBRANCH  17  18
ENDBRANCH   5  17
TORSDOF 6
ENDMDL
MODEL 3
REMARK VINA RESULT:      -9.6      8.992     12.320
REMARK  Name = 5289228
REMARK  6 active torsions:
REMARK  status: ('A' for Active; 'I' for Inactive)
REMARK    1  A    between atoms: N_1  and  C_13
REMARK    2  A    between atoms: C_5  and  C_17
REMARK    3  A    between atoms: C_13  and  C_14
REMARK    4  A    between atoms: C_14  and  C_15
REMARK    5  A    between atoms: C_17  and  C_18
REMARK    6  A    between atoms: C_21  and  O_24
REMARK                            x       y       z     vdW  Elec       q    Type
REMARK                         _______ _______ _______ _____ _____    ______ ____
ROOT
ATOM      1  N   UNL     1      32.282 -11.280 -22.654  0.00  0.00    -0.249 N 
ATOM      2  N   UNL     1      33.789 -12.092 -24.061  0.00  0.00    -0.385 NA
ATOM      3  N   UNL     1      32.848  -8.922 -22.723  0.00  0.00    -0.227 NA
ATOM      4  N   UNL     1      34.722  -8.517 -24.231  0.00  0.00    -0.227 NA
ATOM      5  C   UNL     1      32.783 -12.389 -23.265  0.00  0.00    +0.169 C 
ATOM      6  C   UNL     1      32.999 -10.208 -23.073  0.00  0.00    +0.167 C 
ATOM      7  C   UNL     1      33.935 -10.732 -23.950  0.00  0.00    +0.195 C 
ATOM      8  C   UNL     1      34.819  -9.833 -24.540  0.00  0.00    +0.155 C 
ATOM      9  C   UNL     1      33.757  -8.149 -23.355  0.00  0.00    +0.253 C 
ATOM     10  N   UNL     1      35.800 -10.278 -25.442  0.00  0.00    -0.341 N 
ATOM     11  H   UNL     1      36.420  -9.632 -25.853  0.00  0.00    +0.144 HD
ATOM     12  H   UNL     1      35.868 -11.235 -25.665  0.00  0.00    +0.144 HD
ENDROOT
BRANCH   1  13
ATOM     13  C   UNL     1      31.169 -11.244 -21.711  0.00  0.00    +0.099 C 
BRANCH  13  14
ATOM     14  C   UNL     1      31.607 -11.602 -20.292  0.00  0.00    +0.022 C 
BRANCH  14  15
ATOM     15  C   UNL     1      31.115 -10.563 -19.284  0.00  0.00    +0.002 C 
ATOM     16  C   UNL     1      31.815  -9.227 -19.473  0.00  0.00    +0.000 C 
ENDBRANCH  14  15
ENDBRANCH  13  14
ENDBRANCH   1  13
BRANCH   5  17
ATOM     17  C   UNL     1      32.233 -13.741 -23.034  0.00  0.00    +0.102 C 
BRANCH  17  18
ATOM     18  C   UNL     1      33.216 -14.704 -22.383  0.00  0.00    -0.011 C 
ATOM     19  C   UNL     1      33.842 -15.649 -23.169  0.00  0.00    +0.033 C 
ATOM     20  C   UNL     1      33.451 -14.600 -21.027  0.00  0.00    -0.004 C 
ATOM     21  C   UNL     1      34.744 -16.530 -22.573  0.00  0.00    +0.138 C 
ATOM     22  C   UNL     1      34.352 -15.482 -20.431  0.00  0.00    +0.003 C 
ATOM     23  C   UNL     1      34.998 -16.447 -21.204  0.00  0.00    +0.037 C 
BRANCH  21  24
ATOM     24  O   UNL     1      35.375 -17.472 -23.327  0.00  0.00    -0.471 OA
ATOM     25  C   UNL     1      34.710 -17.908 -24.511  0.00  0.00    +0.252 C 
ENDBRANCH  21  24
ENDBRANCH  17  18
ENDBRANCH   5  17
TORSDOF 6
ENDMDL
MODEL 4
REMARK VINA RESULT:      -9.4      1.983      4.349
REMARK  Name = 5289228
REMARK  6 active torsions:
REMARK  status: ('A' for Active; 'I' for Inactive)
REMARK    1  A    between atoms: N_1  and  C_13
REMARK    2  A    between atoms: C_5  and  C_17
REMARK    3  A    between atoms: C_13  and  C_14
REMARK    4  A    between atoms: C_14  and  C_15
REMARK    5  A    between atoms: C_17  and  C_18
REMARK    6  A    between atoms: C_21  and  O_24
REMARK                            x       y       z     vdW  Elec       q    Type
REMARK                         _______ _______ _______ _____ _____    ______ ____
ROOT
ATOM      1  N   UNL     1      33.236 -23.408 -15.195  0.00  0.00    -0.249 N 
ATOM      2  N   UNL     1      35.023 -23.955 -16.387  0.00  0.00    -0.385 NA
ATOM      3  N   UNL     1      33.992 -24.016 -12.972  0.00  0.00    -0.227 NA
ATOM      4  N   UNL     1      36.261 -24.910 -13.035  0.00  0.00    -0.227 NA
ATOM      5  C   UNL     1      33.802 -23.464 -16.432  0.00  0.00    +0.169 C 
ATOM      6  C   UNL     1      34.134 -23.888 -14.300  0.00  0.00    +0.167 C 
ATOM      7  C   UNL     1      35.242 -24.226 -15.059  0.00  0.00    +0.195 C 
ATOM      8  C   UNL     1      36.336 -24.754 -14.379  0.00  0.00    +0.155 C 
ATOM      9  C   UNL     1      35.111 -24.536 -12.424  0.00  0.00    +0.253 C 
ATOM     10  N   UNL     1      37.502 -25.123 -15.070  0.00  0.00    -0.341 N 
ATOM     11  H   UNL     1      38.269 -25.496 -14.578  0.00  0.00    +0.144 HD
ATOM     12  H   UNL     1      37.553 -25.008 -16.047  0.00  0.00    +0.144 HD
ENDROOT
BRANCH   1  13
ATOM     13  C   UNL     1      31.898 -22.919 -14.881  0.00  0.00    +0.099 C 
BRANCH  13  14
ATOM     14  C   UNL     1      30.909 -24.060 -14.649  0.00  0.00    +0.022 C 
BRANCH  14  15
ATOM     15  C   UNL     1      29.913 -24.170 -15.804  0.00  0.00    +0.002 C 
ATOM     16  C   UNL     1      29.607 -22.809 -16.408  0.00  0.00    +0.000 C 
ENDBRANCH  14  15
ENDBRANCH  13  14
ENDBRANCH   1  13
BRANCH   5  17
ATOM     17  C   UNL     1      33.095 -23.016 -17.650  0.00  0.00    +0.102 C 
BRANCH  17  18
ATOM     18  C   UNL     1      33.944 -22.151 -18.572  0.00  0.00    -0.011 C 
ATOM     19  C   UNL     1      33.314 -21.365 -19.515  0.00  0.00    +0.033 C 
ATOM     20  C   UNL     1      35.317 -22.179 -18.435  0.00  0.00    -0.004 C 
ATOM     21  C   UNL     1      34.092 -20.572 -20.358  0.00  0.00    +0.138 C 
ATOM     22  C   UNL     1      36.094 -21.386 -19.279  0.00  0.00    +0.003 C 
ATOM     23  C   UNL     1      35.481 -20.582 -20.241  0.00  0.00    +0.037 C 
BRANCH  21  24
ATOM     24  O   UNL     1      33.494 -19.787 -21.297  0.00  0.00    -0.471 OA
ATOM     25  C   UNL     1      34.348 -19.118 -22.223  0.00  0.00    +0.252 C 
ENDBRANCH  21  24
ENDBRANCH  17  18
ENDBRANCH   5  17
TORSDOF 6
ENDMDL
MODEL 5
REMARK VINA RESULT:      -9.2      3.150      6.852
REMARK  Name = 5289228
REMARK  6 active torsions:
REMARK  status: ('A' for Active; 'I' for Inactive)
REMARK    1  A    between atoms: N_1  and  C_13
REMARK    2  A    between atoms: C_5  and  C_17
REMARK    3  A    between atoms: C_13  and  C_14
REMARK    4  A    between atoms: C_14  and  C_15
REMARK    5  A    between atoms: C_17  and  C_18
REMARK    6  A    between atoms: C_21  and  O_24
REMARK                            x       y       z     vdW  Elec       q    Type
REMARK                         _______ _______ _______ _____ _____    ______ ____
ROOT
ATOM      1  N   UNL     1      33.195 -23.371 -16.621  0.00  0.00    -0.249 N 
ATOM      2  N   UNL     1      35.400 -23.162 -16.680  0.00  0.00    -0.385 NA
ATOM      3  N   UNL     1      32.586 -22.137 -18.618  0.00  0.00    -0.227 NA
ATOM      4  N   UNL     1      34.568 -21.263 -19.742  0.00  0.00    -0.227 NA
ATOM      5  C   UNL     1      34.379 -23.664 -16.017  0.00  0.00    +0.169 C 
ATOM      6  C   UNL     1      33.459 -22.639 -17.731  0.00  0.00    +0.167 C 
ATOM      7  C   UNL     1      34.838 -22.517 -17.753  0.00  0.00    +0.195 C 
ATOM      8  C   UNL     1      35.391 -21.798 -18.809  0.00  0.00    +0.155 C 
ATOM      9  C   UNL     1      33.237 -21.463 -19.592  0.00  0.00    +0.253 C 
ATOM     10  N   UNL     1      36.782 -21.626 -18.910  0.00  0.00    -0.341 N 
ATOM     11  H   UNL     1      37.161 -21.114 -19.661  0.00  0.00    +0.144 HD
ATOM     12  H   UNL     1      37.378 -22.016 -18.230  0.00  0.00    +0.144 HD
ENDROOT
BRANCH   1  13
ATOM     13  C   UNL     1      31.870 -23.770 -16.158  0.00  0.00    +0.099 C 
BRANCH  13  14
ATOM     14  C   UNL     1      31.333 -22.834 -15.077  0.00  0.00    +0.022 C 
BRANCH  14  15
ATOM     15  C   UNL     1      30.910 -23.614 -13.832  0.00  0.00    +0.002 C 
ATOM     16  C   UNL     1      30.711 -25.090 -14.140  0.00  0.00    +0.000 C 
ENDBRANCH  14  15
ENDBRANCH  13  14
ENDBRANCH   1  13
BRANCH   5  17
ATOM     17  C   UNL     1      34.462 -24.456 -14.772  0.00  0.00    +0.102 C 
BRANCH  17  18
ATOM     18  C   UNL     1      35.860 -24.517 -14.172  0.00  0.00    -0.011 C 
ATOM     19  C   UNL     1      36.749 -25.459 -14.649  0.00  0.00    +0.033 C 
ATOM     20  C   UNL     1      36.196 -23.628 -13.172  0.00  0.00    -0.004 C 
ATOM     21  C   UNL     1      38.030 -25.514 -14.101  0.00  0.00    +0.138 C 
ATOM     22  C   UNL     1      37.477 -23.684 -12.624  0.00  0.00    +0.003 C 
ATOM     23  C   UNL     1      38.394 -24.628 -13.088  0.00  0.00    +0.037 C 
BRANCH  21  24
ATOM     24  O   UNL     1      38.925 -26.435 -14.554  0.00  0.00    -0.471 OA
ATOM     25  C   UNL     1      40.295 -26.038 -14.604  0.00  0.00    +0.252 C 
ENDBRANCH  21  24
ENDBRANCH  17  18
ENDBRANCH   5  17
TORSDOF 6
ENDMDL
MODEL 6
REMARK VINA RESULT:      -9.1      3.502      6.483
REMARK  Name = 5289228
REMARK  6 active torsions:
REMARK  status: ('A' for Active; 'I' for Inactive)
REMARK    1  A    between atoms: N_1  and  C_13
REMARK    2  A    between atoms: C_5  and  C_17
REMARK    3  A    between atoms: C_13  and  C_14
REMARK    4  A    between atoms: C_14  and  C_15
REMARK    5  A    between atoms: C_17  and  C_18
REMARK    6  A    between atoms: C_21  and  O_24
REMARK                            x       y       z     vdW  Elec       q    Type
REMARK                         _______ _______ _______ _____ _____    ______ ____
ROOT
ATOM      1  N   UNL     1      36.296 -23.294 -15.796  0.00  0.00    -0.249 N 
ATOM      2  N   UNL     1      35.234 -25.228 -15.591  0.00  0.00    -0.385 NA
ATOM      3  N   UNL     1      38.423 -23.854 -14.771  0.00  0.00    -0.227 NA
ATOM      4  N   UNL     1      38.443 -26.173 -14.014  0.00  0.00    -0.227 NA
ATOM      5  C   UNL     1      35.148 -23.988 -16.025  0.00  0.00    +0.169 C 
ATOM      6  C   UNL     1      37.174 -24.125 -15.180  0.00  0.00    +0.167 C 
ATOM      7  C   UNL     1      36.495 -25.327 -15.060  0.00  0.00    +0.195 C 
ATOM      8  C   UNL     1      37.177 -26.376 -14.450  0.00  0.00    +0.155 C 
ATOM      9  C   UNL     1      38.979 -24.943 -14.199  0.00  0.00    +0.253 C 
ATOM     10  N   UNL     1      36.565 -27.631 -14.288  0.00  0.00    -0.341 N 
ATOM     11  H   UNL     1      37.058 -28.366 -13.855  0.00  0.00    +0.144 HD
ATOM     12  H   UNL     1      35.645 -27.776 -14.606  0.00  0.00    +0.144 HD
ENDROOT
BRANCH   1  13
ATOM     13  C   UNL     1      36.545 -21.900 -16.147  0.00  0.00    +0.099 C 
BRANCH  13  14
ATOM     14  C   UNL     1      37.149 -21.758 -17.543  0.00  0.00    +0.022 C 
BRANCH  14  15
ATOM     15  C   UNL     1      36.058 -21.616 -18.605  0.00  0.00    +0.002 C 
ATOM     16  C   UNL     1      36.577 -20.911 -19.847  0.00  0.00    +0.000 C 
ENDBRANCH  14  15
ENDBRANCH  13  14
ENDBRANCH   1  13
BRANCH   5  17
ATOM     17  C   UNL     1      33.972 -23.384 -16.686  0.00  0.00    +0.102 C 
BRANCH  17  18
ATOM     18  C   UNL     1      32.735 -23.315 -15.802  0.00  0.00    -0.011 C 
ATOM     19  C   UNL     1      31.501 -23.136 -16.394  0.00  0.00    +0.033 C 
ATOM     20  C   UNL     1      32.885 -23.437 -14.436  0.00  0.00    -0.004 C 
ATOM     21  C   UNL     1      30.368 -23.075 -15.584  0.00  0.00    +0.138 C 
ATOM     22  C   UNL     1      31.751 -23.375 -13.626  0.00  0.00    +0.003 C 
ATOM     23  C   UNL     1      30.493 -23.194 -14.201  0.00  0.00    +0.037 C 
BRANCH  21  24
ATOM     24  O   UNL     1      29.139 -22.899 -16.144  0.00  0.00    -0.471 OA
ATOM     25  C   UNL     1      28.459 -24.068 -16.598  0.00  0.00    +0.252 C 
ENDBRANCH  21  24
ENDBRANCH  17  18
ENDBRANCH   5  17
TORSDOF 6
ENDMDL
MODEL 7
REMARK VINA RESULT:      -9.0      3.085      6.226
REMARK  Name = 5289228
REMARK  6 active torsions:
REMARK  status: ('A' for Active; 'I' for Inactive)
REMARK    1  A    between atoms: N_1  and  C_13
REMARK    2  A    between atoms: C_5  and  C_17
REMARK    3  A    between atoms: C_13  and  C_14
REMARK    4  A    between atoms: C_14  and  C_15
REMARK    5  A    between atoms: C_17  and  C_18
REMARK    6  A    between atoms: C_21  and  O_24
REMARK                            x       y       z     vdW  Elec       q    Type
REMARK                         _______ _______ _______ _____ _____    ______ ____
ROOT
ATOM      1  N   UNL     1      35.064 -22.954 -15.860  0.00  0.00    -0.249 N 
ATOM      2  N   UNL     1      33.162 -23.056 -16.991  0.00  0.00    -0.385 NA
ATOM      3  N   UNL     1      36.541 -22.069 -17.569  0.00  0.00    -0.227 NA
ATOM      4  N   UNL     1      35.337 -21.704 -19.660  0.00  0.00    -0.227 NA
ATOM      5  C   UNL     1      33.743 -23.280 -15.831  0.00  0.00    +0.169 C 
ATOM      6  C   UNL     1      35.358 -22.496 -17.103  0.00  0.00    +0.167 C 
ATOM      7  C   UNL     1      34.161 -22.567 -17.795  0.00  0.00    +0.195 C 
ATOM      8  C   UNL     1      34.175 -22.149 -19.123  0.00  0.00    +0.155 C 
ATOM      9  C   UNL     1      36.431 -21.692 -18.861  0.00  0.00    +0.253 C 
ATOM     10  N   UNL     1      33.005 -22.185 -19.900  0.00  0.00    -0.341 N 
ATOM     11  H   UNL     1      33.028 -21.887 -20.839  0.00  0.00    +0.144 HD
ATOM     12  H   UNL     1      32.163 -22.509 -19.508  0.00  0.00    +0.144 HD
ENDROOT
BRANCH   1  13
ATOM     13  C   UNL     1      36.006 -23.075 -14.752  0.00  0.00    +0.099 C 
BRANCH  13  14
ATOM     14  C   UNL     1      36.988 -24.228 -14.956  0.00  0.00    +0.022 C 
BRANCH  14  15
ATOM     15  C   UNL     1      36.425 -25.537 -14.403  0.00  0.00    +0.002 C 
ATOM     16  C   UNL     1      36.829 -26.725 -15.262  0.00  0.00    +0.000 C 
ENDBRANCH  14  15
ENDBRANCH  13  14
ENDBRANCH   1  13
BRANCH   5  17
ATOM     17  C   UNL     1      33.083 -23.816 -14.623  0.00  0.00    +0.102 C 
BRANCH  17  18
ATOM     18  C   UNL     1      31.580 -24.008 -14.775  0.00  0.00    -0.011 C 
ATOM     19  C   UNL     1      30.790 -22.906 -15.031  0.00  0.00    +0.033 C 
ATOM     20  C   UNL     1      31.055 -25.278 -14.655  0.00  0.00    -0.004 C 
ATOM     21  C   UNL     1      29.414 -23.083 -15.172  0.00  0.00    +0.138 C 
ATOM     22  C   UNL     1      29.679 -25.454 -14.795  0.00  0.00    +0.003 C 
ATOM     23  C   UNL     1      28.858 -24.356 -15.054  0.00  0.00    +0.037 C 
BRANCH  21  24
ATOM     24  O   UNL     1      28.612 -22.011 -15.425  0.00  0.00    -0.471 OA
ATOM     25  C   UNL     1      27.311 -22.282 -15.945  0.00  0.00    +0.252 C 
ENDBRANCH  21  24
ENDBRANCH  17  18
ENDBRANCH   5  17
TORSDOF 6
ENDMDL
MODEL 8
REMARK VINA RESULT:      -9.0      3.153      6.409
REMARK  Name = 5289228
REMARK  6 active torsions:
REMARK  status: ('A' for Active; 'I' for Inactive)
REMARK    1  A    between atoms: N_1  and  C_13
REMARK    2  A    between atoms: C_5  and  C_17
REMARK    3  A    between atoms: C_13  and  C_14
REMARK    4  A    between atoms: C_14  and  C_15
REMARK    5  A    between atoms: C_17  and  C_18
REMARK    6  A    between atoms: C_21  and  O_24
REMARK                            x       y       z     vdW  Elec       q    Type
REMARK                         _______ _______ _______ _____ _____    ______ ____
ROOT
ATOM      1  N   UNL     1      33.838 -23.776 -15.494  0.00  0.00    -0.249 N 
ATOM      2  N   UNL     1      33.686 -23.579 -13.292  0.00  0.00    -0.385 NA
ATOM      3  N   UNL     1      35.858 -25.106 -15.675  0.00  0.00    -0.227 NA
ATOM      4  N   UNL     1      36.773 -25.609 -13.470  0.00  0.00    -0.227 NA
ATOM      5  C   UNL     1      33.134 -23.267 -14.446  0.00  0.00    +0.169 C 
ATOM      6  C   UNL     1      34.903 -24.452 -14.997  0.00  0.00    +0.167 C 
ATOM      7  C   UNL     1      34.794 -24.319 -13.622  0.00  0.00    +0.195 C 
ATOM      8  C   UNL     1      35.778 -24.930 -12.850  0.00  0.00    +0.155 C 
ATOM      9  C   UNL     1      36.752 -25.654 -14.823  0.00  0.00    +0.253 C 
ATOM     10  N   UNL     1      35.744 -24.847 -11.447  0.00  0.00    -0.341 N 
ATOM     11  H   UNL     1      36.447 -25.283 -10.912  0.00  0.00    +0.144 HD
ATOM     12  H   UNL     1      35.020 -24.353 -11.000  0.00  0.00    +0.144 HD
ENDROOT
BRANCH   1  13
ATOM     13  C   UNL     1      33.510 -23.623 -16.907  0.00  0.00    +0.099 C 
BRANCH  13  14
ATOM     14  C   UNL     1      34.416 -22.606 -17.600  0.00  0.00    +0.022 C 
BRANCH  14  15
ATOM     15  C   UNL     1      34.128 -22.544 -19.100  0.00  0.00    +0.002 C 
ATOM     16  C   UNL     1      33.312 -21.313 -19.460  0.00  0.00    +0.000 C 
ENDBRANCH  14  15
ENDBRANCH  13  14
ENDBRANCH   1  13
BRANCH   5  17
ATOM     17  C   UNL     1      31.904 -22.469 -14.627  0.00  0.00    +0.102 C 
BRANCH  17  18
ATOM     18  C   UNL     1      30.700 -23.285 -15.078  0.00  0.00    -0.011 C 
ATOM     19  C   UNL     1      29.985 -22.862 -16.181  0.00  0.00    +0.033 C 
ATOM     20  C   UNL     1      30.364 -24.422 -14.374  0.00  0.00    -0.004 C 
ATOM     21  C   UNL     1      28.883 -23.611 -16.595  0.00  0.00    +0.138 C 
ATOM     22  C   UNL     1      29.262 -25.170 -14.788  0.00  0.00    +0.003 C 
ATOM     23  C   UNL     1      28.521 -24.763 -15.899  0.00  0.00    +0.037 C 
BRANCH  21  24
ATOM     24  O   UNL     1      28.160 -23.215 -17.679  0.00  0.00    -0.471 OA
ATOM     25  C   UNL     1      27.117 -22.268 -17.454  0.00  0.00    +0.252 C 
ENDBRANCH  21  24
ENDBRANCH  17  18
ENDBRANCH   5  17
TORSDOF 6
ENDMDL
MODEL 9
REMARK VINA RESULT:      -8.8      9.060     12.594
REMARK  Name = 5289228
REMARK  6 active torsions:
REMARK  status: ('A' for Active; 'I' for Inactive)
REMARK    1  A    between atoms: N_1  and  C_13
REMARK    2  A    between atoms: C_5  and  C_17
REMARK    3  A    between atoms: C_13  and  C_14
REMARK    4  A    between atoms: C_14  and  C_15
REMARK    5  A    between atoms: C_17  and  C_18
REMARK    6  A    between atoms: C_21  and  O_24
REMARK                            x       y       z     vdW  Elec       q    Type
REMARK                         _______ _______ _______ _____ _____    ______ ____
ROOT
ATOM      1  N   UNL     1      33.535 -11.416 -24.006  0.00  0.00    -0.249 N 
ATOM      2  N   UNL     1      32.175 -10.972 -22.314  0.00  0.00    -0.385 NA
ATOM      3  N   UNL     1      34.562  -9.241 -24.322  0.00  0.00    -0.227 NA
ATOM      4  N   UNL     1      33.687  -7.621 -22.721  0.00  0.00    -0.227 NA
ATOM      5  C   UNL     1      32.598 -11.901 -23.146  0.00  0.00    +0.169 C 
ATOM      6  C   UNL     1      33.730 -10.104 -23.721  0.00  0.00    +0.167 C 
ATOM      7  C   UNL     1      32.874  -9.844 -22.663  0.00  0.00    +0.195 C 
ATOM      8  C   UNL     1      32.871  -8.546 -22.160  0.00  0.00    +0.155 C 
ATOM      9  C   UNL     1      34.471  -8.021 -23.751  0.00  0.00    +0.253 C 
ATOM     10  N   UNL     1      32.034  -8.193 -21.088  0.00  0.00    -0.341 N 
ATOM     11  H   UNL     1      32.040  -7.272 -20.741  0.00  0.00    +0.144 HD
ATOM     12  H   UNL     1      31.442  -8.867 -20.683  0.00  0.00    +0.144 HD
ENDROOT
BRANCH   1  13
ATOM     13  C   UNL     1      34.214 -12.169 -25.056  0.00  0.00    +0.099 C 
BRANCH  13  14
ATOM     14  C   UNL     1      33.479 -12.082 -26.392  0.00  0.00    +0.022 C 
BRANCH  14  15
ATOM     15  C   UNL     1      33.602 -13.388 -27.176  0.00  0.00    +0.002 C 
ATOM     16  C   UNL     1      32.826 -14.513 -26.509  0.00  0.00    +0.000 C 
ENDBRANCH  14  15
ENDBRANCH  13  14
ENDBRANCH   1  13
BRANCH   5  17
ATOM     17  C   UNL     1      32.143 -13.306 -23.176  0.00  0.00    +0.102 C 
BRANCH  17  18
ATOM     18  C   UNL     1      33.033 -14.260 -22.391  0.00  0.00    -0.011 C 
ATOM     19  C   UNL     1      33.885 -15.097 -23.081  0.00  0.00    +0.033 C 
ATOM     20  C   UNL     1      32.961 -14.256 -21.013  0.00  0.00    -0.004 C 
ATOM     21  C   UNL     1      34.701 -15.970 -22.361  0.00  0.00    +0.138 C 
ATOM     22  C   UNL     1      33.777 -15.129 -20.294  0.00  0.00    +0.003 C 
ATOM     23  C   UNL     1      34.646 -15.986 -20.968  0.00  0.00    +0.037 C 
BRANCH  21  24
ATOM     24  O   UNL     1      35.551 -16.806 -23.020  0.00  0.00    -0.471 OA
ATOM     25  C   UNL     1      35.003 -18.023 -23.524  0.00  0.00    +0.252 C 
ENDBRANCH  21  24
ENDBRANCH  17  18
ENDBRANCH   5  17
TORSDOF 6
ENDMDL
