MODEL 1
REMARK VINA RESULT:      -5.9      0.000      0.000
REMARK  Name = 5576
REMARK  0 active torsions:
REMARK  status: ('A' for Active; 'I' for Inactive)
REMARK                            x       y       z     vdW  Elec       q    Type
REMARK                         _______ _______ _______ _____ _____    ______ ____
ROOT
ATOM      1  O   UNL     1      33.602 -19.207 -21.295  0.00  0.00    -0.433 OA
ATOM      2  O   UNL     1      37.038 -19.512 -20.755  0.00  0.00    -0.271 OA
ATOM      3  O   UNL     1      32.727 -20.915 -20.064  0.00  0.00    -0.226 OA
ATOM      4  N   UNL     1      35.009 -20.499 -20.156  0.00  0.00    -0.191 N 
ATOM      5  C   UNL     1      34.911 -18.679 -21.572  0.00  0.00    +0.206 C 
ATOM      6  C   UNL     1      35.819 -19.596 -20.790  0.00  0.00    +0.270 C 
ATOM      7  C   UNL     1      34.993 -17.251 -21.057  0.00  0.00    +0.053 C 
ATOM      8  C   UNL     1      35.183 -18.778 -23.066  0.00  0.00    +0.053 C 
ATOM      9  C   UNL     1      33.699 -20.281 -20.455  0.00  0.00    +0.411 C 
ATOM     10  C   UNL     1      35.476 -21.563 -19.289  0.00  0.00    +0.126 C 
ENDROOT
TORSDOF 0
ENDMDL
MODEL 2
REMARK VINA RESULT:      -5.9      2.595      4.130
REMARK  Name = 5576
REMARK  0 active torsions:
REMARK  status: ('A' for Active; 'I' for Inactive)
REMARK                            x       y       z     vdW  Elec       q    Type
REMARK                         _______ _______ _______ _____ _____    ______ ____
ROOT
ATOM      1  O   UNL     1      35.140 -18.855 -22.983  0.00  0.00    -0.433 OA
ATOM      2  O   UNL     1      35.024 -16.524 -20.386  0.00  0.00    -0.271 OA
ATOM      3  O   UNL     1      34.851 -17.573 -24.846  0.00  0.00    -0.226 OA
ATOM      4  N   UNL     1      34.900 -16.660 -22.713  0.00  0.00    -0.191 N 
ATOM      5  C   UNL     1      35.218 -18.636 -21.564  0.00  0.00    +0.206 C 
ATOM      6  C   UNL     1      35.037 -17.143 -21.439  0.00  0.00    +0.270 C 
ATOM      7  C   UNL     1      36.588 -19.069 -21.066  0.00  0.00    +0.053 C 
ATOM      8  C   UNL     1      34.085 -19.387 -20.880  0.00  0.00    +0.053 C 
ATOM      9  C   UNL     1      34.951 -17.665 -23.630  0.00  0.00    +0.411 C 
ATOM     10  C   UNL     1      34.709 -15.264 -23.051  0.00  0.00    +0.126 C 
ENDROOT
TORSDOF 0
ENDMDL
MODEL 3
REMARK VINA RESULT:      -5.9      2.748      4.259
REMARK  Name = 5576
REMARK  0 active torsions:
REMARK  status: ('A' for Active; 'I' for Inactive)
REMARK                            x       y       z     vdW  Elec       q    Type
REMARK                         _______ _______ _______ _____ _____    ______ ____
ROOT
ATOM      1  O   UNL     1      35.128 -17.273 -20.470  0.00  0.00    -0.433 OA
ATOM      2  O   UNL     1      35.079 -18.038 -23.877  0.00  0.00    -0.271 OA
ATOM      3  O   UNL     1      34.731 -15.028 -20.435  0.00  0.00    -0.226 OA
ATOM      4  N   UNL     1      34.819 -16.237 -22.415  0.00  0.00    -0.191 N 
ATOM      5  C   UNL     1      35.247 -18.299 -21.471  0.00  0.00    +0.206 C 
ATOM      6  C   UNL     1      35.044 -17.542 -22.760  0.00  0.00    +0.270 C 
ATOM      7  C   UNL     1      34.153 -19.333 -21.259  0.00  0.00    +0.053 C 
ATOM      8  C   UNL     1      36.642 -18.904 -21.402  0.00  0.00    +0.053 C 
ATOM      9  C   UNL     1      34.875 -16.068 -21.065  0.00  0.00    +0.411 C 
ATOM     10  C   UNL     1      34.569 -15.164 -23.355  0.00  0.00    +0.126 C 
ENDROOT
TORSDOF 0
ENDMDL
MODEL 4
REMARK VINA RESULT:      -5.6      1.159      2.615
REMARK  Name = 5576
REMARK  0 active torsions:
REMARK  status: ('A' for Active; 'I' for Inactive)
REMARK                            x       y       z     vdW  Elec       q    Type
REMARK                         _______ _______ _______ _____ _____    ______ ____
ROOT
ATOM      1  O   UNL     1      36.026 -19.629 -21.002  0.00  0.00    -0.433 OA
ATOM      2  O   UNL     1      32.540 -19.828 -20.941  0.00  0.00    -0.271 OA
ATOM      3  O   UNL     1      36.667 -21.294 -19.582  0.00  0.00    -0.226 OA
ATOM      4  N   UNL     1      34.435 -20.854 -20.044  0.00  0.00    -0.191 N 
ATOM      5  C   UNL     1      34.785 -19.097 -21.499  0.00  0.00    +0.206 C 
ATOM      6  C   UNL     1      33.749 -19.951 -20.810  0.00  0.00    +0.270 C 
ATOM      7  C   UNL     1      34.734 -19.276 -23.008  0.00  0.00    +0.053 C 
ATOM      8  C   UNL     1      34.664 -17.639 -21.080  0.00  0.00    +0.053 C 
ATOM      9  C   UNL     1      35.779 -20.666 -20.145  0.00  0.00    +0.411 C 
ATOM     10  C   UNL     1      33.820 -21.872 -19.216  0.00  0.00    +0.126 C 
ENDROOT
TORSDOF 0
ENDMDL
MODEL 5
REMARK VINA RESULT:      -5.6      7.286      8.497
REMARK  Name = 5576
REMARK  0 active torsions:
REMARK  status: ('A' for Active; 'I' for Inactive)
REMARK                            x       y       z     vdW  Elec       q    Type
REMARK                         _______ _______ _______ _____ _____    ______ ____
ROOT
ATOM      1  O   UNL     1      35.519 -25.399 -15.393  0.00  0.00    -0.433 OA
ATOM      2  O   UNL     1      37.742 -23.366 -13.627  0.00  0.00    -0.271 OA
ATOM      3  O   UNL     1      36.789 -27.215 -15.929  0.00  0.00    -0.226 OA
ATOM      4  N   UNL     1      37.636 -25.430 -14.710  0.00  0.00    -0.191 N 
ATOM      5  C   UNL     1      35.707 -24.164 -14.681  0.00  0.00    +0.206 C 
ATOM      6  C   UNL     1      37.154 -24.233 -14.257  0.00  0.00    +0.270 C 
ATOM      7  C   UNL     1      34.779 -24.134 -13.477  0.00  0.00    +0.053 C 
ATOM      8  C   UNL     1      35.468 -22.999 -15.631  0.00  0.00    +0.053 C 
ATOM      9  C   UNL     1      36.680 -26.122 -15.389  0.00  0.00    +0.411 C 
ATOM     10  C   UNL     1      38.992 -25.904 -14.514  0.00  0.00    +0.126 C 
ENDROOT
TORSDOF 0
ENDMDL
MODEL 6
REMARK VINA RESULT:      -5.6      7.748      9.496
REMARK  Name = 5576
REMARK  0 active torsions:
REMARK  status: ('A' for Active; 'I' for Inactive)
REMARK                            x       y       z     vdW  Elec       q    Type
REMARK                         _______ _______ _______ _____ _____    ______ ____
ROOT
ATOM      1  O   UNL     1      37.929 -26.664 -14.392  0.00  0.00    -0.433 OA
ATOM      2  O   UNL     1      37.825 -23.226 -13.791  0.00  0.00    -0.271 OA
ATOM      3  O   UNL     1      36.202 -26.992 -15.843  0.00  0.00    -0.226 OA
ATOM      4  N   UNL     1      36.741 -24.891 -15.017  0.00  0.00    -0.191 N 
ATOM      5  C   UNL     1      38.522 -25.548 -13.705  0.00  0.00    +0.206 C 
ATOM      6  C   UNL     1      37.673 -24.383 -14.152  0.00  0.00    +0.270 C 
ATOM      7  C   UNL     1      39.963 -25.389 -14.162  0.00  0.00    +0.053 C 
ATOM      8  C   UNL     1      38.407 -25.768 -12.204  0.00  0.00    +0.053 C 
ATOM      9  C   UNL     1      36.880 -26.238 -15.157  0.00  0.00    +0.411 C 
ATOM     10  C   UNL     1      35.722 -24.107 -15.688  0.00  0.00    +0.126 C 
ENDROOT
TORSDOF 0
ENDMDL
MODEL 7
REMARK VINA RESULT:      -5.4      5.396      6.602
REMARK  Name = 5576
REMARK  0 active torsions:
REMARK  status: ('A' for Active; 'I' for Inactive)
REMARK                            x       y       z     vdW  Elec       q    Type
REMARK                         _______ _______ _______ _____ _____    ______ ____
ROOT
ATOM      1  O   UNL     1      32.677 -13.930 -25.185  0.00  0.00    -0.433 OA
ATOM      2  O   UNL     1      34.927 -14.750 -22.643  0.00  0.00    -0.271 OA
ATOM      3  O   UNL     1      32.830 -15.705 -26.608  0.00  0.00    -0.226 OA
ATOM      4  N   UNL     1      34.065 -15.583 -24.646  0.00  0.00    -0.191 N 
ATOM      5  C   UNL     1      33.269 -13.537 -23.934  0.00  0.00    +0.206 C 
ATOM      6  C   UNL     1      34.204 -14.680 -23.627  0.00  0.00    +0.270 C 
ATOM      7  C   UNL     1      32.178 -13.416 -22.882  0.00  0.00    +0.053 C 
ATOM      8  C   UNL     1      34.035 -12.237 -24.132  0.00  0.00    +0.053 C 
ATOM      9  C   UNL     1      33.171 -15.144 -25.575  0.00  0.00    +0.411 C 
ATOM     10  C   UNL     1      34.782 -16.839 -24.743  0.00  0.00    +0.126 C 
ENDROOT
TORSDOF 0
ENDMDL
MODEL 8
REMARK VINA RESULT:      -5.4     10.393     11.742
REMARK  Name = 5576
REMARK  0 active torsions:
REMARK  status: ('A' for Active; 'I' for Inactive)
REMARK                            x       y       z     vdW  Elec       q    Type
REMARK                         _______ _______ _______ _____ _____    ______ ____
ROOT
ATOM      1  O   UNL     1      33.142  -7.169 -21.507  0.00  0.00    -0.433 OA
ATOM      2  O   UNL     1      32.471  -9.627 -23.895  0.00  0.00    -0.271 OA
ATOM      3  O   UNL     1      32.326  -8.077 -19.582  0.00  0.00    -0.226 OA
ATOM      4  N   UNL     1      32.232  -9.196 -21.613  0.00  0.00    -0.191 N 
ATOM      5  C   UNL     1      33.247  -7.561 -22.887  0.00  0.00    +0.206 C 
ATOM      6  C   UNL     1      32.607  -8.927 -22.902  0.00  0.00    +0.270 C 
ATOM      7  C   UNL     1      34.716  -7.635 -23.275  0.00  0.00    +0.053 C 
ATOM      8  C   UNL     1      32.466  -6.578 -23.746  0.00  0.00    +0.053 C 
ATOM      9  C   UNL     1      32.537  -8.159 -20.785  0.00  0.00    +0.411 C 
ATOM     10  C   UNL     1      31.580 -10.415 -21.178  0.00  0.00    +0.126 C 
ENDROOT
TORSDOF 0
ENDMDL
MODEL 9
REMARK VINA RESULT:      -5.3     10.002     11.271
REMARK  Name = 5576
REMARK  0 active torsions:
REMARK  status: ('A' for Active; 'I' for Inactive)
REMARK                            x       y       z     vdW  Elec       q    Type
REMARK                         _______ _______ _______ _____ _____    ______ ____
ROOT
ATOM      1  O   UNL     1      31.855  -9.114 -22.650  0.00  0.00    -0.433 OA
ATOM      2  O   UNL     1      32.805  -7.457 -19.726  0.00  0.00    -0.271 OA
ATOM      3  O   UNL     1      31.206 -11.166 -21.898  0.00  0.00    -0.226 OA
ATOM      4  N   UNL     1      31.959  -9.504 -20.462  0.00  0.00    -0.191 N 
ATOM      5  C   UNL     1      32.355  -7.896 -22.069  0.00  0.00    +0.206 C 
ATOM      6  C   UNL     1      32.417  -8.222 -20.597  0.00  0.00    +0.270 C 
ATOM      7  C   UNL     1      31.370  -6.771 -22.345  0.00  0.00    +0.053 C 
ATOM      8  C   UNL     1      33.741  -7.609 -22.628  0.00  0.00    +0.053 C 
ATOM      9  C   UNL     1      31.633 -10.041 -21.670  0.00  0.00    +0.411 C 
ATOM     10  C   UNL     1      31.846 -10.214 -19.204  0.00  0.00    +0.126 C 
ENDROOT
TORSDOF 0
ENDMDL
