MODEL 1
REMARK VINA RESULT:      -6.5      0.000      0.000
REMARK  Name = 5314
REMARK  11 active torsions:
REMARK  status: ('A' for Active; 'I' for Inactive)
REMARK    1  A    between atoms: C_1  and  C_3
REMARK    2  A    between atoms: C_1  and  C_11
REMARK    3  A    between atoms: C_3  and  O_4
REMARK    4  A    between atoms: O_4  and  C_5
REMARK    5  A    between atoms: C_5  and  C_6
REMARK    6  A    between atoms: C_6  and  N_7
REMARK    7  A    between atoms: C_11  and  C_13
REMARK    8  A    between atoms: C_13  and  O_14
REMARK    9  A    between atoms: O_14  and  C_15
REMARK   10  A    between atoms: C_15  and  C_16
REMARK   11  A    between atoms: C_16  and  N_17
REMARK                            x       y       z     vdW  Elec       q    Type
REMARK                         _______ _______ _______ _____ _____    ______ ____
ROOT
ATOM      1  C   UNL     1      35.463 -22.390 -17.682  0.00  0.00    +0.121 C 
ENDROOT
BRANCH   1   3
ATOM      2  O   UNL     1      37.110 -20.622 -17.982  0.00  0.00    -0.250 OA
ATOM      3  C   UNL     1      36.782 -21.679 -17.463  0.00  0.00    +0.317 C 
BRANCH   3   4
ATOM      4  O   UNL     1      37.543 -22.417 -16.600  0.00  0.00    -0.451 OA
BRANCH   4   5
ATOM      5  C   UNL     1      36.830 -23.031 -15.521  0.00  0.00    +0.186 C 
BRANCH   5   6
ATOM      6  C   UNL     1      37.610 -24.228 -15.015  0.00  0.00    -0.025 C 
BRANCH   6   7
ATOM      7  N   UNL     1      36.662 -25.253 -14.511  0.00  0.00    +0.388 N 
ATOM      8  C   UNL     1      37.077 -26.656 -14.977  0.00  0.00    -0.096 C 
ATOM      9  C   UNL     1      35.242 -24.980 -15.025  0.00  0.00    -0.096 C 
ATOM     10  C   UNL     1      36.623 -25.253 -12.978  0.00  0.00    -0.096 C 
ENDBRANCH   6   7
ENDBRANCH   5   6
ENDBRANCH   4   5
ENDBRANCH   3   4
ENDBRANCH   1   3
BRANCH   1  11
ATOM     11  C   UNL     1      34.868 -22.120 -19.062  0.00  0.00    +0.121 C 
BRANCH  11  13
ATOM     12  O   UNL     1      32.580 -22.519 -18.334  0.00  0.00    -0.250 OA
ATOM     13  C   UNL     1      33.373 -21.891 -19.022  0.00  0.00    +0.317 C 
BRANCH  13  14
ATOM     14  O   UNL     1      33.059 -20.878 -19.882  0.00  0.00    -0.451 OA
BRANCH  14  15
ATOM     15  C   UNL     1      34.173 -20.259 -20.536  0.00  0.00    +0.186 C 
BRANCH  15  16
ATOM     16  C   UNL     1      33.729 -18.957 -21.172  0.00  0.00    -0.025 C 
BRANCH  16  17
ATOM     17  N   UNL     1      34.924 -18.190 -21.604  0.00  0.00    +0.388 N 
ATOM     18  C   UNL     1      34.990 -18.098 -23.134  0.00  0.00    -0.096 C 
ATOM     19  C   UNL     1      34.888 -16.763 -21.040  0.00  0.00    -0.096 C 
ATOM     20  C   UNL     1      36.212 -18.865 -21.111  0.00  0.00    -0.096 C 
ENDBRANCH  16  17
ENDBRANCH  15  16
ENDBRANCH  14  15
ENDBRANCH  13  14
ENDBRANCH  11  13
ENDBRANCH   1  11
TORSDOF 11
ENDMDL
MODEL 2
REMARK VINA RESULT:      -6.4      1.829      2.558
REMARK  Name = 5314
REMARK  11 active torsions:
REMARK  status: ('A' for Active; 'I' for Inactive)
REMARK    1  A    between atoms: C_1  and  C_3
REMARK    2  A    between atoms: C_1  and  C_11
REMARK    3  A    between atoms: C_3  and  O_4
REMARK    4  A    between atoms: O_4  and  C_5
REMARK    5  A    between atoms: C_5  and  C_6
REMARK    6  A    between atoms: C_6  and  N_7
REMARK    7  A    between atoms: C_11  and  C_13
REMARK    8  A    between atoms: C_13  and  O_14
REMARK    9  A    between atoms: O_14  and  C_15
REMARK   10  A    between atoms: C_15  and  C_16
REMARK   11  A    between atoms: C_16  and  N_17
REMARK                            x       y       z     vdW  Elec       q    Type
REMARK                         _______ _______ _______ _____ _____    ______ ____
ROOT
ATOM      1  C   UNL     1      33.211 -23.203 -16.825  0.00  0.00    +0.121 C 
ENDROOT
BRANCH   1   3
ATOM      2  O   UNL     1      33.510 -23.728 -14.467  0.00  0.00    -0.250 OA
ATOM      3  C   UNL     1      33.942 -23.735 -15.611  0.00  0.00    +0.317 C 
BRANCH   3   4
ATOM      4  O   UNL     1      35.161 -24.212 -16.003  0.00  0.00    -0.451 OA
BRANCH   4   5
ATOM      5  C   UNL     1      35.871 -24.971 -15.019  0.00  0.00    +0.186 C 
BRANCH   5   6
ATOM      6  C   UNL     1      37.157 -24.254 -14.656  0.00  0.00    -0.025 C 
BRANCH   6   7
ATOM      7  N   UNL     1      38.043 -25.184 -13.910  0.00  0.00    +0.388 N 
ATOM      8  C   UNL     1      39.343 -25.436 -14.684  0.00  0.00    -0.096 C 
ATOM      9  C   UNL     1      37.349 -26.535 -13.688  0.00  0.00    -0.096 C 
ATOM     10  C   UNL     1      38.409 -24.604 -12.538  0.00  0.00    -0.096 C 
ENDBRANCH   6   7
ENDBRANCH   5   6
ENDBRANCH   4   5
ENDBRANCH   3   4
ENDBRANCH   1   3
BRANCH   1  11
ATOM     11  C   UNL     1      34.155 -22.629 -17.879  0.00  0.00    +0.121 C 
BRANCH  11  13
ATOM     12  O   UNL     1      34.013 -24.117 -19.800  0.00  0.00    -0.250 OA
ATOM     13  C   UNL     1      33.776 -23.033 -19.288  0.00  0.00    +0.317 C 
BRANCH  13  14
ATOM     14  O   UNL     1      33.136 -21.986 -19.888  0.00  0.00    -0.451 OA
BRANCH  14  15
ATOM     15  C   UNL     1      33.847 -20.743 -19.879  0.00  0.00    +0.186 C 
BRANCH  15  16
ATOM     16  C   UNL     1      33.401 -19.894 -21.053  0.00  0.00    -0.025 C 
BRANCH  16  17
ATOM     17  N   UNL     1      34.553 -19.100 -21.549  0.00  0.00    +0.388 N 
ATOM     18  C   UNL     1      35.859 -19.563 -20.890  0.00  0.00    -0.096 C 
ATOM     19  C   UNL     1      34.704 -19.252 -23.069  0.00  0.00    -0.096 C 
ATOM     20  C   UNL     1      34.363 -17.609 -21.236  0.00  0.00    -0.096 C 
ENDBRANCH  16  17
ENDBRANCH  15  16
ENDBRANCH  14  15
ENDBRANCH  13  14
ENDBRANCH  11  13
ENDBRANCH   1  11
TORSDOF 11
ENDMDL
MODEL 3
REMARK VINA RESULT:      -6.4      0.584      8.218
REMARK  Name = 5314
REMARK  11 active torsions:
REMARK  status: ('A' for Active; 'I' for Inactive)
REMARK    1  A    between atoms: C_1  and  C_3
REMARK    2  A    between atoms: C_1  and  C_11
REMARK    3  A    between atoms: C_3  and  O_4
REMARK    4  A    between atoms: O_4  and  C_5
REMARK    5  A    between atoms: C_5  and  C_6
REMARK    6  A    between atoms: C_6  and  N_7
REMARK    7  A    between atoms: C_11  and  C_13
REMARK    8  A    between atoms: C_13  and  O_14
REMARK    9  A    between atoms: O_14  and  C_15
REMARK   10  A    between atoms: C_15  and  C_16
REMARK   11  A    between atoms: C_16  and  N_17
REMARK                            x       y       z     vdW  Elec       q    Type
REMARK                         _______ _______ _______ _____ _____    ______ ____
ROOT
ATOM      1  C   UNL     1      34.835 -22.113 -19.002  0.00  0.00    +0.121 C 
ENDROOT
BRANCH   1   3
ATOM      2  O   UNL     1      32.527 -22.443 -18.303  0.00  0.00    -0.250 OA
ATOM      3  C   UNL     1      33.342 -21.865 -19.009  0.00  0.00    +0.317 C 
BRANCH   3   4
ATOM      4  O   UNL     1      33.057 -20.902 -19.936  0.00  0.00    -0.451 OA
BRANCH   4   5
ATOM      5  C   UNL     1      34.193 -20.246 -20.510  0.00  0.00    +0.186 C 
BRANCH   5   6
ATOM      6  C   UNL     1      33.751 -18.956 -21.173  0.00  0.00    -0.025 C 
BRANCH   6   7
ATOM      7  N   UNL     1      34.896 -18.370 -21.915  0.00  0.00    +0.388 N 
ATOM      8  C   UNL     1      34.945 -18.907 -23.352  0.00  0.00    -0.096 C 
ATOM      9  C   UNL     1      36.224 -18.718 -21.230  0.00  0.00    -0.096 C 
ATOM     10  C   UNL     1      34.778 -16.842 -21.980  0.00  0.00    -0.096 C 
ENDBRANCH   6   7
ENDBRANCH   5   6
ENDBRANCH   4   5
ENDBRANCH   3   4
ENDBRANCH   1   3
BRANCH   1  11
ATOM     11  C   UNL     1      35.385 -22.373 -17.602  0.00  0.00    +0.121 C 
BRANCH  11  13
ATOM     12  O   UNL     1      37.094 -20.668 -17.918  0.00  0.00    -0.250 OA
ATOM     13  C   UNL     1      36.710 -21.684 -17.356  0.00  0.00    +0.317 C 
BRANCH  13  14
ATOM     14  O   UNL     1      37.403 -22.387 -16.411  0.00  0.00    -0.451 OA
BRANCH  14  15
ATOM     15  C   UNL     1      36.619 -23.279 -15.611  0.00  0.00    +0.186 C 
BRANCH  15  16
ATOM     16  C   UNL     1      37.441 -23.758 -14.431  0.00  0.00    -0.025 C 
BRANCH  16  17
ATOM     17  N   UNL     1      37.190 -25.205 -14.214  0.00  0.00    +0.388 N 
ATOM     18  C   UNL     1      36.072 -25.709 -15.136  0.00  0.00    -0.096 C 
ATOM     19  C   UNL     1      38.454 -26.026 -14.502  0.00  0.00    -0.096 C 
ATOM     20  C   UNL     1      36.769 -25.473 -12.762  0.00  0.00    -0.096 C 
ENDBRANCH  16  17
ENDBRANCH  15  16
ENDBRANCH  14  15
ENDBRANCH  13  14
ENDBRANCH  11  13
ENDBRANCH   1  11
TORSDOF 11
ENDMDL
MODEL 4
REMARK VINA RESULT:      -6.4      2.979      6.595
REMARK  Name = 5314
REMARK  11 active torsions:
REMARK  status: ('A' for Active; 'I' for Inactive)
REMARK    1  A    between atoms: C_1  and  C_3
REMARK    2  A    between atoms: C_1  and  C_11
REMARK    3  A    between atoms: C_3  and  O_4
REMARK    4  A    between atoms: O_4  and  C_5
REMARK    5  A    between atoms: C_5  and  C_6
REMARK    6  A    between atoms: C_6  and  N_7
REMARK    7  A    between atoms: C_11  and  C_13
REMARK    8  A    between atoms: C_13  and  O_14
REMARK    9  A    between atoms: O_14  and  C_15
REMARK   10  A    between atoms: C_15  and  C_16
REMARK   11  A    between atoms: C_16  and  N_17
REMARK                            x       y       z     vdW  Elec       q    Type
REMARK                         _______ _______ _______ _____ _____    ______ ____
ROOT
ATOM      1  C   UNL     1      34.586 -21.454 -19.405  0.00  0.00    +0.121 C 
ENDROOT
BRANCH   1   3
ATOM      2  O   UNL     1      34.031 -23.816 -19.598  0.00  0.00    -0.250 OA
ATOM      3  C   UNL     1      33.760 -22.701 -19.175  0.00  0.00    +0.317 C 
BRANCH   3   4
ATOM      4  O   UNL     1      32.663 -22.373 -18.429  0.00  0.00    -0.451 OA
BRANCH   4   5
ATOM      5  C   UNL     1      32.561 -23.030 -17.162  0.00  0.00    +0.186 C 
BRANCH   5   6
ATOM      6  C   UNL     1      31.130 -22.957 -16.665  0.00  0.00    -0.025 C 
BRANCH   6   7
ATOM      7  N   UNL     1      31.022 -23.678 -15.373  0.00  0.00    +0.388 N 
ATOM      8  C   UNL     1      30.223 -24.978 -15.538  0.00  0.00    -0.096 C 
ATOM      9  C   UNL     1      30.311 -22.811 -14.324  0.00  0.00    -0.096 C 
ATOM     10  C   UNL     1      32.412 -24.037 -14.831  0.00  0.00    -0.096 C 
ENDBRANCH   6   7
ENDBRANCH   5   6
ENDBRANCH   4   5
ENDBRANCH   3   4
ENDBRANCH   1   3
BRANCH   1  11
ATOM     11  C   UNL     1      36.087 -21.712 -19.305  0.00  0.00    +0.121 C 
BRANCH  11  13
ATOM     12  O   UNL     1      37.230 -20.593 -17.469  0.00  0.00    -0.250 OA
ATOM     13  C   UNL     1      36.615 -21.561 -17.894  0.00  0.00    +0.317 C 
BRANCH  13  14
ATOM     14  O   UNL     1      36.296 -22.683 -17.183  0.00  0.00    -0.451 OA
BRANCH  14  15
ATOM     15  C   UNL     1      37.010 -22.855 -15.954  0.00  0.00    +0.186 C 
BRANCH  15  16
ATOM     16  C   UNL     1      36.026 -23.041 -14.816  0.00  0.00    -0.025 C 
BRANCH  16  17
ATOM     17  N   UNL     1      36.314 -24.322 -14.124  0.00  0.00    +0.388 N 
ATOM     18  C   UNL     1      37.804 -24.429 -13.772  0.00  0.00    -0.096 C 
ATOM     19  C   UNL     1      35.506 -24.432 -12.823  0.00  0.00    -0.096 C 
ATOM     20  C   UNL     1      35.947 -25.518 -15.014  0.00  0.00    -0.096 C 
ENDBRANCH  16  17
ENDBRANCH  15  16
ENDBRANCH  14  15
ENDBRANCH  13  14
ENDBRANCH  11  13
ENDBRANCH   1  11
TORSDOF 11
ENDMDL
MODEL 5
REMARK VINA RESULT:      -6.4      1.505      8.269
REMARK  Name = 5314
REMARK  11 active torsions:
REMARK  status: ('A' for Active; 'I' for Inactive)
REMARK    1  A    between atoms: C_1  and  C_3
REMARK    2  A    between atoms: C_1  and  C_11
REMARK    3  A    between atoms: C_3  and  O_4
REMARK    4  A    between atoms: O_4  and  C_5
REMARK    5  A    between atoms: C_5  and  C_6
REMARK    6  A    between atoms: C_6  and  N_7
REMARK    7  A    between atoms: C_11  and  C_13
REMARK    8  A    between atoms: C_13  and  O_14
REMARK    9  A    between atoms: O_14  and  C_15
REMARK   10  A    between atoms: C_15  and  C_16
REMARK   11  A    between atoms: C_16  and  N_17
REMARK                            x       y       z     vdW  Elec       q    Type
REMARK                         _______ _______ _______ _____ _____    ______ ____
ROOT
ATOM      1  C   UNL     1      34.396 -22.262 -18.873  0.00  0.00    +0.121 C 
ENDROOT
BRANCH   1   3
ATOM      2  O   UNL     1      32.439 -20.897 -19.361  0.00  0.00    -0.250 OA
ATOM      3  C   UNL     1      33.621 -21.150 -19.548  0.00  0.00    +0.317 C 
BRANCH   3   4
ATOM      4  O   UNL     1      34.456 -20.486 -20.403  0.00  0.00    -0.451 OA
BRANCH   4   5
ATOM      5  C   UNL     1      33.809 -19.692 -21.403  0.00  0.00    +0.186 C 
BRANCH   5   6
ATOM      6  C   UNL     1      34.322 -18.267 -21.330  0.00  0.00    -0.025 C 
BRANCH   6   7
ATOM      7  N   UNL     1      35.205 -18.004 -22.493  0.00  0.00    +0.388 N 
ATOM      8  C   UNL     1      35.174 -16.518 -22.876  0.00  0.00    -0.096 C 
ATOM      9  C   UNL     1      34.757 -18.821 -23.713  0.00  0.00    -0.096 C 
ATOM     10  C   UNL     1      36.656 -18.383 -22.171  0.00  0.00    -0.096 C 
ENDBRANCH   6   7
ENDBRANCH   5   6
ENDBRANCH   4   5
ENDBRANCH   3   4
ENDBRANCH   1   3
BRANCH   1  11
ATOM     11  C   UNL     1      33.514 -23.151 -18.000  0.00  0.00    +0.121 C 
BRANCH  11  13
ATOM     12  O   UNL     1      33.354 -23.423 -15.586  0.00  0.00    -0.250 OA
ATOM     13  C   UNL     1      34.042 -23.296 -16.589  0.00  0.00    +0.317 C 
BRANCH  13  14
ATOM     14  O   UNL     1      35.407 -23.254 -16.624  0.00  0.00    -0.451 OA
BRANCH  14  15
ATOM     15  C   UNL     1      36.047 -22.991 -15.370  0.00  0.00    +0.186 C 
BRANCH  15  16
ATOM     16  C   UNL     1      37.325 -23.801 -15.272  0.00  0.00    -0.025 C 
BRANCH  16  17
ATOM     17  N   UNL     1      37.119 -24.929 -14.330  0.00  0.00    +0.388 N 
ATOM     18  C   UNL     1      35.923 -24.657 -13.407  0.00  0.00    -0.096 C 
ATOM     19  C   UNL     1      36.847 -26.233 -15.093  0.00  0.00    -0.096 C 
ATOM     20  C   UNL     1      38.361 -25.140 -13.453  0.00  0.00    -0.096 C 
ENDBRANCH  16  17
ENDBRANCH  15  16
ENDBRANCH  14  15
ENDBRANCH  13  14
ENDBRANCH  11  13
ENDBRANCH   1  11
TORSDOF 11
ENDMDL
MODEL 6
REMARK VINA RESULT:      -6.3      5.363      6.842
REMARK  Name = 5314
REMARK  11 active torsions:
REMARK  status: ('A' for Active; 'I' for Inactive)
REMARK    1  A    between atoms: C_1  and  C_3
REMARK    2  A    between atoms: C_1  and  C_11
REMARK    3  A    between atoms: C_3  and  O_4
REMARK    4  A    between atoms: O_4  and  C_5
REMARK    5  A    between atoms: C_5  and  C_6
REMARK    6  A    between atoms: C_6  and  N_7
REMARK    7  A    between atoms: C_11  and  C_13
REMARK    8  A    between atoms: C_13  and  O_14
REMARK    9  A    between atoms: O_14  and  C_15
REMARK   10  A    between atoms: C_15  and  C_16
REMARK   11  A    between atoms: C_16  and  N_17
REMARK                            x       y       z     vdW  Elec       q    Type
REMARK                         _______ _______ _______ _____ _____    ______ ____
ROOT
ATOM      1  C   UNL     1      35.359 -23.743 -12.247  0.00  0.00    +0.121 C 
ENDROOT
BRANCH   1   3
ATOM      2  O   UNL     1      35.270 -25.098 -10.226  0.00  0.00    -0.250 OA
ATOM      3  C   UNL     1      35.924 -24.464 -11.042  0.00  0.00    +0.317 C 
BRANCH   3   4
ATOM      4  O   UNL     1      37.278 -24.280 -11.012  0.00  0.00    -0.451 OA
BRANCH   4   5
ATOM      5  C   UNL     1      37.892 -24.022 -12.279  0.00  0.00    +0.186 C 
BRANCH   5   6
ATOM      6  C   UNL     1      38.631 -25.260 -12.746  0.00  0.00    -0.025 C 
BRANCH   6   7
ATOM      7  N   UNL     1      38.524 -25.366 -14.223  0.00  0.00    +0.388 N 
ATOM      8  C   UNL     1      39.909 -25.546 -14.859  0.00  0.00    -0.096 C 
ATOM      9  C   UNL     1      37.887 -24.101 -14.815  0.00  0.00    -0.096 C 
ATOM     10  C   UNL     1      37.656 -26.568 -14.621  0.00  0.00    -0.096 C 
ENDBRANCH   6   7
ENDBRANCH   5   6
ENDBRANCH   4   5
ENDBRANCH   3   4
ENDBRANCH   1   3
BRANCH   1  11
ATOM     11  C   UNL     1      34.598 -24.674 -13.189  0.00  0.00    +0.121 C 
BRANCH  11  13
ATOM     12  O   UNL     1      33.550 -23.203 -14.821  0.00  0.00    -0.250 OA
ATOM     13  C   UNL     1      33.445 -23.985 -13.887  0.00  0.00    +0.317 C 
BRANCH  13  14
ATOM     14  O   UNL     1      32.276 -24.378 -13.299  0.00  0.00    -0.451 OA
BRANCH  14  15
ATOM     15  C   UNL     1      31.194 -24.643 -14.197  0.00  0.00    +0.186 C 
BRANCH  15  16
ATOM     16  C   UNL     1      30.238 -23.466 -14.203  0.00  0.00    -0.025 C 
BRANCH  16  17
ATOM     17  N   UNL     1      29.634 -23.332 -15.552  0.00  0.00    +0.388 N 
ATOM     18  C   UNL     1      30.670 -22.826 -16.565  0.00  0.00    -0.096 C 
ATOM     19  C   UNL     1      29.101 -24.683 -16.047  0.00  0.00    -0.096 C 
ATOM     20  C   UNL     1      28.464 -22.338 -15.528  0.00  0.00    -0.096 C 
ENDBRANCH  16  17
ENDBRANCH  15  16
ENDBRANCH  14  15
ENDBRANCH  13  14
ENDBRANCH  11  13
ENDBRANCH   1  11
TORSDOF 11
ENDMDL
MODEL 7
REMARK VINA RESULT:      -6.3      1.909      3.219
REMARK  Name = 5314
REMARK  11 active torsions:
REMARK  status: ('A' for Active; 'I' for Inactive)
REMARK    1  A    between atoms: C_1  and  C_3
REMARK    2  A    between atoms: C_1  and  C_11
REMARK    3  A    between atoms: C_3  and  O_4
REMARK    4  A    between atoms: O_4  and  C_5
REMARK    5  A    between atoms: C_5  and  C_6
REMARK    6  A    between atoms: C_6  and  N_7
REMARK    7  A    between atoms: C_11  and  C_13
REMARK    8  A    between atoms: C_13  and  O_14
REMARK    9  A    between atoms: O_14  and  C_15
REMARK   10  A    between atoms: C_15  and  C_16
REMARK   11  A    between atoms: C_16  and  N_17
REMARK                            x       y       z     vdW  Elec       q    Type
REMARK                         _______ _______ _______ _____ _____    ______ ____
ROOT
ATOM      1  C   UNL     1      34.853 -21.657 -19.473  0.00  0.00    +0.121 C 
ENDROOT
BRANCH   1   3
ATOM      2  O   UNL     1      32.664 -22.344 -18.658  0.00  0.00    -0.250 OA
ATOM      3  C   UNL     1      33.883 -22.416 -18.593  0.00  0.00    +0.317 C 
BRANCH   3   4
ATOM      4  O   UNL     1      34.593 -23.184 -17.713  0.00  0.00    -0.451 OA
BRANCH   4   5
ATOM      5  C   UNL     1      34.103 -23.192 -16.368  0.00  0.00    +0.186 C 
BRANCH   5   6
ATOM      6  C   UNL     1      35.241 -22.900 -15.411  0.00  0.00    -0.025 C 
BRANCH   6   7
ATOM      7  N   UNL     1      35.273 -23.942 -14.354  0.00  0.00    +0.388 N 
ATOM      8  C   UNL     1      36.121 -23.483 -13.160  0.00  0.00    -0.096 C 
ATOM      9  C   UNL     1      35.876 -25.246 -14.894  0.00  0.00    -0.096 C 
ATOM     10  C   UNL     1      33.858 -24.245 -13.845  0.00  0.00    -0.096 C 
ENDBRANCH   6   7
ENDBRANCH   5   6
ENDBRANCH   4   5
ENDBRANCH   3   4
ENDBRANCH   1   3
BRANCH   1  11
ATOM     11  C   UNL     1      34.189 -20.513 -20.235  0.00  0.00    +0.121 C 
BRANCH  11  13
ATOM     12  O   UNL     1      36.254 -19.238 -20.424  0.00  0.00    -0.250 OA
ATOM     13  C   UNL     1      35.190 -19.597 -20.907  0.00  0.00    +0.317 C 
BRANCH  13  14
ATOM     14  O   UNL     1      34.703 -19.236 -22.131  0.00  0.00    -0.451 OA
BRANCH  14  15
ATOM     15  C   UNL     1      34.717 -17.832 -22.409  0.00  0.00    +0.186 C 
BRANCH  15  16
ATOM     16  C   UNL     1      33.960 -17.092 -21.323  0.00  0.00    -0.025 C 
BRANCH  16  17
ATOM     17  N   UNL     1      33.952 -15.640 -21.634  0.00  0.00    +0.388 N 
ATOM     18  C   UNL     1      32.515 -15.105 -21.701  0.00  0.00    -0.096 C 
ATOM     19  C   UNL     1      34.707 -14.849 -20.557  0.00  0.00    -0.096 C 
ATOM     20  C   UNL     1      34.627 -15.368 -22.985  0.00  0.00    -0.096 C 
ENDBRANCH  16  17
ENDBRANCH  15  16
ENDBRANCH  14  15
ENDBRANCH  13  14
ENDBRANCH  11  13
ENDBRANCH   1  11
TORSDOF 11
ENDMDL
MODEL 8
REMARK VINA RESULT:      -6.3      6.371     11.620
REMARK  Name = 5314
REMARK  11 active torsions:
REMARK  status: ('A' for Active; 'I' for Inactive)
REMARK    1  A    between atoms: C_1  and  C_3
REMARK    2  A    between atoms: C_1  and  C_11
REMARK    3  A    between atoms: C_3  and  O_4
REMARK    4  A    between atoms: O_4  and  C_5
REMARK    5  A    between atoms: C_5  and  C_6
REMARK    6  A    between atoms: C_6  and  N_7
REMARK    7  A    between atoms: C_11  and  C_13
REMARK    8  A    between atoms: C_13  and  O_14
REMARK    9  A    between atoms: O_14  and  C_15
REMARK   10  A    between atoms: C_15  and  C_16
REMARK   11  A    between atoms: C_16  and  N_17
REMARK                            x       y       z     vdW  Elec       q    Type
REMARK                         _______ _______ _______ _____ _____    ______ ____
ROOT
ATOM      1  C   UNL     1      32.937 -13.946 -23.675  0.00  0.00    +0.121 C 
ENDROOT
BRANCH   1   3
ATOM      2  O   UNL     1      32.211 -15.128 -21.674  0.00  0.00    -0.250 OA
ATOM      3  C   UNL     1      32.419 -14.074 -22.259  0.00  0.00    +0.317 C 
BRANCH   3   4
ATOM      4  O   UNL     1      32.214 -12.822 -21.749  0.00  0.00    -0.451 OA
BRANCH   4   5
ATOM      5  C   UNL     1      32.249 -11.756 -22.703  0.00  0.00    +0.186 C 
BRANCH   5   6
ATOM      6  C   UNL     1      31.415 -10.595 -22.197  0.00  0.00    -0.025 C 
BRANCH   6   7
ATOM      7  N   UNL     1      32.095  -9.319 -22.532  0.00  0.00    +0.388 N 
ATOM      8  C   UNL     1      32.509  -8.571 -21.258  0.00  0.00    -0.096 C 
ATOM      9  C   UNL     1      31.167  -8.405 -23.344  0.00  0.00    -0.096 C 
ATOM     10  C   UNL     1      33.357  -9.578 -23.365  0.00  0.00    -0.096 C 
ENDBRANCH   6   7
ENDBRANCH   5   6
ENDBRANCH   4   5
ENDBRANCH   3   4
ENDBRANCH   1   3
BRANCH   1  11
ATOM     11  C   UNL     1      34.108 -14.883 -23.963  0.00  0.00    +0.121 C 
BRANCH  11  13
ATOM     12  O   UNL     1      33.208 -15.576 -26.117  0.00  0.00    -0.250 OA
ATOM     13  C   UNL     1      33.821 -15.847 -25.095  0.00  0.00    +0.317 C 
BRANCH  13  14
ATOM     14  O   UNL     1      34.355 -17.065 -24.780  0.00  0.00    -0.451 OA
BRANCH  14  15
ATOM     15  C   UNL     1      35.086 -17.118 -23.550  0.00  0.00    +0.186 C 
BRANCH  15  16
ATOM     16  C   UNL     1      35.128 -18.546 -23.045  0.00  0.00    -0.025 C 
BRANCH  16  17
ATOM     17  N   UNL     1      35.115 -18.541 -21.561  0.00  0.00    +0.388 N 
ATOM     18  C   UNL     1      33.941 -19.370 -21.023  0.00  0.00    -0.096 C 
ATOM     19  C   UNL     1      36.415 -19.137 -21.003  0.00  0.00    -0.096 C 
ATOM     20  C   UNL     1      34.976 -17.111 -21.022  0.00  0.00    -0.096 C 
ENDBRANCH  16  17
ENDBRANCH  15  16
ENDBRANCH  14  15
ENDBRANCH  13  14
ENDBRANCH  11  13
ENDBRANCH   1  11
TORSDOF 11
ENDMDL
MODEL 9
REMARK VINA RESULT:      -6.2      6.716     12.333
REMARK  Name = 5314
REMARK  11 active torsions:
REMARK  status: ('A' for Active; 'I' for Inactive)
REMARK    1  A    between atoms: C_1  and  C_3
REMARK    2  A    between atoms: C_1  and  C_11
REMARK    3  A    between atoms: C_3  and  O_4
REMARK    4  A    between atoms: O_4  and  C_5
REMARK    5  A    between atoms: C_5  and  C_6
REMARK    6  A    between atoms: C_6  and  N_7
REMARK    7  A    between atoms: C_11  and  C_13
REMARK    8  A    between atoms: C_13  and  O_14
REMARK    9  A    between atoms: O_14  and  C_15
REMARK   10  A    between atoms: C_15  and  C_16
REMARK   11  A    between atoms: C_16  and  N_17
REMARK                            x       y       z     vdW  Elec       q    Type
REMARK                         _______ _______ _______ _____ _____    ______ ____
ROOT
ATOM      1  C   UNL     1      32.855 -13.832 -24.509  0.00  0.00    +0.121 C 
ENDROOT
BRANCH   1   3
ATOM      2  O   UNL     1      33.752 -12.220 -26.098  0.00  0.00    -0.250 OA
ATOM      3  C   UNL     1      33.527 -12.546 -24.941  0.00  0.00    +0.317 C 
BRANCH   3   4
ATOM      4  O   UNL     1      33.848 -11.820 -23.828  0.00  0.00    -0.451 OA
BRANCH   4   5
ATOM      5  C   UNL     1      33.554 -10.421 -23.901  0.00  0.00    +0.186 C 
BRANCH   5   6
ATOM      6  C   UNL     1      32.505 -10.068 -22.865  0.00  0.00    -0.025 C 
BRANCH   6   7
ATOM      7  N   UNL     1      32.505  -8.599 -22.648  0.00  0.00    +0.388 N 
ATOM      8  C   UNL     1      33.852  -7.988 -23.054  0.00  0.00    -0.096 C 
ATOM      9  C   UNL     1      32.256  -8.268 -21.170  0.00  0.00    -0.096 C 
ATOM     10  C   UNL     1      31.405  -7.926 -23.480  0.00  0.00    -0.096 C 
ENDBRANCH   6   7
ENDBRANCH   5   6
ENDBRANCH   4   5
ENDBRANCH   3   4
ENDBRANCH   1   3
BRANCH   1  11
ATOM     11  C   UNL     1      33.831 -15.000 -24.394  0.00  0.00    +0.121 C 
BRANCH  11  13
ATOM     12  O   UNL     1      33.256 -15.655 -26.667  0.00  0.00    -0.250 OA
ATOM     13  C   UNL     1      33.794 -15.914 -25.600  0.00  0.00    +0.317 C 
BRANCH  13  14
ATOM     14  O   UNL     1      34.453 -17.072 -25.295  0.00  0.00    -0.451 OA
BRANCH  14  15
ATOM     15  C   UNL     1      34.998 -17.138 -23.973  0.00  0.00    +0.186 C 
BRANCH  15  16
ATOM     16  C   UNL     1      34.836 -18.543 -23.427  0.00  0.00    -0.025 C 
BRANCH  16  17
ATOM     17  N   UNL     1      34.814 -18.493 -21.944  0.00  0.00    +0.388 N 
ATOM     18  C   UNL     1      36.223 -18.693 -21.370  0.00  0.00    -0.096 C 
ATOM     19  C   UNL     1      34.285 -17.138 -21.453  0.00  0.00    -0.096 C 
ATOM     20  C   UNL     1      33.907 -19.593 -21.375  0.00  0.00    -0.096 C 
ENDBRANCH  16  17
ENDBRANCH  15  16
ENDBRANCH  14  15
ENDBRANCH  13  14
ENDBRANCH  11  13
ENDBRANCH   1  11
TORSDOF 11
ENDMDL
