MODEL 1
REMARK VINA RESULT:      -9.9      0.000      0.000
REMARK  Name = 148184
REMARK  1 active torsions:
REMARK  status: ('A' for Active; 'I' for Inactive)
REMARK    1  A    between atoms: C_3  and  C_18
REMARK                            x       y       z     vdW  Elec       q    Type
REMARK                         _______ _______ _______ _____ _____    ______ ____
ROOT
ATOM      1  N   UNL     1      33.129 -20.888 -20.109  0.00  0.00    -0.245 NA
ATOM      2  N   UNL     1      35.697 -21.526 -19.260  0.00  0.00    -0.245 NA
ATOM      3  C   UNL     1      35.095 -18.376 -21.881  0.00  0.00    +0.033 C 
ATOM      4  C   UNL     1      34.013 -19.119 -21.422  0.00  0.00    +0.078 C 
ATOM      5  C   UNL     1      36.376 -18.690 -21.460  0.00  0.00    -0.019 C 
ATOM      6  C   UNL     1      34.189 -20.182 -20.540  0.00  0.00    +0.077 C 
ATOM      7  C   UNL     1      35.489 -20.506 -20.111  0.00  0.00    +0.077 C 
ATOM      8  C   UNL     1      36.565 -19.753 -20.578  0.00  0.00    +0.073 C 
ATOM      9  C   UNL     1      33.358 -21.905 -19.259  0.00  0.00    +0.119 C 
ATOM     10  C   UNL     1      34.623 -22.219 -18.840  0.00  0.00    +0.119 C 
ENDROOT
BRANCH   3  18
ATOM     11  O   UNL     1      35.029 -17.511 -24.004  0.00  0.00    -0.270 OA
ATOM     12  N   UNL     1      34.539 -16.015 -22.276  0.00  0.00    -0.276 N 
ATOM     13  C   UNL     1      32.789 -13.988 -21.198  0.00  0.00    +0.004 C 
ATOM     14  C   UNL     1      32.933 -14.200 -22.706  0.00  0.00    +0.022 C 
ATOM     15  C   UNL     1      33.093 -15.274 -20.430  0.00  0.00    +0.022 C 
ATOM     16  C   UNL     1      34.298 -14.789 -23.049  0.00  0.00    +0.094 C 
ATOM     17  C   UNL     1      34.452 -15.848 -20.825  0.00  0.00    +0.094 C 
ATOM     18  C   UNL     1      34.881 -17.260 -22.810  0.00  0.00    +0.245 C 
ENDBRANCH   3  18
TORSDOF 1
ENDMDL
MODEL 2
REMARK VINA RESULT:      -9.7      1.841      6.114
REMARK  Name = 148184
REMARK  1 active torsions:
REMARK  status: ('A' for Active; 'I' for Inactive)
REMARK    1  A    between atoms: C_3  and  C_18
REMARK                            x       y       z     vdW  Elec       q    Type
REMARK                         _______ _______ _______ _____ _____    ______ ____
ROOT
ATOM      1  N   UNL     1      34.091 -16.424 -25.387  0.00  0.00    -0.245 NA
ATOM      2  N   UNL     1      33.320 -14.310 -23.757  0.00  0.00    -0.245 NA
ATOM      3  C   UNL     1      35.244 -17.596 -22.130  0.00  0.00    +0.033 C 
ATOM      4  C   UNL     1      34.981 -17.546 -23.495  0.00  0.00    +0.078 C 
ATOM      5  C   UNL     1      34.862 -16.545 -21.314  0.00  0.00    -0.019 C 
ATOM      6  C   UNL     1      34.336 -16.452 -24.065  0.00  0.00    +0.077 C 
ATOM      7  C   UNL     1      33.945 -15.382 -23.240  0.00  0.00    +0.077 C 
ATOM      8  C   UNL     1      34.215 -15.445 -21.874  0.00  0.00    +0.073 C 
ATOM      9  C   UNL     1      33.464 -15.343 -25.885  0.00  0.00    +0.119 C 
ATOM     10  C   UNL     1      33.084 -14.301 -25.082  0.00  0.00    +0.119 C 
ENDROOT
BRANCH   3  18
ATOM     11  O   UNL     1      37.148 -18.676 -21.440  0.00  0.00    -0.270 OA
ATOM     12  N   UNL     1      35.151 -19.867 -21.195  0.00  0.00    -0.276 N 
ATOM     13  C   UNL     1      33.422 -21.451 -19.512  0.00  0.00    +0.004 C 
ATOM     14  C   UNL     1      34.937 -21.439 -19.312  0.00  0.00    +0.022 C 
ATOM     15  C   UNL     1      32.940 -20.151 -20.156  0.00  0.00    +0.022 C 
ATOM     16  C   UNL     1      35.660 -21.119 -20.617  0.00  0.00    +0.094 C 
ATOM     17  C   UNL     1      33.709 -19.851 -21.441  0.00  0.00    +0.094 C 
ATOM     18  C   UNL     1      35.927 -18.762 -21.554  0.00  0.00    +0.245 C 
ENDBRANCH   3  18
TORSDOF 1
ENDMDL
MODEL 3
REMARK VINA RESULT:      -9.4      0.936      1.795
REMARK  Name = 148184
REMARK  1 active torsions:
REMARK  status: ('A' for Active; 'I' for Inactive)
REMARK    1  A    between atoms: C_3  and  C_18
REMARK                            x       y       z     vdW  Elec       q    Type
REMARK                         _______ _______ _______ _____ _____    ______ ____
ROOT
ATOM      1  N   UNL     1      36.646 -20.684 -19.397  0.00  0.00    -0.245 NA
ATOM      2  N   UNL     1      34.155 -21.840 -18.970  0.00  0.00    -0.245 NA
ATOM      3  C   UNL     1      34.599 -18.835 -21.785  0.00  0.00    +0.033 C 
ATOM      4  C   UNL     1      35.696 -19.270 -21.050  0.00  0.00    +0.078 C 
ATOM      5  C   UNL     1      33.356 -19.408 -21.576  0.00  0.00    -0.019 C 
ATOM      6  C   UNL     1      35.572 -20.279 -20.098  0.00  0.00    +0.077 C 
ATOM      7  C   UNL     1      34.311 -20.863 -19.881  0.00  0.00    +0.077 C 
ATOM      8  C   UNL     1      33.220 -20.418 -20.625  0.00  0.00    +0.073 C 
ATOM      9  C   UNL     1      36.469 -21.662 -18.490  0.00  0.00    +0.119 C 
ATOM     10  C   UNL     1      35.242 -22.232 -18.280  0.00  0.00    +0.119 C 
ENDROOT
BRANCH   3  18
ATOM     11  O   UNL     1      35.158 -18.118 -23.891  0.00  0.00    -0.270 OA
ATOM     12  N   UNL     1      34.455 -16.460 -22.401  0.00  0.00    -0.276 N 
ATOM     13  C   UNL     1      32.764 -14.180 -21.874  0.00  0.00    +0.004 C 
ATOM     14  C   UNL     1      33.241 -14.511 -23.288  0.00  0.00    +0.022 C 
ATOM     15  C   UNL     1      32.710 -15.436 -21.003  0.00  0.00    +0.022 C 
ATOM     16  C   UNL     1      34.564 -15.271 -23.258  0.00  0.00    +0.094 C 
ATOM     17  C   UNL     1      34.041 -16.184 -21.024  0.00  0.00    +0.094 C 
ATOM     18  C   UNL     1      34.757 -17.769 -22.783  0.00  0.00    +0.245 C 
ENDBRANCH   3  18
TORSDOF 1
ENDMDL
MODEL 4
REMARK VINA RESULT:      -9.4      1.499      5.929
REMARK  Name = 148184
REMARK  1 active torsions:
REMARK  status: ('A' for Active; 'I' for Inactive)
REMARK    1  A    between atoms: C_3  and  C_18
REMARK                            x       y       z     vdW  Elec       q    Type
REMARK                         _______ _______ _______ _____ _____    ______ ____
ROOT
ATOM      1  N   UNL     1      33.379 -14.986 -20.740  0.00  0.00    -0.245 NA
ATOM      2  N   UNL     1      33.398 -14.634 -23.497  0.00  0.00    -0.245 NA
ATOM      3  C   UNL     1      35.340 -17.875 -21.800  0.00  0.00    +0.033 C 
ATOM      4  C   UNL     1      34.676 -16.958 -20.992  0.00  0.00    +0.078 C 
ATOM      5  C   UNL     1      35.352 -17.704 -23.174  0.00  0.00    -0.019 C 
ATOM      6  C   UNL     1      34.016 -15.861 -21.539  0.00  0.00    +0.077 C 
ATOM      7  C   UNL     1      34.025 -15.683 -22.934  0.00  0.00    +0.077 C 
ATOM      8  C   UNL     1      34.695 -16.609 -23.732  0.00  0.00    +0.073 C 
ATOM      9  C   UNL     1      32.758 -13.944 -21.322  0.00  0.00    +0.119 C 
ATOM     10  C   UNL     1      32.767 -13.771 -22.680  0.00  0.00    +0.119 C 
ENDROOT
BRANCH   3  18
ATOM     11  O   UNL     1      37.242 -18.904 -21.033  0.00  0.00    -0.270 OA
ATOM     12  N   UNL     1      35.269 -20.148 -20.869  0.00  0.00    -0.276 N 
ATOM     13  C   UNL     1      33.515 -21.779 -19.257  0.00  0.00    +0.004 C 
ATOM     14  C   UNL     1      35.021 -21.727 -18.996  0.00  0.00    +0.022 C 
ATOM     15  C   UNL     1      33.026 -20.492 -19.921  0.00  0.00    +0.022 C 
ATOM     16  C   UNL     1      35.787 -21.387 -20.271  0.00  0.00    +0.094 C 
ATOM     17  C   UNL     1      33.838 -20.170 -21.173  0.00  0.00    +0.094 C 
ATOM     18  C   UNL     1      36.029 -19.023 -21.197  0.00  0.00    +0.245 C 
ENDBRANCH   3  18
TORSDOF 1
ENDMDL
MODEL 5
REMARK VINA RESULT:      -8.4      3.882      6.274
REMARK  Name = 148184
REMARK  1 active torsions:
REMARK  status: ('A' for Active; 'I' for Inactive)
REMARK    1  A    between atoms: C_3  and  C_18
REMARK                            x       y       z     vdW  Elec       q    Type
REMARK                         _______ _______ _______ _____ _____    ______ ____
ROOT
ATOM      1  N   UNL     1      34.951 -16.573 -22.842  0.00  0.00    -0.245 NA
ATOM      2  N   UNL     1      34.274 -17.228 -25.456  0.00  0.00    -0.245 NA
ATOM      3  C   UNL     1      33.210 -13.544 -23.892  0.00  0.00    +0.033 C 
ATOM      4  C   UNL     1      33.908 -14.459 -23.111  0.00  0.00    +0.078 C 
ATOM      5  C   UNL     1      32.871 -13.865 -25.195  0.00  0.00    -0.019 C 
ATOM      6  C   UNL     1      34.277 -15.703 -23.614  0.00  0.00    +0.077 C 
ATOM      7  C   UNL     1      33.934 -16.035 -24.938  0.00  0.00    +0.077 C 
ATOM      8  C   UNL     1      33.235 -15.108 -25.709  0.00  0.00    +0.073 C 
ATOM      9  C   UNL     1      35.282 -17.762 -23.379  0.00  0.00    +0.119 C 
ATOM     10  C   UNL     1      34.948 -18.084 -24.668  0.00  0.00    +0.119 C 
ENDROOT
BRANCH   3  18
ATOM     11  O   UNL     1      32.175 -12.259 -22.297  0.00  0.00    -0.270 OA
ATOM     12  N   UNL     1      33.235 -11.090 -24.021  0.00  0.00    -0.276 N 
ATOM     13  C   UNL     1      35.034  -8.977 -24.819  0.00  0.00    +0.004 C 
ATOM     14  C   UNL     1      34.229  -8.893 -23.522  0.00  0.00    +0.022 C 
ATOM     15  C   UNL     1      35.277 -10.431 -25.223  0.00  0.00    +0.022 C 
ATOM     16  C   UNL     1      32.942  -9.706 -23.621  0.00  0.00    +0.094 C 
ATOM     17  C   UNL     1      33.969 -11.217 -25.281  0.00  0.00    +0.094 C 
ATOM     18  C   UNL     1      32.833 -12.238 -23.335  0.00  0.00    +0.245 C 
ENDBRANCH   3  18
TORSDOF 1
ENDMDL
MODEL 6
REMARK VINA RESULT:      -8.3      8.897     12.681
REMARK  Name = 148184
REMARK  1 active torsions:
REMARK  status: ('A' for Active; 'I' for Inactive)
REMARK    1  A    between atoms: C_3  and  C_18
REMARK                            x       y       z     vdW  Elec       q    Type
REMARK                         _______ _______ _______ _____ _____    ______ ____
ROOT
ATOM      1  N   UNL     1      30.829  -4.559 -23.904  0.00  0.00    -0.245 NA
ATOM      2  N   UNL     1      32.882  -5.158 -25.678  0.00  0.00    -0.245 NA
ATOM      3  C   UNL     1      32.674  -7.075 -22.013  0.00  0.00    +0.033 C 
ATOM      4  C   UNL     1      31.716  -6.129 -22.361  0.00  0.00    +0.078 C 
ATOM      5  C   UNL     1      33.698  -7.377 -22.893  0.00  0.00    -0.019 C 
ATOM      6  C   UNL     1      31.764  -5.471 -23.587  0.00  0.00    +0.077 C 
ATOM      7  C   UNL     1      32.804  -5.774 -24.485  0.00  0.00    +0.077 C 
ATOM      8  C   UNL     1      33.757  -6.725 -24.123  0.00  0.00    +0.073 C 
ATOM      9  C   UNL     1      30.924  -3.954 -25.101  0.00  0.00    +0.119 C 
ATOM     10  C   UNL     1      31.936  -4.249 -25.976  0.00  0.00    +0.119 C 
ENDROOT
BRANCH   3  18
ATOM     11  O   UNL     1      32.788  -7.051 -19.721  0.00  0.00    -0.270 OA
ATOM     12  N   UNL     1      32.333  -9.125 -20.700  0.00  0.00    -0.276 N 
ATOM     13  C   UNL     1      30.701 -11.505 -20.777  0.00  0.00    +0.004 C 
ATOM     14  C   UNL     1      30.904 -10.718 -19.482  0.00  0.00    +0.022 C 
ATOM     15  C   UNL     1      30.859 -10.602 -22.001  0.00  0.00    +0.022 C 
ATOM     16  C   UNL     1      32.233  -9.967 -19.499  0.00  0.00    +0.094 C 
ATOM     17  C   UNL     1      32.185  -9.846 -21.965  0.00  0.00    +0.094 C 
ATOM     18  C   UNL     1      32.599  -7.754 -20.712  0.00  0.00    +0.245 C 
ENDBRANCH   3  18
TORSDOF 1
ENDMDL
MODEL 7
REMARK VINA RESULT:      -8.1      6.812      9.994
REMARK  Name = 148184
REMARK  1 active torsions:
REMARK  status: ('A' for Active; 'I' for Inactive)
REMARK    1  A    between atoms: C_3  and  C_18
REMARK                            x       y       z     vdW  Elec       q    Type
REMARK                         _______ _______ _______ _____ _____    ______ ____
ROOT
ATOM      1  N   UNL     1      31.938 -12.500 -22.403  0.00  0.00    -0.245 NA
ATOM      2  N   UNL     1      33.987 -12.310 -24.270  0.00  0.00    -0.245 NA
ATOM      3  C   UNL     1      32.526  -8.900 -22.430  0.00  0.00    +0.033 C 
ATOM      4  C   UNL     1      31.993 -10.145 -22.116  0.00  0.00    +0.078 C 
ATOM      5  C   UNL     1      33.547  -8.800 -23.359  0.00  0.00    -0.019 C 
ATOM      6  C   UNL     1      32.467 -11.306 -22.721  0.00  0.00    +0.077 C 
ATOM      7  C   UNL     1      33.505 -11.209 -23.666  0.00  0.00    +0.077 C 
ATOM      8  C   UNL     1      34.030  -9.955 -23.971  0.00  0.00    +0.073 C 
ATOM      9  C   UNL     1      32.433 -13.589 -23.019  0.00  0.00    +0.119 C 
ATOM     10  C   UNL     1      33.444 -13.495 -23.939  0.00  0.00    +0.119 C 
ENDROOT
BRANCH   3  18
ATOM     11  O   UNL     1      32.229  -7.587 -20.572  0.00  0.00    -0.270 OA
ATOM     12  N   UNL     1      31.303  -6.772 -22.558  0.00  0.00    -0.276 N 
ATOM     13  C   UNL     1      30.965  -4.570 -24.394  0.00  0.00    +0.004 C 
ATOM     14  C   UNL     1      31.202  -4.336 -22.902  0.00  0.00    +0.022 C 
ATOM     15  C   UNL     1      31.562  -5.904 -24.844  0.00  0.00    +0.022 C 
ATOM     16  C   UNL     1      30.705  -5.519 -22.075  0.00  0.00    +0.094 C 
ATOM     17  C   UNL     1      31.065  -7.056 -23.973  0.00  0.00    +0.094 C 
ATOM     18  C   UNL     1      32.007  -7.691 -21.776  0.00  0.00    +0.245 C 
ENDBRANCH   3  18
TORSDOF 1
ENDMDL
MODEL 8
REMARK VINA RESULT:      -8.1      3.525      5.921
REMARK  Name = 148184
REMARK  1 active torsions:
REMARK  status: ('A' for Active; 'I' for Inactive)
REMARK    1  A    between atoms: C_3  and  C_18
REMARK                            x       y       z     vdW  Elec       q    Type
REMARK                         _______ _______ _______ _____ _____    ______ ____
ROOT
ATOM      1  N   UNL     1      34.590 -15.984 -21.001  0.00  0.00    -0.245 NA
ATOM      2  N   UNL     1      34.679 -17.019 -23.579  0.00  0.00    -0.245 NA
ATOM      3  C   UNL     1      32.947 -13.322 -22.880  0.00  0.00    +0.033 C 
ATOM      4  C   UNL     1      33.487 -14.051 -21.826  0.00  0.00    +0.078 C 
ATOM      5  C   UNL     1      32.990 -13.833 -24.166  0.00  0.00    -0.019 C 
ATOM      6  C   UNL     1      34.074 -15.295 -22.035  0.00  0.00    +0.077 C 
ATOM      7  C   UNL     1      34.119 -15.820 -23.340  0.00  0.00    +0.077 C 
ATOM      8  C   UNL     1      33.575 -15.079 -24.387  0.00  0.00    +0.073 C 
ATOM      9  C   UNL     1      35.145 -17.182 -21.261  0.00  0.00    +0.119 C 
ATOM     10  C   UNL     1      35.189 -17.692 -22.531  0.00  0.00    +0.119 C 
ENDROOT
BRANCH   3  18
ATOM     11  O   UNL     1      31.457 -11.977 -21.769  0.00  0.00    -0.270 OA
ATOM     12  N   UNL     1      32.776 -10.923 -23.386  0.00  0.00    -0.276 N 
ATOM     13  C   UNL     1      34.509  -8.727 -24.099  0.00  0.00    +0.004 C 
ATOM     14  C   UNL     1      33.421  -8.573 -23.036  0.00  0.00    +0.022 C 
ATOM     15  C   UNL     1      34.972 -10.179 -24.208  0.00  0.00    +0.022 C 
ATOM     16  C   UNL     1      32.272  -9.547 -23.281  0.00  0.00    +0.094 C 
ATOM     17  C   UNL     1      33.791 -11.124 -24.421  0.00  0.00    +0.094 C 
ATOM     18  C   UNL     1      32.333 -12.011 -22.631  0.00  0.00    +0.245 C 
ENDBRANCH   3  18
TORSDOF 1
ENDMDL
MODEL 9
REMARK VINA RESULT:      -8.0      3.238      7.227
REMARK  Name = 148184
REMARK  1 active torsions:
REMARK  status: ('A' for Active; 'I' for Inactive)
REMARK    1  A    between atoms: C_3  and  C_18
REMARK                            x       y       z     vdW  Elec       q    Type
REMARK                         _______ _______ _______ _____ _____    ______ ____
ROOT
ATOM      1  N   UNL     1      33.687 -19.405 -21.265  0.00  0.00    -0.245 NA
ATOM      2  N   UNL     1      36.421 -18.944 -21.446  0.00  0.00    -0.245 NA
ATOM      3  C   UNL     1      34.968 -21.866 -18.895  0.00  0.00    +0.033 C 
ATOM      4  C   UNL     1      34.089 -21.111 -19.665  0.00  0.00    +0.078 C 
ATOM      5  C   UNL     1      36.331 -21.640 -18.982  0.00  0.00    -0.019 C 
ATOM      6  C   UNL     1      34.553 -20.123 -20.529  0.00  0.00    +0.077 C 
ATOM      7  C   UNL     1      35.937 -19.890 -20.621  0.00  0.00    +0.077 C 
ATOM      8  C   UNL     1      36.807 -20.654 -19.844  0.00  0.00    +0.073 C 
ATOM      9  C   UNL     1      34.190 -18.463 -22.083  0.00  0.00    +0.119 C 
ATOM     10  C   UNL     1      35.537 -18.236 -22.172  0.00  0.00    +0.119 C 
ENDROOT
BRANCH   3  18
ATOM     11  O   UNL     1      33.558 -23.618 -18.440  0.00  0.00    -0.270 OA
ATOM     12  N   UNL     1      34.996 -22.986 -16.708  0.00  0.00    -0.276 N 
ATOM     13  C   UNL     1      36.911 -23.762 -14.692  0.00  0.00    +0.004 C 
ATOM     14  C   UNL     1      35.812 -24.717 -15.159  0.00  0.00    +0.022 C 
ATOM     15  C   UNL     1      37.262 -22.751 -15.783  0.00  0.00    +0.022 C 
ATOM     16  C   UNL     1      34.597 -23.947 -15.670  0.00  0.00    +0.094 C 
ATOM     17  C   UNL     1      36.018 -22.026 -16.290  0.00  0.00    +0.094 C 
ATOM     18  C   UNL     1      34.451 -22.901 -17.991  0.00  0.00    +0.245 C 
ENDBRANCH   3  18
TORSDOF 1
ENDMDL
