MODEL 1
REMARK VINA RESULT:     -10.4      0.000      0.000
REMARK  Name = 5546
REMARK  1 active torsions:
REMARK  status: ('A' for Active; 'I' for Inactive)
REMARK    1  A    between atoms: C_7  and  C_17
REMARK                            x       y       z     vdW  Elec       q    Type
REMARK                         _______ _______ _______ _____ _____    ______ ____
ROOT
ATOM      1  N   UNL     1      34.463 -16.654 -23.012  0.00  0.00    -0.382 NA
ATOM      2  N   UNL     1      34.217 -17.595 -25.603  0.00  0.00    -0.320 NA
ATOM      3  N   UNL     1      33.591 -15.486 -26.325  0.00  0.00    -0.259 NA
ATOM      4  N   UNL     1      33.437 -13.651 -24.788  0.00  0.00    -0.310 NA
ATOM      5  N   UNL     1      34.856 -19.761 -24.875  0.00  0.00    -0.330 N 
ATOM      6  N   UNL     1      32.955 -13.350 -27.059  0.00  0.00    -0.283 N 
ATOM      7  C   UNL     1      34.711 -17.939 -23.310  0.00  0.00    +0.177 C 
ATOM      8  C   UNL     1      34.091 -15.847 -24.024  0.00  0.00    +0.261 C 
ATOM      9  C   UNL     1      33.962 -16.308 -25.336  0.00  0.00    +0.186 C 
ATOM     10  C   UNL     1      34.589 -18.403 -24.590  0.00  0.00    +0.219 C 
ATOM     11  C   UNL     1      33.813 -14.509 -23.822  0.00  0.00    +0.232 C 
ATOM     12  C   UNL     1      33.347 -14.202 -26.004  0.00  0.00    +0.208 C 
ATOM     13  H   UNL     1      34.769 -20.097 -25.796  0.00  0.00    +0.145 HD
ATOM     14  H   UNL     1      35.130 -20.370 -24.152  0.00  0.00    +0.145 HD
ATOM     15  H   UNL     1      32.874 -13.705 -27.974  0.00  0.00    +0.156 HD
ATOM     16  H   UNL     1      32.765 -12.401 -26.881  0.00  0.00    +0.156 HD
ATOM     17  N   UNL     1      33.931 -13.997 -22.503  0.00  0.00    -0.329 N 
ATOM     18  H   UNL     1      33.741 -13.049 -22.325  0.00  0.00    +0.145 HD
ATOM     19  H   UNL     1      34.204 -14.592 -21.767  0.00  0.00    +0.145 HD
ENDROOT
BRANCH   7  20
ATOM     20  C   UNL     1      35.106 -18.758 -22.189  0.00  0.00    +0.034 C 
ATOM     21  C   UNL     1      36.428 -18.742 -21.742  0.00  0.00    +0.003 C 
ATOM     22  C   UNL     1      34.166 -19.568 -21.548  0.00  0.00    +0.003 C 
ATOM     23  C   UNL     1      36.810 -19.534 -20.659  0.00  0.00    +0.000 C 
ATOM     24  C   UNL     1      34.548 -20.360 -20.465  0.00  0.00    +0.000 C 
ATOM     25  C   UNL     1      35.870 -20.344 -20.020  0.00  0.00    +0.000 C 
ENDBRANCH   7  20
TORSDOF 1
ENDMDL
MODEL 2
REMARK VINA RESULT:     -10.0      1.414      2.189
REMARK  Name = 5546
REMARK  1 active torsions:
REMARK  status: ('A' for Active; 'I' for Inactive)
REMARK    1  A    between atoms: C_7  and  C_17
REMARK                            x       y       z     vdW  Elec       q    Type
REMARK                         _______ _______ _______ _____ _____    ______ ____
ROOT
ATOM      1  N   UNL     1      34.027 -17.147 -21.395  0.00  0.00    -0.382 NA
ATOM      2  N   UNL     1      34.645 -17.235 -24.092  0.00  0.00    -0.320 NA
ATOM      3  N   UNL     1      34.179 -14.975 -24.287  0.00  0.00    -0.259 NA
ATOM      4  N   UNL     1      33.471 -13.693 -22.387  0.00  0.00    -0.310 NA
ATOM      5  N   UNL     1      35.123 -19.551 -23.906  0.00  0.00    -0.330 N 
ATOM      6  N   UNL     1      33.709 -12.685 -24.486  0.00  0.00    -0.283 N 
ATOM      7  C   UNL     1      34.414 -18.291 -21.982  0.00  0.00    +0.177 C 
ATOM      8  C   UNL     1      33.953 -16.050 -22.173  0.00  0.00    +0.261 C 
ATOM      9  C   UNL     1      34.261 -16.079 -23.535  0.00  0.00    +0.186 C 
ATOM     10  C   UNL     1      34.718 -18.333 -23.315  0.00  0.00    +0.219 C 
ATOM     11  C   UNL     1      33.566 -14.825 -21.666  0.00  0.00    +0.232 C 
ATOM     12  C   UNL     1      33.790 -13.839 -23.678  0.00  0.00    +0.208 C 
ATOM     13  H   UNL     1      35.342 -19.584 -24.864  0.00  0.00    +0.145 HD
ATOM     14  H   UNL     1      35.184 -20.367 -23.357  0.00  0.00    +0.145 HD
ATOM     15  H   UNL     1      33.932 -12.738 -25.444  0.00  0.00    +0.156 HD
ATOM     16  H   UNL     1      33.429 -11.827 -24.094  0.00  0.00    +0.156 HD
ATOM     17  N   UNL     1      33.243 -14.748 -20.286  0.00  0.00    -0.329 N 
ATOM     18  H   UNL     1      32.963 -13.891 -19.892  0.00  0.00    +0.145 HD
ATOM     19  H   UNL     1      33.299 -15.554 -19.721  0.00  0.00    +0.145 HD
ENDROOT
BRANCH   7  20
ATOM     20  C   UNL     1      34.476 -19.434 -21.103  0.00  0.00    +0.034 C 
ATOM     21  C   UNL     1      33.299 -20.043 -20.663  0.00  0.00    +0.003 C 
ATOM     22  C   UNL     1      35.713 -19.935 -20.691  0.00  0.00    +0.003 C 
ATOM     23  C   UNL     1      33.359 -21.148 -19.814  0.00  0.00    +0.000 C 
ATOM     24  C   UNL     1      35.773 -21.040 -19.842  0.00  0.00    +0.000 C 
ATOM     25  C   UNL     1      34.596 -21.647 -19.403  0.00  0.00    +0.000 C 
ENDBRANCH   7  20
TORSDOF 1
ENDMDL
MODEL 3
REMARK VINA RESULT:      -9.5      9.186     12.442
REMARK  Name = 5546
REMARK  1 active torsions:
REMARK  status: ('A' for Active; 'I' for Inactive)
REMARK    1  A    between atoms: C_7  and  C_17
REMARK                            x       y       z     vdW  Elec       q    Type
REMARK                         _______ _______ _______ _____ _____    ______ ____
ROOT
ATOM      1  N   UNL     1      35.803 -24.913 -15.379  0.00  0.00    -0.382 NA
ATOM      2  N   UNL     1      37.858 -23.066 -15.527  0.00  0.00    -0.320 NA
ATOM      3  N   UNL     1      39.377 -24.680 -14.858  0.00  0.00    -0.259 NA
ATOM      4  N   UNL     1      38.667 -26.923 -14.388  0.00  0.00    -0.310 NA
ATOM      5  N   UNL     1      36.312 -21.401 -16.212  0.00  0.00    -0.330 N 
ATOM      6  N   UNL     1      40.918 -26.315 -14.179  0.00  0.00    -0.283 N 
ATOM      7  C   UNL     1      35.570 -23.644 -15.748  0.00  0.00    +0.177 C 
ATOM      8  C   UNL     1      37.074 -25.246 -15.085  0.00  0.00    +0.261 C 
ATOM      9  C   UNL     1      38.122 -24.324 -15.155  0.00  0.00    +0.186 C 
ATOM     10  C   UNL     1      36.586 -22.731 -15.820  0.00  0.00    +0.219 C 
ATOM     11  C   UNL     1      37.419 -26.525 -14.695  0.00  0.00    +0.232 C 
ATOM     12  C   UNL     1      39.588 -25.958 -14.490  0.00  0.00    +0.208 C 
ATOM     13  H   UNL     1      37.042 -20.744 -16.265  0.00  0.00    +0.145 HD
ATOM     14  H   UNL     1      35.391 -21.134 -16.432  0.00  0.00    +0.145 HD
ATOM     15  H   UNL     1      41.635 -25.642 -14.238  0.00  0.00    +0.156 HD
ATOM     16  H   UNL     1      41.129 -27.236 -13.905  0.00  0.00    +0.156 HD
ATOM     17  N   UNL     1      36.385 -27.495 -14.610  0.00  0.00    -0.329 N 
ATOM     18  H   UNL     1      36.596 -28.416 -14.336  0.00  0.00    +0.145 HD
ATOM     19  H   UNL     1      35.457 -27.246 -14.826  0.00  0.00    +0.145 HD
ENDROOT
BRANCH   7  20
ATOM     20  C   UNL     1      34.192 -23.341 -16.051  0.00  0.00    +0.034 C 
ATOM     21  C   UNL     1      33.807 -23.075 -17.366  0.00  0.00    +0.003 C 
ATOM     22  C   UNL     1      33.239 -23.315 -15.030  0.00  0.00    +0.003 C 
ATOM     23  C   UNL     1      32.475 -22.782 -17.659  0.00  0.00    +0.000 C 
ATOM     24  C   UNL     1      31.907 -23.022 -15.323  0.00  0.00    +0.000 C 
ATOM     25  C   UNL     1      31.524 -22.756 -16.638  0.00  0.00    +0.000 C 
ENDBRANCH   7  20
TORSDOF 1
ENDMDL
MODEL 4
REMARK VINA RESULT:      -9.2      2.181      6.275
REMARK  Name = 5546
REMARK  1 active torsions:
REMARK  status: ('A' for Active; 'I' for Inactive)
REMARK    1  A    between atoms: C_7  and  C_17
REMARK                            x       y       z     vdW  Elec       q    Type
REMARK                         _______ _______ _______ _____ _____    ______ ____
ROOT
ATOM      1  N   UNL     1      34.094 -14.660 -23.548  0.00  0.00    -0.382 NA
ATOM      2  N   UNL     1      33.599 -15.594 -26.106  0.00  0.00    -0.320 NA
ATOM      3  N   UNL     1      34.237 -17.726 -25.467  0.00  0.00    -0.259 NA
ATOM      4  N   UNL     1      34.947 -18.180 -23.221  0.00  0.00    -0.310 NA
ATOM      5  N   UNL     1      32.945 -13.414 -26.775  0.00  0.00    -0.330 N 
ATOM      6  N   UNL     1      34.883 -19.888 -24.821  0.00  0.00    -0.283 N 
ATOM      7  C   UNL     1      33.653 -13.839 -24.514  0.00  0.00    +0.177 C 
ATOM      8  C   UNL     1      34.285 -15.952 -23.878  0.00  0.00    +0.261 C 
ATOM      9  C   UNL     1      34.040 -16.438 -25.164  0.00  0.00    +0.186 C 
ATOM     10  C   UNL     1      33.409 -14.301 -25.778  0.00  0.00    +0.219 C 
ATOM     11  C   UNL     1      34.736 -16.878 -22.957  0.00  0.00    +0.232 C 
ATOM     12  C   UNL     1      34.680 -18.532 -24.484  0.00  0.00    +0.208 C 
ATOM     13  H   UNL     1      32.769 -13.745 -27.685  0.00  0.00    +0.145 HD
ATOM     14  H   UNL     1      32.798 -12.465 -26.558  0.00  0.00    +0.145 HD
ATOM     15  H   UNL     1      34.702 -20.200 -25.737  0.00  0.00    +0.156 HD
ATOM     16  H   UNL     1      35.206 -20.522 -24.141  0.00  0.00    +0.156 HD
ATOM     17  N   UNL     1      34.999 -16.428 -21.636  0.00  0.00    -0.329 N 
ATOM     18  H   UNL     1      35.321 -17.061 -20.956  0.00  0.00    +0.145 HD
ATOM     19  H   UNL     1      34.857 -15.482 -21.401  0.00  0.00    +0.145 HD
ENDROOT
BRANCH   7  20
ATOM     20  C   UNL     1      33.466 -12.467 -24.107  0.00  0.00    +0.034 C 
ATOM     21  C   UNL     1      32.524 -12.150 -23.127  0.00  0.00    +0.003 C 
ATOM     22  C   UNL     1      34.227 -11.453 -24.692  0.00  0.00    +0.003 C 
ATOM     23  C   UNL     1      32.343 -10.824 -22.734  0.00  0.00    +0.000 C 
ATOM     24  C   UNL     1      34.046 -10.126 -24.299  0.00  0.00    +0.000 C 
ATOM     25  C   UNL     1      33.104  -9.811 -23.320  0.00  0.00    +0.000 C 
ENDBRANCH   7  20
TORSDOF 1
ENDMDL
MODEL 5
REMARK VINA RESULT:      -9.1      2.843      4.755
REMARK  Name = 5546
REMARK  1 active torsions:
REMARK  status: ('A' for Active; 'I' for Inactive)
REMARK    1  A    between atoms: C_7  and  C_17
REMARK                            x       y       z     vdW  Elec       q    Type
REMARK                         _______ _______ _______ _____ _____    ______ ____
ROOT
ATOM      1  N   UNL     1      33.933 -13.444 -23.708  0.00  0.00    -0.382 NA
ATOM      2  N   UNL     1      32.034 -13.151 -21.716  0.00  0.00    -0.320 NA
ATOM      3  N   UNL     1      31.848 -10.895 -22.206  0.00  0.00    -0.259 NA
ATOM      4  N   UNL     1      33.158  -9.900 -23.951  0.00  0.00    -0.310 NA
ATOM      5  N   UNL     1      32.217 -15.460 -21.202  0.00  0.00    -0.330 N 
ATOM      6  N   UNL     1      31.657  -8.610 -22.701  0.00  0.00    -0.283 N 
ATOM      7  C   UNL     1      33.545 -14.488 -22.959  0.00  0.00    +0.177 C 
ATOM      8  C   UNL     1      33.361 -12.253 -23.447  0.00  0.00    +0.261 C 
ATOM      9  C   UNL     1      32.402 -12.090 -22.445  0.00  0.00    +0.186 C 
ATOM     10  C   UNL     1      32.607 -14.343 -21.975  0.00  0.00    +0.219 C 
ATOM     11  C   UNL     1      33.691 -11.117 -24.161  0.00  0.00    +0.232 C 
ATOM     12  C   UNL     1      32.251  -9.862 -22.968  0.00  0.00    +0.208 C 
ATOM     13  H   UNL     1      31.543 -15.357 -20.494  0.00  0.00    +0.145 HD
ATOM     14  H   UNL     1      32.622 -16.341 -21.374  0.00  0.00    +0.145 HD
ATOM     15  H   UNL     1      30.983  -8.526 -21.987  0.00  0.00    +0.156 HD
ATOM     16  H   UNL     1      31.915  -7.819 -23.228  0.00  0.00    +0.156 HD
ATOM     17  N   UNL     1      34.662 -11.236 -25.189  0.00  0.00    -0.329 N 
ATOM     18  H   UNL     1      34.920 -10.447 -25.716  0.00  0.00    +0.145 HD
ATOM     19  H   UNL     1      35.077 -12.110 -25.376  0.00  0.00    +0.145 HD
ENDROOT
BRANCH   7  20
ATOM     20  C   UNL     1      34.190 -15.740 -23.280  0.00  0.00    +0.034 C 
ATOM     21  C   UNL     1      34.060 -16.286 -24.559  0.00  0.00    +0.003 C 
ATOM     22  C   UNL     1      34.945 -16.407 -22.314  0.00  0.00    +0.003 C 
ATOM     23  C   UNL     1      34.683 -17.495 -24.869  0.00  0.00    +0.000 C 
ATOM     24  C   UNL     1      35.567 -17.616 -22.624  0.00  0.00    +0.000 C 
ATOM     25  C   UNL     1      35.436 -18.161 -23.901  0.00  0.00    +0.000 C 
ENDBRANCH   7  20
TORSDOF 1
ENDMDL
MODEL 6
REMARK VINA RESULT:      -8.9      7.163     10.632
REMARK  Name = 5546
REMARK  1 active torsions:
REMARK  status: ('A' for Active; 'I' for Inactive)
REMARK    1  A    between atoms: C_7  and  C_17
REMARK                            x       y       z     vdW  Elec       q    Type
REMARK                         _______ _______ _______ _____ _____    ______ ____
ROOT
ATOM      1  N   UNL     1      35.785 -22.596 -17.223  0.00  0.00    -0.382 NA
ATOM      2  N   UNL     1      33.579 -23.788 -16.051  0.00  0.00    -0.320 NA
ATOM      3  N   UNL     1      34.932 -24.722 -14.421  0.00  0.00    -0.259 NA
ATOM      4  N   UNL     1      37.300 -24.337 -14.413  0.00  0.00    -0.310 NA
ATOM      5  N   UNL     1      32.182 -22.839 -17.718  0.00  0.00    -0.330 N 
ATOM      6  N   UNL     1      36.301 -25.669 -12.767  0.00  0.00    -0.283 N 
ATOM      7  C   UNL     1      34.555 -22.435 -17.736  0.00  0.00    +0.177 C 
ATOM      8  C   UNL     1      35.897 -23.359 -16.119  0.00  0.00    +0.261 C 
ATOM      9  C   UNL     1      34.794 -23.967 -15.518  0.00  0.00    +0.186 C 
ATOM     10  C   UNL     1      33.465 -23.025 -17.156  0.00  0.00    +0.219 C 
ATOM     11  C   UNL     1      37.118 -23.587 -15.515  0.00  0.00    +0.232 C 
ATOM     12  C   UNL     1      36.174 -24.870 -13.923  0.00  0.00    +0.208 C 
ATOM     13  H   UNL     1      31.397 -23.262 -17.302  0.00  0.00    +0.145 HD
ATOM     14  H   UNL     1      32.075 -22.285 -18.525  0.00  0.00    +0.145 HD
ATOM     15  H   UNL     1      35.503 -26.085 -12.366  0.00  0.00    +0.156 HD
ATOM     16  H   UNL     1      37.186 -25.811 -12.361  0.00  0.00    +0.156 HD
ATOM     17  N   UNL     1      38.269 -22.988 -16.093  0.00  0.00    -0.329 N 
ATOM     18  H   UNL     1      39.153 -23.129 -15.687  0.00  0.00    +0.145 HD
ATOM     19  H   UNL     1      38.180 -22.430 -16.900  0.00  0.00    +0.145 HD
ENDROOT
BRANCH   7  20
ATOM     20  C   UNL     1      34.491 -21.608 -18.917  0.00  0.00    +0.034 C 
ATOM     21  C   UNL     1      33.254 -21.225 -19.437  0.00  0.00    +0.003 C 
ATOM     22  C   UNL     1      35.667 -21.189 -19.543  0.00  0.00    +0.003 C 
ATOM     23  C   UNL     1      33.193 -20.426 -20.580  0.00  0.00    +0.000 C 
ATOM     24  C   UNL     1      35.606 -20.391 -20.685  0.00  0.00    +0.000 C 
ATOM     25  C   UNL     1      34.369 -20.009 -21.204  0.00  0.00    +0.000 C 
ENDBRANCH   7  20
TORSDOF 1
ENDMDL
MODEL 7
REMARK VINA RESULT:      -8.8      7.280     10.050
REMARK  Name = 5546
REMARK  1 active torsions:
REMARK  status: ('A' for Active; 'I' for Inactive)
REMARK    1  A    between atoms: C_7  and  C_17
REMARK                            x       y       z     vdW  Elec       q    Type
REMARK                         _______ _______ _______ _____ _____    ______ ____
ROOT
ATOM      1  N   UNL     1      35.851 -23.114 -16.292  0.00  0.00    -0.382 NA
ATOM      2  N   UNL     1      33.127 -23.605 -16.274  0.00  0.00    -0.320 NA
ATOM      3  N   UNL     1      32.897 -22.483 -18.287  0.00  0.00    -0.259 NA
ATOM      4  N   UNL     1      34.798 -21.515 -19.384  0.00  0.00    -0.310 NA
ATOM      5  N   UNL     1      33.349 -24.755 -14.211  0.00  0.00    -0.330 N 
ATOM      6  N   UNL     1      32.662 -21.347 -20.326  0.00  0.00    -0.283 N 
ATOM      7  C   UNL     1      35.275 -23.794 -15.289  0.00  0.00    +0.177 C 
ATOM      8  C   UNL     1      35.049 -22.682 -17.284  0.00  0.00    +0.261 C 
ATOM      9  C   UNL     1      33.673 -22.922 -17.289  0.00  0.00    +0.186 C 
ATOM     10  C   UNL     1      33.929 -24.036 -15.280  0.00  0.00    +0.219 C 
ATOM     11  C   UNL     1      35.543 -21.974 -18.362  0.00  0.00    +0.232 C 
ATOM     12  C   UNL     1      33.495 -21.803 -19.283  0.00  0.00    +0.208 C 
ATOM     13  H   UNL     1      32.381 -24.930 -14.203  0.00  0.00    +0.145 HD
ATOM     14  H   UNL     1      33.915 -25.080 -13.474  0.00  0.00    +0.145 HD
ATOM     15  H   UNL     1      31.694 -21.532 -20.301  0.00  0.00    +0.156 HD
ATOM     16  H   UNL     1      33.046 -20.844 -21.080  0.00  0.00    +0.156 HD
ATOM     17  N   UNL     1      36.937 -21.707 -18.400  0.00  0.00    -0.329 N 
ATOM     18  H   UNL     1      37.322 -21.204 -19.153  0.00  0.00    +0.145 HD
ATOM     19  H   UNL     1      37.519 -22.024 -17.671  0.00  0.00    +0.145 HD
ENDROOT
BRANCH   7  20
ATOM     20  C   UNL     1      36.179 -24.232 -14.253  0.00  0.00    +0.034 C 
ATOM     21  C   UNL     1      36.458 -23.398 -13.169  0.00  0.00    +0.003 C 
ATOM     22  C   UNL     1      36.778 -25.491 -14.332  0.00  0.00    +0.003 C 
ATOM     23  C   UNL     1      37.333 -23.821 -12.168  0.00  0.00    +0.000 C 
ATOM     24  C   UNL     1      37.653 -25.915 -13.331  0.00  0.00    +0.000 C 
ATOM     25  C   UNL     1      37.930 -25.080 -12.249  0.00  0.00    +0.000 C 
ENDBRANCH   7  20
TORSDOF 1
ENDMDL
MODEL 8
REMARK VINA RESULT:      -8.8      9.147     11.748
REMARK  Name = 5546
REMARK  1 active torsions:
REMARK  status: ('A' for Active; 'I' for Inactive)
REMARK    1  A    between atoms: C_7  and  C_17
REMARK                            x       y       z     vdW  Elec       q    Type
REMARK                         _______ _______ _______ _____ _____    ______ ____
ROOT
ATOM      1  N   UNL     1      33.155 -23.931 -14.789  0.00  0.00    -0.382 NA
ATOM      2  N   UNL     1      34.476 -23.127 -17.084  0.00  0.00    -0.320 NA
ATOM      3  N   UNL     1      36.514 -23.613 -16.098  0.00  0.00    -0.259 NA
ATOM      4  N   UNL     1      36.630 -24.474 -13.863  0.00  0.00    -0.310 NA
ATOM      5  N   UNL     1      32.394 -22.622 -18.104  0.00  0.00    -0.330 N 
ATOM      6  N   UNL     1      38.581 -24.105 -15.102  0.00  0.00    -0.283 N 
ATOM      7  C   UNL     1      32.479 -23.486 -15.859  0.00  0.00    +0.177 C 
ATOM      8  C   UNL     1      34.498 -23.969 -14.881  0.00  0.00    +0.261 C 
ATOM      9  C   UNL     1      35.178 -23.566 -16.032  0.00  0.00    +0.186 C 
ATOM     10  C   UNL     1      33.132 -23.088 -16.993  0.00  0.00    +0.219 C 
ATOM     11  C   UNL     1      35.286 -24.411 -13.836  0.00  0.00    +0.232 C 
ATOM     12  C   UNL     1      37.173 -24.063 -15.014  0.00  0.00    +0.208 C 
ATOM     13  H   UNL     1      32.863 -22.336 -18.921  0.00  0.00    +0.145 HD
ATOM     14  H   UNL     1      31.412 -22.586 -18.061  0.00  0.00    +0.145 HD
ATOM     15  H   UNL     1      39.032 -23.813 -15.928  0.00  0.00    +0.156 HD
ATOM     16  H   UNL     1      39.113 -24.426 -14.338  0.00  0.00    +0.156 HD
ATOM     17  N   UNL     1      34.636 -24.831 -12.645  0.00  0.00    -0.329 N 
ATOM     18  H   UNL     1      35.167 -25.152 -11.882  0.00  0.00    +0.145 HD
ATOM     19  H   UNL     1      33.654 -24.802 -12.584  0.00  0.00    +0.145 HD
ENDROOT
BRANCH   7  20
ATOM     20  C   UNL     1      31.043 -23.466 -15.707  0.00  0.00    +0.034 C 
ATOM     21  C   UNL     1      30.297 -24.618 -15.961  0.00  0.00    +0.003 C 
ATOM     22  C   UNL     1      30.397 -22.295 -15.304  0.00  0.00    +0.003 C 
ATOM     23  C   UNL     1      28.910 -24.599 -15.814  0.00  0.00    +0.000 C 
ATOM     24  C   UNL     1      29.010 -22.276 -15.157  0.00  0.00    +0.000 C 
ATOM     25  C   UNL     1      28.266 -23.428 -15.412  0.00  0.00    +0.000 C 
ENDBRANCH   7  20
TORSDOF 1
ENDMDL
MODEL 9
REMARK VINA RESULT:      -8.8      3.809      7.199
REMARK  Name = 5546
REMARK  1 active torsions:
REMARK  status: ('A' for Active; 'I' for Inactive)
REMARK    1  A    between atoms: C_7  and  C_17
REMARK                            x       y       z     vdW  Elec       q    Type
REMARK                         _______ _______ _______ _____ _____    ______ ____
ROOT
ATOM      1  N   UNL     1      34.559 -19.868 -21.252  0.00  0.00    -0.382 NA
ATOM      2  N   UNL     1      37.136 -19.903 -20.243  0.00  0.00    -0.320 NA
ATOM      3  N   UNL     1      36.478 -21.365 -18.573  0.00  0.00    -0.259 NA
ATOM      4  N   UNL     1      34.208 -22.128 -18.424  0.00  0.00    -0.310 NA
ATOM      5  N   UNL     1      37.823 -18.403 -21.949  0.00  0.00    -0.330 N 
ATOM      6  N   UNL     1      35.813 -22.847 -16.879  0.00  0.00    -0.283 N 
ATOM      7  C   UNL     1      35.538 -19.151 -21.825  0.00  0.00    +0.177 C 
ATOM      8  C   UNL     1      34.884 -20.601 -20.170  0.00  0.00    +0.261 C 
ATOM      9  C   UNL     1      36.180 -20.628 -19.650  0.00  0.00    +0.186 C 
ATOM     10  C   UNL     1      36.811 -19.168 -21.326  0.00  0.00    +0.219 C 
ATOM     11  C   UNL     1      33.950 -21.374 -19.508  0.00  0.00    +0.232 C 
ATOM     12  C   UNL     1      35.481 -22.077 -18.014  0.00  0.00    +0.208 C 
ATOM     13  H   UNL     1      38.739 -18.415 -21.591  0.00  0.00    +0.145 HD
ATOM     14  H   UNL     1      37.609 -17.860 -22.741  0.00  0.00    +0.145 HD
ATOM     15  H   UNL     1      36.736 -22.845 -16.536  0.00  0.00    +0.156 HD
ATOM     16  H   UNL     1      35.123 -23.387 -16.431  0.00  0.00    +0.156 HD
ATOM     17  N   UNL     1      32.619 -21.377 -20.003  0.00  0.00    -0.329 N 
ATOM     18  H   UNL     1      31.929 -21.916 -19.555  0.00  0.00    +0.145 HD
ATOM     19  H   UNL     1      32.387 -20.839 -20.794  0.00  0.00    +0.145 HD
ENDROOT
BRANCH   7  20
ATOM     20  C   UNL     1      35.135 -18.385 -22.980  0.00  0.00    +0.034 C 
ATOM     21  C   UNL     1      34.772 -19.036 -24.160  0.00  0.00    +0.003 C 
ATOM     22  C   UNL     1      35.107 -16.990 -22.920  0.00  0.00    +0.003 C 
ATOM     23  C   UNL     1      34.383 -18.295 -25.276  0.00  0.00    +0.000 C 
ATOM     24  C   UNL     1      34.717 -16.249 -24.036  0.00  0.00    +0.000 C 
ATOM     25  C   UNL     1      34.355 -16.902 -25.214  0.00  0.00    +0.000 C 
ENDBRANCH   7  20
TORSDOF 1
ENDMDL
