MODEL 1
REMARK VINA RESULT:     -10.4      0.000      0.000
REMARK  Name = 10071196
REMARK  8 active torsions:
REMARK  status: ('A' for Active; 'I' for Inactive)
REMARK    1  A    between atoms: N_2  and  C_7
REMARK    2  A    between atoms: N_2  and  C_14
REMARK    3  A    between atoms: N_3  and  C_22
REMARK    4  A    between atoms: C_14  and  C_16
REMARK    5  A    between atoms: C_22  and  C_23
REMARK    6  A    between atoms: C_26  and  O_29
REMARK    7  A    between atoms: O_29  and  C_30
REMARK    8  A    between atoms: C_30  and  C_31
REMARK                            x       y       z     vdW  Elec       q    Type
REMARK                         _______ _______ _______ _____ _____    ______ ____
ROOT
ATOM      1  O   UNL     1      33.755 -23.259 -18.989  0.00  0.00    -0.253 OA
ATOM      2  N   UNL     1      34.357 -22.953 -16.764  0.00  0.00    -0.262 N 
ATOM      3  N   UNL     1      35.680 -22.089 -18.530  0.00  0.00    -0.285 N 
ATOM      4  C   UNL     1      34.544 -22.802 -18.157  0.00  0.00    +0.304 C 
ATOM      5  H   UNL     1      36.278 -21.745 -17.827  0.00  0.00    +0.151 HD
ENDROOT
BRANCH   2   7
ATOM      6  N   UNL     1      30.732 -23.635 -14.683  0.00  0.00    +0.386 N 
ATOM      7  C   UNL     1      33.221 -23.657 -16.222  0.00  0.00    +0.073 C 
ATOM      8  C   UNL     1      33.205 -23.572 -14.696  0.00  0.00    -0.003 C 
ATOM      9  C   UNL     1      31.912 -23.113 -16.794  0.00  0.00    -0.003 C 
ATOM     10  C   UNL     1      31.951 -24.227 -14.115  0.00  0.00    -0.076 C 
ATOM     11  C   UNL     1      30.701 -23.784 -16.145  0.00  0.00    -0.076 C 
ATOM     12  C   UNL     1      29.543 -24.237 -14.082  0.00  0.00    -0.101 C 
ATOM     13  H   UNL     1      30.738 -22.637 -14.469  0.00  0.00    -0.080 HD
ENDBRANCH   2   7
BRANCH   2  14
ATOM     14  C   UNL     1      35.306 -22.403 -15.791  0.00  0.00    +0.122 C 
BRANCH  14  16
ATOM     15  F   UNL     1      39.563 -25.943 -14.768  0.00  0.00    -0.204 F 
ATOM     16  C   UNL     1      36.441 -23.347 -15.517  0.00  0.00    -0.002 C 
ATOM     17  C   UNL     1      37.752 -22.957 -15.789  0.00  0.00    -0.000 C 
ATOM     18  C   UNL     1      36.185 -24.614 -14.993  0.00  0.00    -0.000 C 
ATOM     19  C   UNL     1      38.808 -23.833 -15.535  0.00  0.00    +0.029 C 
ATOM     20  C   UNL     1      37.239 -25.491 -14.740  0.00  0.00    +0.029 C 
ATOM     21  C   UNL     1      38.550 -25.100 -15.011  0.00  0.00    +0.140 C 
ENDBRANCH  14  16
ENDBRANCH   2  14
BRANCH   3  22
ATOM     22  C   UNL     1      36.011 -21.835 -19.914  0.00  0.00    +0.118 C 
BRANCH  22  23
ATOM     23  C   UNL     1      35.487 -20.508 -20.382  0.00  0.00    -0.002 C 
ATOM     24  C   UNL     1      36.376 -19.476 -20.687  0.00  0.00    +0.000 C 
ATOM     25  C   UNL     1      34.113 -20.306 -20.513  0.00  0.00    +0.000 C 
ATOM     26  C   UNL     1      34.515 -18.042 -21.252  0.00  0.00    +0.139 C 
ATOM     27  C   UNL     1      35.889 -18.243 -21.122  0.00  0.00    +0.037 C 
ATOM     28  C   UNL     1      33.627 -19.073 -20.947  0.00  0.00    +0.037 C 
BRANCH  26  29
ATOM     29  O   UNL     1      34.041 -16.838 -21.675  0.00  0.00    -0.475 OA
BRANCH  29  30
ATOM     30  C   UNL     1      34.599 -15.673 -21.071  0.00  0.00    +0.205 C 
BRANCH  30  31
ATOM     31  C   UNL     1      34.066 -14.417 -21.768  0.00  0.00    +0.044 C 
ATOM     32  C   UNL     1      34.207 -14.522 -23.288  0.00  0.00    +0.004 C 
ATOM     33  C   UNL     1      32.608 -14.175 -21.386  0.00  0.00    +0.004 C 
ENDBRANCH  30  31
ENDBRANCH  29  30
ENDBRANCH  26  29
ENDBRANCH  22  23
ENDBRANCH   3  22
TORSDOF 8
ENDMDL
MODEL 2
REMARK VINA RESULT:     -10.4      2.746      5.134
REMARK  Name = 10071196
REMARK  8 active torsions:
REMARK  status: ('A' for Active; 'I' for Inactive)
REMARK    1  A    between atoms: N_2  and  C_7
REMARK    2  A    between atoms: N_2  and  C_14
REMARK    3  A    between atoms: N_3  and  C_22
REMARK    4  A    between atoms: C_14  and  C_16
REMARK    5  A    between atoms: C_22  and  C_23
REMARK    6  A    between atoms: C_26  and  O_29
REMARK    7  A    between atoms: O_29  and  C_30
REMARK    8  A    between atoms: C_30  and  C_31
REMARK                            x       y       z     vdW  Elec       q    Type
REMARK                         _______ _______ _______ _____ _____    ______ ____
ROOT
ATOM      1  O   UNL     1      35.302 -23.800 -17.212  0.00  0.00    -0.253 OA
ATOM      2  N   UNL     1      34.010 -23.049 -15.432  0.00  0.00    -0.262 N 
ATOM      3  N   UNL     1      33.322 -22.728 -17.676  0.00  0.00    -0.285 N 
ATOM      4  C   UNL     1      34.285 -23.230 -16.806  0.00  0.00    +0.304 C 
ATOM      5  H   UNL     1      32.528 -22.281 -17.301  0.00  0.00    +0.151 HD
ENDROOT
BRANCH   2   7
ATOM      6  N   UNL     1      37.467 -24.716 -13.642  0.00  0.00    +0.386 N 
ATOM      7  C   UNL     1      34.907 -23.524 -14.408  0.00  0.00    +0.073 C 
ATOM      8  C   UNL     1      35.201 -25.013 -14.589  0.00  0.00    -0.003 C 
ATOM      9  C   UNL     1      36.210 -22.726 -14.403  0.00  0.00    -0.003 C 
ATOM     10  C   UNL     1      36.229 -25.505 -13.570  0.00  0.00    -0.076 C 
ATOM     11  C   UNL     1      37.204 -23.292 -13.389  0.00  0.00    -0.076 C 
ATOM     12  C   UNL     1      38.457 -25.230 -12.697  0.00  0.00    -0.101 C 
ATOM     13  H   UNL     1      37.840 -24.804 -14.588  0.00  0.00    -0.080 HD
ENDBRANCH   2   7
BRANCH   2  14
ATOM     14  C   UNL     1      32.796 -22.368 -14.968  0.00  0.00    +0.122 C 
BRANCH  14  16
ATOM     15  F   UNL     1      28.425 -25.894 -14.568  0.00  0.00    -0.204 F 
ATOM     16  C   UNL     1      31.631 -23.307 -14.861  0.00  0.00    -0.002 C 
ATOM     17  C   UNL     1      31.575 -24.234 -13.820  0.00  0.00    -0.000 C 
ATOM     18  C   UNL     1      30.603 -23.255 -15.804  0.00  0.00    -0.000 C 
ATOM     19  C   UNL     1      30.492 -25.107 -13.720  0.00  0.00    +0.029 C 
ATOM     20  C   UNL     1      29.520 -24.129 -15.705  0.00  0.00    +0.029 C 
ATOM     21  C   UNL     1      29.465 -25.054 -14.663  0.00  0.00    +0.140 C 
ENDBRANCH  14  16
ENDBRANCH   2  14
BRANCH   3  22
ATOM     22  C   UNL     1      33.445 -22.841 -19.113  0.00  0.00    +0.118 C 
BRANCH  22  23
ATOM     23  C   UNL     1      33.988 -21.585 -19.731  0.00  0.00    -0.002 C 
ATOM     24  C   UNL     1      33.112 -20.623 -20.235  0.00  0.00    +0.000 C 
ATOM     25  C   UNL     1      35.366 -21.381 -19.803  0.00  0.00    +0.000 C 
ATOM     26  C   UNL     1      34.994 -19.252 -20.881  0.00  0.00    +0.139 C 
ATOM     27  C   UNL     1      33.616 -19.455 -20.810  0.00  0.00    +0.037 C 
ATOM     28  C   UNL     1      35.869 -20.214 -20.378  0.00  0.00    +0.037 C 
BRANCH  26  29
ATOM     29  O   UNL     1      35.485 -18.113 -21.443  0.00  0.00    -0.475 OA
BRANCH  29  30
ATOM     30  C   UNL     1      34.664 -17.462 -22.411  0.00  0.00    +0.205 C 
BRANCH  30  31
ATOM     31  C   UNL     1      35.192 -17.751 -23.821  0.00  0.00    +0.044 C 
ATOM     32  C   UNL     1      34.706 -19.109 -24.329  0.00  0.00    +0.004 C 
ATOM     33  C   UNL     1      34.773 -16.643 -24.784  0.00  0.00    +0.004 C 
ENDBRANCH  30  31
ENDBRANCH  29  30
ENDBRANCH  26  29
ENDBRANCH  22  23
ENDBRANCH   3  22
TORSDOF 8
ENDMDL
MODEL 3
REMARK VINA RESULT:     -10.3      7.804     12.493
REMARK  Name = 10071196
REMARK  8 active torsions:
REMARK  status: ('A' for Active; 'I' for Inactive)
REMARK    1  A    between atoms: N_2  and  C_7
REMARK    2  A    between atoms: N_2  and  C_14
REMARK    3  A    between atoms: N_3  and  C_22
REMARK    4  A    between atoms: C_14  and  C_16
REMARK    5  A    between atoms: C_22  and  C_23
REMARK    6  A    between atoms: C_26  and  O_29
REMARK    7  A    between atoms: O_29  and  C_30
REMARK    8  A    between atoms: C_30  and  C_31
REMARK                            x       y       z     vdW  Elec       q    Type
REMARK                         _______ _______ _______ _____ _____    ______ ____
ROOT
ATOM      1  O   UNL     1      33.001 -13.724 -20.507  0.00  0.00    -0.253 OA
ATOM      2  N   UNL     1      33.029 -14.209 -22.780  0.00  0.00    -0.262 N 
ATOM      3  N   UNL     1      31.683 -12.465 -21.908  0.00  0.00    -0.285 N 
ATOM      4  C   UNL     1      32.596 -13.483 -21.647  0.00  0.00    +0.304 C 
ATOM      5  H   UNL     1      31.392 -12.313 -22.837  0.00  0.00    +0.151 HD
ENDROOT
BRANCH   2   7
ATOM      6  N   UNL     1      34.576 -18.150 -22.720  0.00  0.00    +0.386 N 
ATOM      7  C   UNL     1      33.982 -15.286 -22.674  0.00  0.00    +0.073 C 
ATOM      8  C   UNL     1      33.632 -16.211 -21.509  0.00  0.00    -0.003 C 
ATOM      9  C   UNL     1      34.059 -16.083 -23.976  0.00  0.00    -0.003 C 
ATOM     10  C   UNL     1      34.576 -17.412 -21.449  0.00  0.00    -0.076 C 
ATOM     11  C   UNL     1      34.990 -17.288 -23.835  0.00  0.00    -0.076 C 
ATOM     12  C   UNL     1      35.445 -19.323 -22.630  0.00  0.00    -0.101 C 
ATOM     13  H   UNL     1      33.622 -18.463 -22.901  0.00  0.00    -0.080 HD
ENDBRANCH   2   7
BRANCH   2  14
ATOM     14  C   UNL     1      32.537 -13.908 -24.128  0.00  0.00    +0.122 C 
BRANCH  14  16
ATOM     15  F   UNL     1      35.657  -9.982 -26.688  0.00  0.00    -0.204 F 
ATOM     16  C   UNL     1      33.369 -12.862 -24.811  0.00  0.00    -0.002 C 
ATOM     17  C   UNL     1      33.882 -11.791 -24.078  0.00  0.00    -0.000 C 
ATOM     18  C   UNL     1      33.629 -12.959 -26.178  0.00  0.00    -0.000 C 
ATOM     19  C   UNL     1      34.655 -10.818 -24.712  0.00  0.00    +0.029 C 
ATOM     20  C   UNL     1      34.402 -11.986 -26.813  0.00  0.00    +0.029 C 
ATOM     21  C   UNL     1      34.915 -10.917 -26.079  0.00  0.00    +0.140 C 
ENDBRANCH  14  16
ENDBRANCH   2  14
BRANCH   3  22
ATOM     22  C   UNL     1      31.150 -11.620 -20.862  0.00  0.00    +0.118 C 
BRANCH  22  23
ATOM     23  C   UNL     1      31.464 -10.170 -21.096  0.00  0.00    -0.002 C 
ATOM     24  C   UNL     1      31.344  -9.630 -22.377  0.00  0.00    +0.000 C 
ATOM     25  C   UNL     1      31.875  -9.365 -20.034  0.00  0.00    +0.000 C 
ATOM     26  C   UNL     1      32.047  -7.478 -21.532  0.00  0.00    +0.139 C 
ATOM     27  C   UNL     1      31.635  -8.282 -22.595  0.00  0.00    +0.037 C 
ATOM     28  C   UNL     1      32.167  -8.018 -20.253  0.00  0.00    +0.037 C 
BRANCH  26  29
ATOM     29  O   UNL     1      32.332  -6.164 -21.745  0.00  0.00    -0.475 OA
BRANCH  29  30
ATOM     30  C   UNL     1      31.261  -5.332 -22.189  0.00  0.00    +0.205 C 
BRANCH  30  31
ATOM     31  C   UNL     1      31.681  -4.569 -23.450  0.00  0.00    +0.044 C 
ATOM     32  C   UNL     1      31.078  -5.198 -24.707  0.00  0.00    +0.004 C 
ATOM     33  C   UNL     1      31.276  -3.101 -23.344  0.00  0.00    +0.004 C 
ENDBRANCH  30  31
ENDBRANCH  29  30
ENDBRANCH  26  29
ENDBRANCH  22  23
ENDBRANCH   3  22
TORSDOF 8
ENDMDL
MODEL 4
REMARK VINA RESULT:     -10.3      7.572     14.090
REMARK  Name = 10071196
REMARK  8 active torsions:
REMARK  status: ('A' for Active; 'I' for Inactive)
REMARK    1  A    between atoms: N_2  and  C_7
REMARK    2  A    between atoms: N_2  and  C_14
REMARK    3  A    between atoms: N_3  and  C_22
REMARK    4  A    between atoms: C_14  and  C_16
REMARK    5  A    between atoms: C_22  and  C_23
REMARK    6  A    between atoms: C_26  and  O_29
REMARK    7  A    between atoms: O_29  and  C_30
REMARK    8  A    between atoms: C_30  and  C_31
REMARK                            x       y       z     vdW  Elec       q    Type
REMARK                         _______ _______ _______ _____ _____    ______ ____
ROOT
ATOM      1  O   UNL     1      30.454 -10.370 -22.227  0.00  0.00    -0.253 OA
ATOM      2  N   UNL     1      32.392  -9.242 -22.840  0.00  0.00    -0.262 N 
ATOM      3  N   UNL     1      32.457 -11.492 -22.100  0.00  0.00    -0.285 N 
ATOM      4  C   UNL     1      31.680 -10.370 -22.374  0.00  0.00    +0.304 C 
ATOM      5  H   UNL     1      33.432 -11.440 -22.234  0.00  0.00    +0.151 HD
ENDROOT
BRANCH   2   7
ATOM      6  N   UNL     1      31.718  -5.085 -23.283  0.00  0.00    +0.386 N 
ATOM      7  C   UNL     1      31.725  -8.009 -23.178  0.00  0.00    +0.073 C 
ATOM      8  C   UNL     1      31.509  -7.148 -21.935  0.00  0.00    -0.003 C 
ATOM      9  C   UNL     1      32.513  -7.228 -24.230  0.00  0.00    -0.003 C 
ATOM     10  C   UNL     1      30.895  -5.794 -22.295  0.00  0.00    -0.076 C 
ATOM     11  C   UNL     1      31.865  -5.872 -24.515  0.00  0.00    -0.076 C 
ATOM     12  C   UNL     1      31.145  -3.773 -23.581  0.00  0.00    -0.101 C 
ATOM     13  H   UNL     1      32.647  -4.953 -22.882  0.00  0.00    -0.080 HD
ENDBRANCH   2   7
BRANCH   2  14
ATOM     14  C   UNL     1      33.848  -9.261 -23.009  0.00  0.00    +0.122 C 
BRANCH  14  16
ATOM     15  F   UNL     1      35.391 -11.908 -27.733  0.00  0.00    -0.204 F 
ATOM     16  C   UNL     1      34.260  -9.967 -24.268  0.00  0.00    -0.002 C 
ATOM     17  C   UNL     1      35.375  -9.527 -24.981  0.00  0.00    -0.000 C 
ATOM     18  C   UNL     1      33.527 -11.062 -24.725  0.00  0.00    -0.000 C 
ATOM     19  C   UNL     1      35.758 -10.183 -26.151  0.00  0.00    +0.029 C 
ATOM     20  C   UNL     1      33.909 -11.718 -25.896  0.00  0.00    +0.029 C 
ATOM     21  C   UNL     1      35.024 -11.278 -26.608  0.00  0.00    +0.140 C 
ENDBRANCH  14  16
ENDBRANCH   2  14
BRANCH   3  22
ATOM     22  C   UNL     1      31.883 -12.732 -21.626  0.00  0.00    +0.118 C 
BRANCH  22  23
ATOM     23  C   UNL     1      32.834 -13.884 -21.777  0.00  0.00    -0.002 C 
ATOM     24  C   UNL     1      33.240 -14.290 -23.048  0.00  0.00    +0.000 C 
ATOM     25  C   UNL     1      33.309 -14.550 -20.646  0.00  0.00    +0.000 C 
ATOM     26  C   UNL     1      34.598 -16.026 -22.058  0.00  0.00    +0.139 C 
ATOM     27  C   UNL     1      34.123 -15.362 -23.189  0.00  0.00    +0.037 C 
ATOM     28  C   UNL     1      34.192 -15.621 -20.788  0.00  0.00    +0.037 C 
BRANCH  26  29
ATOM     29  O   UNL     1      35.459 -17.072 -22.196  0.00  0.00    -0.475 OA
BRANCH  29  30
ATOM     30  C   UNL     1      35.471 -18.043 -21.150  0.00  0.00    +0.205 C 
BRANCH  30  31
ATOM     31  C   UNL     1      34.900 -19.369 -21.664  0.00  0.00    +0.044 C 
ATOM     32  C   UNL     1      33.543 -19.674 -21.027  0.00  0.00    +0.004 C 
ATOM     33  C   UNL     1      34.778 -19.343 -23.185  0.00  0.00    +0.004 C 
ENDBRANCH  30  31
ENDBRANCH  29  30
ENDBRANCH  26  29
ENDBRANCH  22  23
ENDBRANCH   3  22
TORSDOF 8
ENDMDL
MODEL 5
REMARK VINA RESULT:     -10.2      5.750     10.481
REMARK  Name = 10071196
REMARK  8 active torsions:
REMARK  status: ('A' for Active; 'I' for Inactive)
REMARK    1  A    between atoms: N_2  and  C_7
REMARK    2  A    between atoms: N_2  and  C_14
REMARK    3  A    between atoms: N_3  and  C_22
REMARK    4  A    between atoms: C_14  and  C_16
REMARK    5  A    between atoms: C_22  and  C_23
REMARK    6  A    between atoms: C_26  and  O_29
REMARK    7  A    between atoms: O_29  and  C_30
REMARK    8  A    between atoms: C_30  and  C_31
REMARK                            x       y       z     vdW  Elec       q    Type
REMARK                         _______ _______ _______ _____ _____    ______ ____
ROOT
ATOM      1  O   UNL     1      32.168 -16.224 -20.317  0.00  0.00    -0.253 OA
ATOM      2  N   UNL     1      33.990 -16.164 -21.759  0.00  0.00    -0.262 N 
ATOM      3  N   UNL     1      32.838 -14.187 -21.146  0.00  0.00    -0.285 N 
ATOM      4  C   UNL     1      32.939 -15.570 -21.025  0.00  0.00    +0.304 C 
ATOM      5  H   UNL     1      33.478 -13.711 -21.724  0.00  0.00    +0.151 HD
ENDROOT
BRANCH   2   7
ATOM      6  N   UNL     1      34.805 -20.018 -20.205  0.00  0.00    +0.386 N 
ATOM      7  C   UNL     1      34.232 -17.585 -21.726  0.00  0.00    +0.073 C 
ATOM      8  C   UNL     1      35.620 -17.889 -21.165  0.00  0.00    -0.003 C 
ATOM      9  C   UNL     1      33.162 -18.306 -20.906  0.00  0.00    -0.003 C 
ATOM     10  C   UNL     1      35.848 -19.396 -21.031  0.00  0.00    -0.076 C 
ATOM     11  C   UNL     1      33.471 -19.799 -20.782  0.00  0.00    -0.076 C 
ATOM     12  C   UNL     1      35.064 -21.449 -20.046  0.00  0.00    -0.101 C 
ATOM     13  H   UNL     1      34.826 -19.577 -19.286  0.00  0.00    -0.080 HD
ENDBRANCH   2   7
BRANCH   2  14
ATOM     14  C   UNL     1      34.897 -15.370 -22.595  0.00  0.00    +0.122 C 
BRANCH  14  16
ATOM     15  F   UNL     1      32.419 -13.645 -27.347  0.00  0.00    -0.204 F 
ATOM     16  C   UNL     1      34.235 -14.910 -23.861  0.00  0.00    -0.002 C 
ATOM     17  C   UNL     1      33.872 -15.840 -24.835  0.00  0.00    -0.000 C 
ATOM     18  C   UNL     1      33.986 -13.553 -24.066  0.00  0.00    -0.000 C 
ATOM     19  C   UNL     1      33.257 -15.413 -26.013  0.00  0.00    +0.029 C 
ATOM     20  C   UNL     1      33.372 -13.125 -25.243  0.00  0.00    +0.029 C 
ATOM     21  C   UNL     1      33.008 -14.056 -26.216  0.00  0.00    +0.140 C 
ENDBRANCH  14  16
ENDBRANCH   2  14
BRANCH   3  22
ATOM     22  C   UNL     1      31.824 -13.423 -20.452  0.00  0.00    +0.118 C 
BRANCH  22  23
ATOM     23  C   UNL     1      31.831 -11.978 -20.860  0.00  0.00    -0.002 C 
ATOM     24  C   UNL     1      31.782 -10.980 -19.887  0.00  0.00    +0.000 C 
ATOM     25  C   UNL     1      31.887 -11.634 -22.211  0.00  0.00    +0.000 C 
ATOM     26  C   UNL     1      31.843  -9.294 -21.616  0.00  0.00    +0.139 C 
ATOM     27  C   UNL     1      31.788  -9.636 -20.265  0.00  0.00    +0.037 C 
ATOM     28  C   UNL     1      31.892 -10.292 -22.588  0.00  0.00    +0.037 C 
BRANCH  26  29
ATOM     29  O   UNL     1      31.848  -7.983 -21.985  0.00  0.00    -0.475 OA
BRANCH  29  30
ATOM     30  C   UNL     1      32.057  -7.700 -23.368  0.00  0.00    +0.205 C 
BRANCH  30  31
ATOM     31  C   UNL     1      33.281  -6.793 -23.535  0.00  0.00    +0.044 C 
ATOM     32  C   UNL     1      34.580  -7.599 -23.487  0.00  0.00    +0.004 C 
ATOM     33  C   UNL     1      33.190  -6.011 -24.842  0.00  0.00    +0.004 C 
ENDBRANCH  30  31
ENDBRANCH  29  30
ENDBRANCH  26  29
ENDBRANCH  22  23
ENDBRANCH   3  22
TORSDOF 8
ENDMDL
MODEL 6
REMARK VINA RESULT:     -10.0      6.579     13.040
REMARK  Name = 10071196
REMARK  8 active torsions:
REMARK  status: ('A' for Active; 'I' for Inactive)
REMARK    1  A    between atoms: N_2  and  C_7
REMARK    2  A    between atoms: N_2  and  C_14
REMARK    3  A    between atoms: N_3  and  C_22
REMARK    4  A    between atoms: C_14  and  C_16
REMARK    5  A    between atoms: C_22  and  C_23
REMARK    6  A    between atoms: C_26  and  O_29
REMARK    7  A    between atoms: O_29  and  C_30
REMARK    8  A    between atoms: C_30  and  C_31
REMARK                            x       y       z     vdW  Elec       q    Type
REMARK                         _______ _______ _______ _____ _____    ______ ____
ROOT
ATOM      1  O   UNL     1      34.452 -10.886 -24.583  0.00  0.00    -0.253 OA
ATOM      2  N   UNL     1      32.414 -10.531 -23.524  0.00  0.00    -0.262 N 
ATOM      3  N   UNL     1      33.226 -12.719 -23.933  0.00  0.00    -0.285 N 
ATOM      4  C   UNL     1      33.437 -11.348 -24.055  0.00  0.00    +0.304 C 
ATOM      5  H   UNL     1      32.398 -13.037 -23.503  0.00  0.00    +0.151 HD
ENDROOT
BRANCH   2   7
ATOM      6  N   UNL     1      31.743  -6.487 -22.463  0.00  0.00    +0.386 N 
ATOM      7  C   UNL     1      32.493  -9.092 -23.564  0.00  0.00    +0.073 C 
ATOM      8  C   UNL     1      31.112  -8.477 -23.791  0.00  0.00    -0.003 C 
ATOM      9  C   UNL     1      33.113  -8.539 -22.281  0.00  0.00    -0.003 C 
ATOM     10  C   UNL     1      31.168  -6.949 -23.734  0.00  0.00    -0.076 C 
ATOM     11  C   UNL     1      33.103  -7.009 -22.275  0.00  0.00    -0.076 C 
ATOM     12  C   UNL     1      31.744  -5.026 -22.404  0.00  0.00    -0.101 C 
ATOM     13  H   UNL     1      31.160  -6.845 -21.706  0.00  0.00    -0.080 HD
ENDBRANCH   2   7
BRANCH   2  14
ATOM     14  C   UNL     1      31.214 -11.099 -22.900  0.00  0.00    +0.122 C 
BRANCH  14  16
ATOM     15  F   UNL     1      31.590 -11.180 -17.283  0.00  0.00    -0.204 F 
ATOM     16  C   UNL     1      31.315 -11.120 -21.403  0.00  0.00    -0.002 C 
ATOM     17  C   UNL     1      31.834 -12.241 -20.755  0.00  0.00    -0.000 C 
ATOM     18  C   UNL     1      30.888 -10.020 -20.658  0.00  0.00    -0.000 C 
ATOM     19  C   UNL     1      31.928 -12.262 -19.363  0.00  0.00    +0.029 C 
ATOM     20  C   UNL     1      30.981 -10.040 -19.267  0.00  0.00    +0.029 C 
ATOM     21  C   UNL     1      31.501 -11.161 -18.620  0.00  0.00    +0.140 C 
ENDBRANCH  14  16
ENDBRANCH   2  14
BRANCH   3  22
ATOM     22  C   UNL     1      34.181 -13.693 -24.414  0.00  0.00    +0.118 C 
BRANCH  22  23
ATOM     23  C   UNL     1      34.440 -14.772 -23.402  0.00  0.00    -0.002 C 
ATOM     24  C   UNL     1      34.246 -14.515 -22.045  0.00  0.00    +0.000 C 
ATOM     25  C   UNL     1      34.876 -16.030 -23.819  0.00  0.00    +0.000 C 
ATOM     26  C   UNL     1      34.923 -16.775 -21.522  0.00  0.00    +0.139 C 
ATOM     27  C   UNL     1      34.487 -15.518 -21.104  0.00  0.00    +0.037 C 
ATOM     28  C   UNL     1      35.118 -17.031 -22.879  0.00  0.00    +0.037 C 
BRANCH  26  29
ATOM     29  O   UNL     1      35.159 -17.753 -20.605  0.00  0.00    -0.475 OA
BRANCH  29  30
ATOM     30  C   UNL     1      36.063 -18.791 -20.981  0.00  0.00    +0.205 C 
BRANCH  30  31
ATOM     31  C   UNL     1      35.365 -20.151 -20.878  0.00  0.00    +0.044 C 
ATOM     32  C   UNL     1      36.027 -21.037 -19.820  0.00  0.00    +0.004 C 
ATOM     33  C   UNL     1      33.883 -19.968 -20.563  0.00  0.00    +0.004 C 
ENDBRANCH  30  31
ENDBRANCH  29  30
ENDBRANCH  26  29
ENDBRANCH  22  23
ENDBRANCH   3  22
TORSDOF 8
ENDMDL
MODEL 7
REMARK VINA RESULT:      -9.9      9.728     15.215
REMARK  Name = 10071196
REMARK  8 active torsions:
REMARK  status: ('A' for Active; 'I' for Inactive)
REMARK    1  A    between atoms: N_2  and  C_7
REMARK    2  A    between atoms: N_2  and  C_14
REMARK    3  A    between atoms: N_3  and  C_22
REMARK    4  A    between atoms: C_14  and  C_16
REMARK    5  A    between atoms: C_22  and  C_23
REMARK    6  A    between atoms: C_26  and  O_29
REMARK    7  A    between atoms: O_29  and  C_30
REMARK    8  A    between atoms: C_30  and  C_31
REMARK                            x       y       z     vdW  Elec       q    Type
REMARK                         _______ _______ _______ _____ _____    ______ ____
ROOT
ATOM      1  O   UNL     1      34.531  -7.282 -24.266  0.00  0.00    -0.253 OA
ATOM      2  N   UNL     1      32.297  -7.238 -23.626  0.00  0.00    -0.262 N 
ATOM      3  N   UNL     1      33.417  -9.282 -24.056  0.00  0.00    -0.285 N 
ATOM      4  C   UNL     1      33.491  -7.892 -24.006  0.00  0.00    +0.304 C 
ATOM      5  H   UNL     1      32.563  -9.721 -23.838  0.00  0.00    +0.151 HD
ENDROOT
BRANCH   2   7
ATOM      6  N   UNL     1      30.751  -3.310 -23.955  0.00  0.00    +0.386 N 
ATOM      7  C   UNL     1      32.219  -5.802 -23.517  0.00  0.00    +0.073 C 
ATOM      8  C   UNL     1      32.101  -5.157 -24.896  0.00  0.00    -0.003 C 
ATOM      9  C   UNL     1      31.044  -5.381 -22.634  0.00  0.00    -0.003 C 
ATOM     10  C   UNL     1      31.915  -3.642 -24.788  0.00  0.00    -0.076 C 
ATOM     11  C   UNL     1      30.893  -3.860 -22.599  0.00  0.00    -0.076 C 
ATOM     12  C   UNL     1      30.558  -1.861 -23.901  0.00  0.00    -0.101 C 
ATOM     13  H   UNL     1      29.927  -3.735 -24.382  0.00  0.00    -0.080 HD
ENDBRANCH   2   7
BRANCH   2  14
ATOM     14  C   UNL     1      31.070  -7.981 -23.320  0.00  0.00    +0.122 C 
BRANCH  14  16
ATOM     15  F   UNL     1      31.791 -11.582 -19.051  0.00  0.00    -0.204 F 
ATOM     16  C   UNL     1      31.263  -8.941 -22.182  0.00  0.00    -0.002 C 
ATOM     17  C   UNL     1      30.856 -10.269 -22.313  0.00  0.00    -0.000 C 
ATOM     18  C   UNL     1      31.848  -8.506 -20.992  0.00  0.00    -0.000 C 
ATOM     19  C   UNL     1      31.035 -11.161 -21.256  0.00  0.00    +0.029 C 
ATOM     20  C   UNL     1      32.026  -9.397 -19.935  0.00  0.00    +0.029 C 
ATOM     21  C   UNL     1      31.620 -10.725 -20.067  0.00  0.00    +0.140 C 
ENDBRANCH  14  16
ENDBRANCH   2  14
BRANCH   3  22
ATOM     22  C   UNL     1      34.552 -10.102 -24.415  0.00  0.00    +0.118 C 
BRANCH  22  23
ATOM     23  C   UNL     1      34.157 -11.529 -24.665  0.00  0.00    -0.002 C 
ATOM     24  C   UNL     1      33.936 -11.973 -25.969  0.00  0.00    +0.000 C 
ATOM     25  C   UNL     1      34.011 -12.411 -23.594  0.00  0.00    +0.000 C 
ATOM     26  C   UNL     1      33.423 -14.179 -25.130  0.00  0.00    +0.139 C 
ATOM     27  C   UNL     1      33.569 -13.299 -26.202  0.00  0.00    +0.037 C 
ATOM     28  C   UNL     1      33.643 -13.736 -23.827  0.00  0.00    +0.037 C 
BRANCH  26  29
ATOM     29  O   UNL     1      33.063 -15.473 -25.357  0.00  0.00    -0.475 OA
BRANCH  29  30
ATOM     30  C   UNL     1      34.118 -16.415 -25.548  0.00  0.00    +0.205 C 
BRANCH  30  31
ATOM     31  C   UNL     1      34.186 -17.370 -24.352  0.00  0.00    +0.044 C 
ATOM     32  C   UNL     1      34.485 -18.802 -24.799  0.00  0.00    +0.004 C 
ATOM     33  C   UNL     1      35.237 -16.896 -23.351  0.00  0.00    +0.004 C 
ENDBRANCH  30  31
ENDBRANCH  29  30
ENDBRANCH  26  29
ENDBRANCH  22  23
ENDBRANCH   3  22
TORSDOF 8
ENDMDL
MODEL 8
REMARK VINA RESULT:      -9.9      7.597     14.163
REMARK  Name = 10071196
REMARK  8 active torsions:
REMARK  status: ('A' for Active; 'I' for Inactive)
REMARK    1  A    between atoms: N_2  and  C_7
REMARK    2  A    between atoms: N_2  and  C_14
REMARK    3  A    between atoms: N_3  and  C_22
REMARK    4  A    between atoms: C_14  and  C_16
REMARK    5  A    between atoms: C_22  and  C_23
REMARK    6  A    between atoms: C_26  and  O_29
REMARK    7  A    between atoms: O_29  and  C_30
REMARK    8  A    between atoms: C_30  and  C_31
REMARK                            x       y       z     vdW  Elec       q    Type
REMARK                         _______ _______ _______ _____ _____    ______ ____
ROOT
ATOM      1  O   UNL     1      34.527  -9.253 -24.415  0.00  0.00    -0.253 OA
ATOM      2  N   UNL     1      32.451  -8.751 -23.498  0.00  0.00    -0.262 N 
ATOM      3  N   UNL     1      33.117 -10.991 -23.888  0.00  0.00    -0.285 N 
ATOM      4  C   UNL     1      33.443  -9.640 -23.970  0.00  0.00    +0.304 C 
ATOM      5  H   UNL     1      32.238 -11.247 -23.524  0.00  0.00    +0.151 HD
ENDROOT
BRANCH   2   7
ATOM      6  N   UNL     1      31.575  -4.627 -23.895  0.00  0.00    +0.386 N 
ATOM      7  C   UNL     1      32.645  -7.322 -23.505  0.00  0.00    +0.073 C 
ATOM      8  C   UNL     1      32.377  -6.743 -24.894  0.00  0.00    -0.003 C 
ATOM      9  C   UNL     1      31.754  -6.640 -22.468  0.00  0.00    -0.003 C 
ATOM     10  C   UNL     1      32.481  -5.217 -24.890  0.00  0.00    -0.076 C 
ATOM     11  C   UNL     1      31.879  -5.117 -22.543  0.00  0.00    -0.076 C 
ATOM     12  C   UNL     1      31.650  -3.167 -23.937  0.00  0.00    -0.101 C 
ATOM     13  H   UNL     1      30.624  -4.913 -24.127  0.00  0.00    -0.080 HD
ENDBRANCH   2   7
BRANCH   2  14
ATOM     14  C   UNL     1      31.169  -9.229 -22.972  0.00  0.00    +0.122 C 
BRANCH  14  16
ATOM     15  F   UNL     1      31.653 -11.218 -17.727  0.00  0.00    -0.204 F 
ATOM     16  C   UNL     1      31.297  -9.759 -21.573  0.00  0.00    -0.002 C 
ATOM     17  C   UNL     1      31.976  -9.018 -20.606  0.00  0.00    -0.000 C 
ATOM     18  C   UNL     1      30.739 -10.994 -21.240  0.00  0.00    -0.000 C 
ATOM     19  C   UNL     1      32.096  -9.510 -19.306  0.00  0.00    +0.029 C 
ATOM     20  C   UNL     1      30.859 -11.487 -19.941  0.00  0.00    +0.029 C 
ATOM     21  C   UNL     1      31.537 -10.745 -18.975  0.00  0.00    +0.140 C 
ENDBRANCH  14  16
ENDBRANCH   2  14
BRANCH   3  22
ATOM     22  C   UNL     1      34.025 -12.031 -24.318  0.00  0.00    +0.118 C 
BRANCH  22  23
ATOM     23  C   UNL     1      33.857 -13.290 -23.516  0.00  0.00    -0.002 C 
ATOM     24  C   UNL     1      32.979 -13.313 -22.432  0.00  0.00    +0.000 C 
ATOM     25  C   UNL     1      34.579 -14.434 -23.854  0.00  0.00    +0.000 C 
ATOM     26  C   UNL     1      33.545 -15.626 -22.025  0.00  0.00    +0.139 C 
ATOM     27  C   UNL     1      32.823 -14.482 -21.686  0.00  0.00    +0.037 C 
ATOM     28  C   UNL     1      34.423 -15.603 -23.108  0.00  0.00    +0.037 C 
BRANCH  26  29
ATOM     29  O   UNL     1      33.394 -16.766 -21.297  0.00  0.00    -0.475 OA
BRANCH  29  30
ATOM     30  C   UNL     1      34.579 -17.492 -20.975  0.00  0.00    +0.205 C 
BRANCH  30  31
ATOM     31  C   UNL     1      34.391 -18.975 -21.315  0.00  0.00    +0.044 C 
ATOM     32  C   UNL     1      33.050 -19.498 -20.797  0.00  0.00    +0.004 C 
ATOM     33  C   UNL     1      34.499 -19.193 -22.822  0.00  0.00    +0.004 C 
ENDBRANCH  30  31
ENDBRANCH  29  30
ENDBRANCH  26  29
ENDBRANCH  22  23
ENDBRANCH   3  22
TORSDOF 8
ENDMDL
MODEL 9
REMARK VINA RESULT:      -9.8      2.360      4.334
REMARK  Name = 10071196
REMARK  8 active torsions:
REMARK  status: ('A' for Active; 'I' for Inactive)
REMARK    1  A    between atoms: N_2  and  C_7
REMARK    2  A    between atoms: N_2  and  C_14
REMARK    3  A    between atoms: N_3  and  C_22
REMARK    4  A    between atoms: C_14  and  C_16
REMARK    5  A    between atoms: C_22  and  C_23
REMARK    6  A    between atoms: C_26  and  O_29
REMARK    7  A    between atoms: O_29  and  C_30
REMARK    8  A    between atoms: C_30  and  C_31
REMARK                            x       y       z     vdW  Elec       q    Type
REMARK                         _______ _______ _______ _____ _____    ______ ____
ROOT
ATOM      1  O   UNL     1      36.617 -22.509 -17.389  0.00  0.00    -0.253 OA
ATOM      2  N   UNL     1      34.470 -23.056 -16.686  0.00  0.00    -0.262 N 
ATOM      3  N   UNL     1      34.874 -22.184 -18.852  0.00  0.00    -0.285 N 
ATOM      4  C   UNL     1      35.408 -22.574 -17.626  0.00  0.00    +0.304 C 
ATOM      5  H   UNL     1      33.901 -22.256 -18.991  0.00  0.00    +0.151 HD
ENDROOT
BRANCH   2   7
ATOM      6  N   UNL     1      36.955 -24.466 -13.560  0.00  0.00    +0.386 N 
ATOM      7  C   UNL     1      34.871 -23.509 -15.376  0.00  0.00    +0.073 C 
ATOM      8  C   UNL     1      35.412 -24.936 -15.435  0.00  0.00    -0.003 C 
ATOM      9  C   UNL     1      35.915 -22.573 -14.766  0.00  0.00    -0.003 C 
ATOM     10  C   UNL     1      35.934 -25.390 -14.070  0.00  0.00    -0.076 C 
ATOM     11  C   UNL     1      36.419 -23.104 -13.424  0.00  0.00    -0.076 C 
ATOM     12  C   UNL     1      37.479 -24.939 -12.279  0.00  0.00    -0.101 C 
ATOM     13  H   UNL     1      37.719 -24.437 -14.235  0.00  0.00    -0.080 HD
ENDBRANCH   2   7
BRANCH   2  14
ATOM     14  C   UNL     1      33.037 -23.126 -16.987  0.00  0.00    +0.122 C 
BRANCH  14  16
ATOM     15  F   UNL     1      29.994 -24.462 -12.442  0.00  0.00    -0.204 F 
ATOM     16  C   UNL     1      32.225 -23.482 -15.775  0.00  0.00    -0.002 C 
ATOM     17  C   UNL     1      32.300 -22.691 -14.629  0.00  0.00    -0.000 C 
ATOM     18  C   UNL     1      31.396 -24.604 -15.795  0.00  0.00    -0.000 C 
ATOM     19  C   UNL     1      31.546 -23.021 -13.503  0.00  0.00    +0.029 C 
ATOM     20  C   UNL     1      30.643 -24.936 -14.669  0.00  0.00    +0.029 C 
ATOM     21  C   UNL     1      30.717 -24.144 -13.524  0.00  0.00    +0.140 C 
ENDBRANCH  14  16
ENDBRANCH   2  14
BRANCH   3  22
ATOM     22  C   UNL     1      35.698 -21.679 -19.927  0.00  0.00    +0.118 C 
BRANCH  22  23
ATOM     23  C   UNL     1      35.214 -20.349 -20.428  0.00  0.00    -0.002 C 
ATOM     24  C   UNL     1      33.846 -20.107 -20.553  0.00  0.00    +0.000 C 
ATOM     25  C   UNL     1      36.132 -19.355 -20.769  0.00  0.00    +0.000 C 
ATOM     26  C   UNL     1      34.314 -17.879 -21.359  0.00  0.00    +0.139 C 
ATOM     27  C   UNL     1      33.396 -18.871 -21.019  0.00  0.00    +0.037 C 
ATOM     28  C   UNL     1      35.682 -18.120 -21.235  0.00  0.00    +0.037 C 
BRANCH  26  29
ATOM     29  O   UNL     1      33.875 -16.673 -21.815  0.00  0.00    -0.475 OA
BRANCH  29  30
ATOM     30  C   UNL     1      33.529 -15.696 -20.834  0.00  0.00    +0.205 C 
BRANCH  30  31
ATOM     31  C   UNL     1      33.406 -14.318 -21.492  0.00  0.00    +0.044 C 
ATOM     32  C   UNL     1      33.077 -14.440 -22.981  0.00  0.00    +0.004 C 
ATOM     33  C   UNL     1      32.344 -13.482 -20.781  0.00  0.00    +0.004 C 
ENDBRANCH  30  31
ENDBRANCH  29  30
ENDBRANCH  26  29
ENDBRANCH  22  23
ENDBRANCH   3  22
TORSDOF 8
ENDMDL
