MODEL 1
REMARK VINA RESULT:      -6.9      0.000      0.000
REMARK  Name = 5462442
REMARK  0 active torsions:
REMARK  status: ('A' for Active; 'I' for Inactive)
REMARK                            x       y       z     vdW  Elec       q    Type
REMARK                         _______ _______ _______ _____ _____    ______ ____
ROOT
ATOM      1  O   UNL     1      40.940 -27.267 -14.634  0.00  0.00    -0.270 OA
ATOM      2  N   UNL     1      37.246 -22.693 -12.296  0.00  0.00    +0.389 N 
ATOM      3  N   UNL     1      38.730 -26.606 -14.712  0.00  0.00    -0.284 N 
ATOM      4  C   UNL     1      36.991 -23.423 -13.560  0.00  0.00    -0.021 C 
ATOM      5  C   UNL     1      35.562 -24.047 -13.528  0.00  0.00    -0.009 C 
ATOM      6  C   UNL     1      35.370 -24.856 -14.828  0.00  0.00    +0.025 C 
ATOM      7  C   UNL     1      35.292 -24.873 -12.258  0.00  0.00    -0.004 C 
ATOM      8  C   UNL     1      36.999 -22.369 -14.718  0.00  0.00    +0.006 C 
ATOM      9  C   UNL     1      38.060 -24.490 -13.879  0.00  0.00    -0.031 C 
ATOM     10  C   UNL     1      36.351 -26.045 -14.891  0.00  0.00    +0.045 C 
ATOM     11  C   UNL     1      35.615 -24.050 -11.019  0.00  0.00    -0.023 C 
ATOM     12  C   UNL     1      37.748 -25.671 -14.458  0.00  0.00    +0.022 C 
ATOM     13  C   UNL     1      35.593 -23.968 -16.035  0.00  0.00    -0.035 C 
ATOM     14  C   UNL     1      37.036 -23.503 -11.095  0.00  0.00    -0.081 C 
ATOM     15  C   UNL     1      36.323 -22.838 -15.993  0.00  0.00    -0.050 C 
ATOM     16  C   UNL     1      39.457 -24.221 -13.573  0.00  0.00    -0.001 C 
ATOM     17  C   UNL     1      36.514 -21.970 -17.200  0.00  0.00    +0.026 C 
ATOM     18  C   UNL     1      40.421 -25.118 -13.811  0.00  0.00    +0.058 C 
ATOM     19  C   UNL     1      40.069 -26.429 -14.418  0.00  0.00    +0.249 C 
ATOM     20  H   UNL     1      36.619 -21.889 -12.256  0.00  0.00    -0.084 HD
ATOM     21  H   UNL     1      38.229 -22.420 -12.303  0.00  0.00    -0.084 HD
ATOM     22  H   UNL     1      38.459 -27.455 -15.130  0.00  0.00    +0.155 HD
ENDROOT
TORSDOF 0
ENDMDL
MODEL 2
REMARK VINA RESULT:      -6.8     16.174     18.860
REMARK  Name = 5462442
REMARK  0 active torsions:
REMARK  status: ('A' for Active; 'I' for Inactive)
REMARK                            x       y       z     vdW  Elec       q    Type
REMARK                         _______ _______ _______ _____ _____    ______ ____
ROOT
ATOM      1  O   UNL     1      31.396 -11.182 -18.110  0.00  0.00    -0.270 OA
ATOM      2  N   UNL     1      32.198  -9.374 -24.120  0.00  0.00    +0.389 N 
ATOM      3  N   UNL     1      32.325  -9.429 -19.290  0.00  0.00    -0.284 N 
ATOM      4  C   UNL     1      32.122  -8.452 -22.962  0.00  0.00    -0.021 C 
ATOM      5  C   UNL     1      33.386  -7.538 -22.934  0.00  0.00    -0.009 C 
ATOM      6  C   UNL     1      33.300  -6.650 -21.675  0.00  0.00    +0.025 C 
ATOM      7  C   UNL     1      34.704  -8.326 -23.026  0.00  0.00    -0.004 C 
ATOM      8  C   UNL     1      30.890  -7.513 -23.191  0.00  0.00    +0.006 C 
ATOM      9  C   UNL     1      31.927  -9.176 -21.613  0.00  0.00    -0.031 C 
ATOM     10  C   UNL     1      33.364  -7.502 -20.391  0.00  0.00    +0.045 C 
ATOM     11  C   UNL     1      34.670  -9.266 -24.224  0.00  0.00    -0.023 C 
ATOM     12  C   UNL     1      32.511  -8.745 -20.473  0.00  0.00    +0.022 C 
ATOM     13  C   UNL     1      32.007  -5.860 -21.679  0.00  0.00    -0.035 C 
ATOM     14  C   UNL     1      33.434 -10.156 -24.171  0.00  0.00    -0.081 C 
ATOM     15  C   UNL     1      30.914  -6.239 -22.367  0.00  0.00    -0.050 C 
ATOM     16  C   UNL     1      31.069 -10.350 -21.546  0.00  0.00    -0.001 C 
ATOM     17  C   UNL     1      29.652  -5.429 -22.365  0.00  0.00    +0.026 C 
ATOM     18  C   UNL     1      30.880 -11.026 -20.407  0.00  0.00    +0.058 C 
ATOM     19  C   UNL     1      31.551 -10.567 -19.162  0.00  0.00    +0.249 C 
ATOM     20  H   UNL     1      32.131  -8.822 -24.975  0.00  0.00    -0.084 HD
ATOM     21  H   UNL     1      31.429 -10.036 -24.023  0.00  0.00    -0.084 HD
ATOM     22  H   UNL     1      32.773  -9.084 -18.484  0.00  0.00    +0.155 HD
ENDROOT
TORSDOF 0
ENDMDL
MODEL 3
REMARK VINA RESULT:      -6.4      8.754     11.746
REMARK  Name = 5462442
REMARK  0 active torsions:
REMARK  status: ('A' for Active; 'I' for Inactive)
REMARK                            x       y       z     vdW  Elec       q    Type
REMARK                         _______ _______ _______ _____ _____    ______ ____
ROOT
ATOM      1  O   UNL     1      32.322 -14.270 -19.856  0.00  0.00    -0.270 OA
ATOM      2  N   UNL     1      35.938 -17.609 -23.831  0.00  0.00    +0.389 N 
ATOM      3  N   UNL     1      32.626 -16.464 -20.504  0.00  0.00    -0.284 N 
ATOM      4  C   UNL     1      35.332 -18.142 -22.589  0.00  0.00    -0.021 C 
ATOM      5  C   UNL     1      34.488 -19.412 -22.918  0.00  0.00    -0.009 C 
ATOM      6  C   UNL     1      33.818 -19.887 -21.611  0.00  0.00    +0.025 C 
ATOM      7  C   UNL     1      33.485 -19.190 -24.063  0.00  0.00    -0.004 C 
ATOM      8  C   UNL     1      36.503 -18.606 -21.658  0.00  0.00    +0.006 C 
ATOM      9  C   UNL     1      34.494 -17.100 -21.818  0.00  0.00    -0.031 C 
ATOM     10  C   UNL     1      32.817 -18.836 -21.088  0.00  0.00    +0.045 C 
ATOM     11  C   UNL     1      34.196 -18.611 -25.278  0.00  0.00    -0.023 C 
ATOM     12  C   UNL     1      33.356 -17.428 -21.168  0.00  0.00    +0.022 C 
ATOM     13  C   UNL     1      34.867 -20.142 -20.548  0.00  0.00    -0.035 C 
ATOM     14  C   UNL     1      34.969 -17.354 -24.898  0.00  0.00    -0.081 C 
ATOM     15  C   UNL     1      36.086 -19.572 -20.564  0.00  0.00    -0.050 C 
ATOM     16  C   UNL     1      34.945 -15.717 -21.761  0.00  0.00    -0.001 C 
ATOM     17  C   UNL     1      37.110 -19.854 -19.506  0.00  0.00    +0.026 C 
ATOM     18  C   UNL     1      34.248 -14.769 -21.123  0.00  0.00    +0.058 C 
ATOM     19  C   UNL     1      32.979 -15.129 -20.437  0.00  0.00    +0.249 C 
ATOM     20  H   UNL     1      36.621 -18.286 -24.172  0.00  0.00    -0.084 HD
ATOM     21  H   UNL     1      36.364 -16.713 -23.593  0.00  0.00    -0.084 HD
ATOM     22  H   UNL     1      31.800 -16.745 -20.048  0.00  0.00    +0.155 HD
ENDROOT
TORSDOF 0
ENDMDL
MODEL 4
REMARK VINA RESULT:      -6.0      2.512      4.192
REMARK  Name = 5462442
REMARK  0 active torsions:
REMARK  status: ('A' for Active; 'I' for Inactive)
REMARK                            x       y       z     vdW  Elec       q    Type
REMARK                         _______ _______ _______ _____ _____    ______ ____
ROOT
ATOM      1  O   UNL     1      37.145 -20.736 -17.589  0.00  0.00    -0.270 OA
ATOM      2  N   UNL     1      34.950 -24.694 -13.168  0.00  0.00    +0.389 N 
ATOM      3  N   UNL     1      37.930 -22.415 -16.212  0.00  0.00    -0.284 N 
ATOM      4  C   UNL     1      36.127 -24.956 -14.028  0.00  0.00    -0.021 C 
ATOM      5  C   UNL     1      37.367 -25.282 -13.139  0.00  0.00    -0.009 C 
ATOM      6  C   UNL     1      38.581 -25.474 -14.072  0.00  0.00    +0.025 C 
ATOM      7  C   UNL     1      37.612 -24.235 -12.039  0.00  0.00    -0.004 C 
ATOM      8  C   UNL     1      35.819 -26.245 -14.864  0.00  0.00    +0.006 C 
ATOM      9  C   UNL     1      36.434 -23.810 -15.015  0.00  0.00    -0.031 C 
ATOM     10  C   UNL     1      38.922 -24.165 -14.813  0.00  0.00    +0.045 C 
ATOM     11  C   UNL     1      36.338 -24.012 -11.234  0.00  0.00    -0.023 C 
ATOM     12  C   UNL     1      37.697 -23.456 -15.338  0.00  0.00    +0.022 C 
ATOM     13  C   UNL     1      38.293 -26.557 -15.091  0.00  0.00    -0.035 C 
ATOM     14  C   UNL     1      35.177 -23.661 -12.157  0.00  0.00    -0.081 C 
ATOM     15  C   UNL     1      37.046 -26.917 -15.451  0.00  0.00    -0.050 C 
ATOM     16  C   UNL     1      35.336 -23.093 -15.645  0.00  0.00    -0.001 C 
ATOM     17  C   UNL     1      36.790 -28.004 -16.451  0.00  0.00    +0.026 C 
ATOM     18  C   UNL     1      35.544 -22.078 -16.493  0.00  0.00    +0.058 C 
ATOM     19  C   UNL     1      36.936 -21.671 -16.821  0.00  0.00    +0.249 C 
ATOM     20  H   UNL     1      34.700 -25.562 -12.692  0.00  0.00    -0.084 HD
ATOM     21  H   UNL     1      34.206 -24.357 -13.778  0.00  0.00    -0.084 HD
ATOM     22  H   UNL     1      38.866 -22.186 -16.417  0.00  0.00    +0.155 HD
ENDROOT
TORSDOF 0
ENDMDL
MODEL 5
REMARK VINA RESULT:      -5.8      3.080      4.863
REMARK  Name = 5462442
REMARK  0 active torsions:
REMARK  status: ('A' for Active; 'I' for Inactive)
REMARK                            x       y       z     vdW  Elec       q    Type
REMARK                         _______ _______ _______ _____ _____    ______ ____
ROOT
ATOM      1  O   UNL     1      31.576 -22.702 -15.490  0.00  0.00    -0.270 OA
ATOM      2  N   UNL     1      35.812 -25.213 -11.519  0.00  0.00    +0.389 N 
ATOM      3  N   UNL     1      33.866 -22.788 -15.217  0.00  0.00    -0.284 N 
ATOM      4  C   UNL     1      36.073 -24.894 -12.942  0.00  0.00    -0.021 C 
ATOM      5  C   UNL     1      37.319 -23.962 -13.053  0.00  0.00    -0.009 C 
ATOM      6  C   UNL     1      37.506 -23.597 -14.541  0.00  0.00    +0.025 C 
ATOM      7  C   UNL     1      37.234 -22.729 -12.137  0.00  0.00    -0.004 C 
ATOM      8  C   UNL     1      36.445 -26.234 -13.661  0.00  0.00    +0.006 C 
ATOM      9  C   UNL     1      34.854 -24.285 -13.668  0.00  0.00    -0.031 C 
ATOM     10  C   UNL     1      36.312 -22.774 -15.064  0.00  0.00    +0.045 C 
ATOM     11  C   UNL     1      36.931 -23.157 -10.708  0.00  0.00    -0.023 C 
ATOM     12  C   UNL     1      34.981 -23.318 -14.603  0.00  0.00    +0.022 C 
ATOM     13  C   UNL     1      37.641 -24.856 -15.375  0.00  0.00    -0.035 C 
ATOM     14  C   UNL     1      35.683 -24.031 -10.664  0.00  0.00    -0.081 C 
ATOM     15  C   UNL     1      37.169 -26.054 -14.982  0.00  0.00    -0.050 C 
ATOM     16  C   UNL     1      33.518 -24.775 -13.361  0.00  0.00    -0.001 C 
ATOM     17  C   UNL     1      37.330 -27.285 -15.821  0.00  0.00    +0.026 C 
ATOM     18  C   UNL     1      32.425 -24.270 -13.947  0.00  0.00    +0.058 C 
ATOM     19  C   UNL     1      32.568 -23.184 -14.951  0.00  0.00    +0.249 C 
ATOM     20  H   UNL     1      36.586 -25.779 -11.169  0.00  0.00    -0.084 HD
ATOM     21  H   UNL     1      34.921 -25.706 -11.483  0.00  0.00    -0.084 HD
ATOM     22  H   UNL     1      34.003 -22.082 -15.890  0.00  0.00    +0.155 HD
ENDROOT
TORSDOF 0
ENDMDL
MODEL 6
REMARK VINA RESULT:      -5.8     18.372     20.350
REMARK  Name = 5462442
REMARK  0 active torsions:
REMARK  status: ('A' for Active; 'I' for Inactive)
REMARK                            x       y       z     vdW  Elec       q    Type
REMARK                         _______ _______ _______ _____ _____    ______ ____
ROOT
ATOM      1  O   UNL     1      31.964  -4.282 -26.626  0.00  0.00    -0.270 OA
ATOM      2  N   UNL     1      35.121  -8.966 -23.776  0.00  0.00    +0.389 N 
ATOM      3  N   UNL     1      31.535  -6.079 -25.243  0.00  0.00    -0.284 N 
ATOM      4  C   UNL     1      33.846  -8.388 -23.292  0.00  0.00    -0.021 C 
ATOM      5  C   UNL     1      32.790  -9.522 -23.109  0.00  0.00    -0.009 C 
ATOM      6  C   UNL     1      31.462  -8.866 -22.677  0.00  0.00    +0.025 C 
ATOM      7  C   UNL     1      32.644 -10.416 -24.352  0.00  0.00    -0.004 C 
ATOM      8  C   UNL     1      34.115  -7.788 -21.871  0.00  0.00    +0.006 C 
ATOM      9  C   UNL     1      33.302  -7.259 -24.192  0.00  0.00    -0.031 C 
ATOM     10  C   UNL     1      30.910  -7.948 -23.785  0.00  0.00    +0.045 C 
ATOM     11  C   UNL     1      34.008 -10.932 -24.791  0.00  0.00    -0.023 C 
ATOM     12  C   UNL     1      31.980  -7.091 -24.418  0.00  0.00    +0.022 C 
ATOM     13  C   UNL     1      31.667  -8.051 -21.416  0.00  0.00    -0.035 C 
ATOM     14  C   UNL     1      34.979  -9.774 -24.989  0.00  0.00    -0.081 C 
ATOM     15  C   UNL     1      32.864  -7.564 -21.040  0.00  0.00    -0.050 C 
ATOM     16  C   UNL     1      34.230  -6.321 -24.806  0.00  0.00    -0.001 C 
ATOM     17  C   UNL     1      33.041  -6.772 -19.780  0.00  0.00    +0.026 C 
ATOM     18  C   UNL     1      33.815  -5.335 -25.611  0.00  0.00    +0.058 C 
ATOM     19  C   UNL     1      32.362  -5.174 -25.883  0.00  0.00    +0.249 C 
ATOM     20  H   UNL     1      35.507  -9.557 -23.039  0.00  0.00    -0.084 HD
ATOM     21  H   UNL     1      35.732  -8.184 -24.009  0.00  0.00    -0.084 HD
ATOM     22  H   UNL     1      30.564  -5.995 -25.385  0.00  0.00    +0.155 HD
ENDROOT
TORSDOF 0
ENDMDL
MODEL 7
REMARK VINA RESULT:      -5.5     16.316     18.841
REMARK  Name = 5462442
REMARK  0 active torsions:
REMARK  status: ('A' for Active; 'I' for Inactive)
REMARK                            x       y       z     vdW  Elec       q    Type
REMARK                         _______ _______ _______ _____ _____    ______ ____
ROOT
ATOM      1  O   UNL     1      31.197 -11.246 -18.404  0.00  0.00    -0.270 OA
ATOM      2  N   UNL     1      32.753  -6.099 -21.738  0.00  0.00    +0.389 N 
ATOM      3  N   UNL     1      31.084 -10.483 -20.580  0.00  0.00    -0.284 N 
ATOM      4  C   UNL     1      32.648  -7.468 -22.295  0.00  0.00    -0.021 C 
ATOM      5  C   UNL     1      31.664  -7.469 -23.506  0.00  0.00    -0.009 C 
ATOM      6  C   UNL     1      31.529  -8.924 -24.005  0.00  0.00    +0.025 C 
ATOM      7  C   UNL     1      30.309  -6.815 -23.183  0.00  0.00    -0.004 C 
ATOM      8  C   UNL     1      34.057  -7.854 -22.858  0.00  0.00    +0.006 C 
ATOM      9  C   UNL     1      32.246  -8.528 -21.248  0.00  0.00    -0.031 C 
ATOM     10  C   UNL     1      30.881  -9.820 -22.930  0.00  0.00    +0.045 C 
ATOM     11  C   UNL     1      30.524  -5.431 -22.587  0.00  0.00    -0.023 C 
ATOM     12  C   UNL     1      31.434  -9.566 -21.548  0.00  0.00    +0.022 C 
ATOM     13  C   UNL     1      32.892  -9.484 -24.359  0.00  0.00    -0.035 C 
ATOM     14  C   UNL     1      31.462  -5.505 -21.387  0.00  0.00    -0.081 C 
ATOM     15  C   UNL     1      34.041  -9.002 -23.850  0.00  0.00    -0.050 C 
ATOM     16  C   UNL     1      32.770  -8.433 -19.894  0.00  0.00    -0.001 C 
ATOM     17  C   UNL     1      35.377  -9.566 -24.230  0.00  0.00    +0.026 C 
ATOM     18  C   UNL     1      32.439  -9.314 -18.941  0.00  0.00    +0.058 C 
ATOM     19  C   UNL     1      31.519 -10.435 -19.268  0.00  0.00    +0.249 C 
ATOM     20  H   UNL     1      33.204  -5.503 -22.433  0.00  0.00    -0.084 HD
ATOM     21  H   UNL     1      33.293  -6.170 -20.876  0.00  0.00    -0.084 HD
ATOM     22  H   UNL     1      30.486 -11.221 -20.840  0.00  0.00    +0.155 HD
ENDROOT
TORSDOF 0
ENDMDL
MODEL 8
REMARK VINA RESULT:      -5.4     16.682     19.266
REMARK  Name = 5462442
REMARK  0 active torsions:
REMARK  status: ('A' for Active; 'I' for Inactive)
REMARK                            x       y       z     vdW  Elec       q    Type
REMARK                         _______ _______ _______ _____ _____    ______ ____
ROOT
ATOM      1  O   UNL     1      36.053 -10.457 -25.499  0.00  0.00    -0.270 OA
ATOM      2  N   UNL     1      30.396  -8.276 -23.693  0.00  0.00    +0.389 N 
ATOM      3  N   UNL     1      35.168  -8.988 -23.955  0.00  0.00    -0.284 N 
ATOM      4  C   UNL     1      31.592  -8.349 -22.822  0.00  0.00    -0.021 C 
ATOM      5  C   UNL     1      31.886  -6.943 -22.213  0.00  0.00    -0.009 C 
ATOM      6  C   UNL     1      33.179  -7.051 -21.376  0.00  0.00    +0.025 C 
ATOM      7  C   UNL     1      31.946  -5.828 -23.272  0.00  0.00    -0.004 C 
ATOM      8  C   UNL     1      31.241  -9.295 -21.624  0.00  0.00    +0.006 C 
ATOM      9  C   UNL     1      32.836  -8.921 -23.533  0.00  0.00    -0.031 C 
ATOM     10  C   UNL     1      34.390  -7.390 -22.268  0.00  0.00    +0.045 C 
ATOM     11  C   UNL     1      30.692  -5.857 -24.135  0.00  0.00    -0.023 C 
ATOM     12  C   UNL     1      34.083  -8.462 -23.286  0.00  0.00    +0.022 C 
ATOM     13  C   UNL     1      33.028  -8.125 -20.318  0.00  0.00    -0.035 C 
ATOM     14  C   UNL     1      30.484  -7.245 -24.729  0.00  0.00    -0.081 C 
ATOM     15  C   UNL     1      32.150  -9.140 -20.419  0.00  0.00    -0.050 C 
ATOM     16  C   UNL     1      32.680 -10.008 -24.488  0.00  0.00    -0.001 C 
ATOM     17  C   UNL     1      32.012 -10.181 -19.349  0.00  0.00    +0.026 C 
ATOM     18  C   UNL     1      33.722 -10.529 -25.148  0.00  0.00    +0.058 C 
ATOM     19  C   UNL     1      35.088  -9.998 -24.896  0.00  0.00    +0.249 C 
ATOM     20  H   UNL     1      29.584  -8.076 -23.109  0.00  0.00    -0.084 HD
ATOM     21  H   UNL     1      30.321  -9.174 -24.171  0.00  0.00    -0.084 HD
ATOM     22  H   UNL     1      36.058  -8.621 -23.748  0.00  0.00    +0.155 HD
ENDROOT
TORSDOF 0
ENDMDL
MODEL 9
REMARK VINA RESULT:      -5.3      2.291      4.315
REMARK  Name = 5462442
REMARK  0 active torsions:
REMARK  status: ('A' for Active; 'I' for Inactive)
REMARK                            x       y       z     vdW  Elec       q    Type
REMARK                         _______ _______ _______ _____ _____    ______ ____
ROOT
ATOM      1  O   UNL     1      36.564 -22.671  -9.448  0.00  0.00    -0.270 OA
ATOM      2  N   UNL     1      36.297 -26.633 -14.373  0.00  0.00    +0.389 N 
ATOM      3  N   UNL     1      36.949 -22.645 -11.724  0.00  0.00    -0.284 N 
ATOM      4  C   UNL     1      36.144 -25.163 -14.462  0.00  0.00    -0.021 C 
ATOM      5  C   UNL     1      37.168 -24.587 -15.488  0.00  0.00    -0.009 C 
ATOM      6  C   UNL     1      37.022 -23.051 -15.491  0.00  0.00    +0.025 C 
ATOM      7  C   UNL     1      38.611 -25.054 -15.227  0.00  0.00    -0.004 C 
ATOM      8  C   UNL     1      34.716 -24.875 -15.039  0.00  0.00    +0.006 C 
ATOM      9  C   UNL     1      36.259 -24.450 -13.098  0.00  0.00    -0.031 C 
ATOM     10  C   UNL     1      37.410 -22.454 -14.123  0.00  0.00    +0.045 C 
ATOM     11  C   UNL     1      38.658 -26.572 -15.119  0.00  0.00    -0.023 C 
ATOM     12  C   UNL     1      36.851 -23.242 -12.964  0.00  0.00    +0.022 C 
ATOM     13  C   UNL     1      35.593 -22.662 -15.812  0.00  0.00    -0.035 C 
ATOM     14  C   UNL     1      37.664 -27.066 -14.075  0.00  0.00    -0.081 C 
ATOM     15  C   UNL     1      34.545 -23.483 -15.616  0.00  0.00    -0.050 C 
ATOM     16  C   UNL     1      35.695 -25.076 -11.911  0.00  0.00    -0.001 C 
ATOM     17  C   UNL     1      33.143 -23.076 -15.957  0.00  0.00    +0.026 C 
ATOM     18  C   UNL     1      35.784 -24.511 -10.701  0.00  0.00    +0.058 C 
ATOM     19  C   UNL     1      36.465 -23.198 -10.553  0.00  0.00    +0.249 C 
ATOM     20  H   UNL     1      36.019 -27.040 -15.266  0.00  0.00    -0.084 HD
ATOM     21  H   UNL     1      35.709 -26.948 -13.601  0.00  0.00    -0.084 HD
ATOM     22  H   UNL     1      37.393 -21.768 -11.670  0.00  0.00    +0.155 HD
ENDROOT
TORSDOF 0
ENDMDL
