MODEL 1
REMARK VINA RESULT:     -12.2      0.000      0.000
REMARK  Name = 11740318
REMARK  5 active torsions:
REMARK  status: ('A' for Active; 'I' for Inactive)
REMARK    1  A    between atoms: N_1  and  C_20
REMARK    2  A    between atoms: C_2  and  O_8
REMARK    3  A    between atoms: O_8  and  C_9
REMARK    4  A    between atoms: C_14  and  N_15
REMARK    5  A    between atoms: C_20  and  C_23
REMARK                            x       y       z     vdW  Elec       q    Type
REMARK                         _______ _______ _______ _____ _____    ______ ____
ROOT
ATOM      1  N   UNL     1      33.949 -23.372 -14.353  0.00  0.00    +0.392 N 
ATOM      2  C   UNL     1      33.887 -22.894 -16.781  0.00  0.00    +0.145 C 
ATOM      3  C   UNL     1      34.643 -23.567 -15.632  0.00  0.00    -0.032 C 
ATOM      4  C   UNL     1      32.446 -23.390 -16.858  0.00  0.00    +0.039 C 
ATOM      5  C   UNL     1      31.762 -23.254 -15.505  0.00  0.00    -0.019 C 
ATOM      6  C   UNL     1      32.585 -23.917 -14.398  0.00  0.00    -0.077 C 
ATOM      7  H   UNL     1      33.880 -22.368 -14.183  0.00  0.00    -0.079 HD
ENDROOT
BRANCH   2   8
ATOM      8  O   UNL     1      34.533 -23.183 -18.016  0.00  0.00    -0.481 OA
BRANCH   8   9
ATOM      9  C   UNL     1      34.656 -22.148 -18.904  0.00  0.00    +0.138 C 
ATOM     10  C   UNL     1      33.515 -21.563 -19.443  0.00  0.00    +0.038 C 
ATOM     11  C   UNL     1      35.921 -21.691 -19.259  0.00  0.00    +0.038 C 
ATOM     12  C   UNL     1      33.641 -20.508 -20.349  0.00  0.00    +0.018 C 
ATOM     13  C   UNL     1      36.046 -20.637 -20.163  0.00  0.00    +0.018 C 
ATOM     14  C   UNL     1      34.906 -20.045 -20.708  0.00  0.00    +0.057 C 
BRANCH  14  15
ATOM     15  N   UNL     1      35.031 -18.999 -21.604  0.00  0.00    -0.246 N 
ATOM     16  N   UNL     1      35.060 -17.901 -23.543  0.00  0.00    -0.224 NA
ATOM     17  C   UNL     1      35.324 -17.694 -21.302  0.00  0.00    +0.092 C 
ATOM     18  C   UNL     1      34.882 -19.068 -22.967  0.00  0.00    +0.172 C 
ATOM     19  C   UNL     1      35.336 -17.040 -22.511  0.00  0.00    +0.117 C 
ENDBRANCH  14  15
ENDBRANCH   8   9
ENDBRANCH   2   8
BRANCH   1  20
ATOM     20  C   UNL     1      34.708 -23.980 -13.260  0.00  0.00    -0.050 C 
BRANCH  20  23
ATOM     21  O   UNL     1      39.592 -24.631 -13.573  0.00  0.00    -0.435 OA
ATOM     22  O   UNL     1      39.362 -26.525 -15.044  0.00  0.00    -0.435 OA
ATOM     23  C   UNL     1      35.939 -24.689 -13.759  0.00  0.00    -0.040 C 
ATOM     24  C   UNL     1      37.192 -24.237 -13.360  0.00  0.00    +0.034 C 
ATOM     25  C   UNL     1      35.794 -25.788 -14.614  0.00  0.00    -0.003 C 
ATOM     26  C   UNL     1      38.290 -24.919 -13.844  0.00  0.00    +0.176 C 
ATOM     27  C   UNL     1      36.922 -26.461 -15.088  0.00  0.00    +0.040 C 
ATOM     28  C   UNL     1      38.159 -26.000 -14.685  0.00  0.00    +0.176 C 
ATOM     29  C   UNL     1      40.266 -25.653 -14.335  0.00  0.00    +0.429 C 
ENDBRANCH  20  23
ENDBRANCH   1  20
TORSDOF 5
ENDMDL
MODEL 2
REMARK VINA RESULT:     -11.7      6.089     10.265
REMARK  Name = 11740318
REMARK  5 active torsions:
REMARK  status: ('A' for Active; 'I' for Inactive)
REMARK    1  A    between atoms: N_1  and  C_20
REMARK    2  A    between atoms: C_2  and  O_8
REMARK    3  A    between atoms: O_8  and  C_9
REMARK    4  A    between atoms: C_14  and  N_15
REMARK    5  A    between atoms: C_20  and  C_23
REMARK                            x       y       z     vdW  Elec       q    Type
REMARK                         _______ _______ _______ _____ _____    ______ ____
ROOT
ATOM      1  N   UNL     1      35.094 -16.527 -22.324  0.00  0.00    +0.392 N 
ATOM      2  C   UNL     1      33.816 -14.415 -22.513  0.00  0.00    +0.145 C 
ATOM      3  C   UNL     1      34.019 -15.836 -23.047  0.00  0.00    -0.032 C 
ATOM      4  C   UNL     1      33.546 -14.425 -21.011  0.00  0.00    +0.039 C 
ATOM      5  C   UNL     1      34.626 -15.211 -20.280  0.00  0.00    -0.019 C 
ATOM      6  C   UNL     1      34.803 -16.605 -20.886  0.00  0.00    -0.077 C 
ATOM      7  H   UNL     1      35.950 -15.985 -22.441  0.00  0.00    -0.079 HD
ENDROOT
BRANCH   2   8
ATOM      8  O   UNL     1      32.707 -13.809 -23.168  0.00  0.00    -0.481 OA
BRANCH   8   9
ATOM      9  C   UNL     1      32.505 -12.476 -22.931  0.00  0.00    +0.138 C 
ATOM     10  C   UNL     1      31.556 -12.078 -21.996  0.00  0.00    +0.038 C 
ATOM     11  C   UNL     1      33.251 -11.531 -23.628  0.00  0.00    +0.038 C 
ATOM     12  C   UNL     1      31.349 -10.719 -21.754  0.00  0.00    +0.018 C 
ATOM     13  C   UNL     1      33.045 -10.173 -23.387  0.00  0.00    +0.018 C 
ATOM     14  C   UNL     1      32.095  -9.767 -22.449  0.00  0.00    +0.057 C 
BRANCH  14  15
ATOM     15  N   UNL     1      31.892  -8.420 -22.210  0.00  0.00    -0.246 N 
ATOM     16  N   UNL     1      31.198  -6.324 -22.517  0.00  0.00    -0.224 NA
ATOM     17  C   UNL     1      32.314  -7.711 -21.115  0.00  0.00    +0.092 C 
ATOM     18  C   UNL     1      31.225  -7.537 -23.022  0.00  0.00    +0.172 C 
ATOM     19  C   UNL     1      31.875  -6.426 -21.327  0.00  0.00    +0.117 C 
ENDBRANCH  14  15
ENDBRANCH   8   9
ENDBRANCH   2   8
BRANCH   1  20
ATOM     20  C   UNL     1      35.307 -17.864 -22.877  0.00  0.00    -0.050 C 
BRANCH  20  23
ATOM     21  O   UNL     1      32.899 -21.136 -20.071  0.00  0.00    -0.435 OA
ATOM     22  O   UNL     1      34.915 -21.829 -18.947  0.00  0.00    -0.435 OA
ATOM     23  C   UNL     1      35.238 -18.928 -21.815  0.00  0.00    -0.040 C 
ATOM     24  C   UNL     1      34.009 -19.496 -21.500  0.00  0.00    +0.034 C 
ATOM     25  C   UNL     1      36.415 -19.324 -21.168  0.00  0.00    -0.003 C 
ATOM     26  C   UNL     1      33.996 -20.467 -20.520  0.00  0.00    +0.176 C 
ATOM     27  C   UNL     1      36.375 -20.310 -20.180  0.00  0.00    +0.040 C 
ATOM     28  C   UNL     1      35.147 -20.863 -19.877  0.00  0.00    +0.176 C 
ATOM     29  C   UNL     1      33.488 -21.998 -19.076  0.00  0.00    +0.429 C 
ENDBRANCH  20  23
ENDBRANCH   1  20
TORSDOF 5
ENDMDL
MODEL 3
REMARK VINA RESULT:     -11.6      3.365      5.764
REMARK  Name = 11740318
REMARK  5 active torsions:
REMARK  status: ('A' for Active; 'I' for Inactive)
REMARK    1  A    between atoms: N_1  and  C_20
REMARK    2  A    between atoms: C_2  and  O_8
REMARK    3  A    between atoms: O_8  and  C_9
REMARK    4  A    between atoms: C_14  and  N_15
REMARK    5  A    between atoms: C_20  and  C_23
REMARK                            x       y       z     vdW  Elec       q    Type
REMARK                         _______ _______ _______ _____ _____    ______ ____
ROOT
ATOM      1  N   UNL     1      35.400 -20.677 -19.485  0.00  0.00    +0.392 N 
ATOM      2  C   UNL     1      34.897 -18.807 -21.027  0.00  0.00    +0.145 C 
ATOM      3  C   UNL     1      35.916 -19.865 -20.594  0.00  0.00    -0.032 C 
ATOM      4  C   UNL     1      33.561 -19.446 -21.393  0.00  0.00    +0.039 C 
ATOM      5  C   UNL     1      33.074 -20.347 -20.266  0.00  0.00    -0.019 C 
ATOM      6  C   UNL     1      34.151 -21.355 -19.859  0.00  0.00    -0.077 C 
ATOM      7  H   UNL     1      35.196 -20.051 -18.706  0.00  0.00    -0.079 HD
ENDROOT
BRANCH   2   8
ATOM      8  O   UNL     1      35.388 -18.103 -22.163  0.00  0.00    -0.481 OA
BRANCH   8   9
ATOM      9  C   UNL     1      34.900 -16.840 -22.364  0.00  0.00    +0.138 C 
ATOM     10  C   UNL     1      34.695 -16.378 -23.659  0.00  0.00    +0.038 C 
ATOM     11  C   UNL     1      34.613 -16.030 -21.270  0.00  0.00    +0.038 C 
ATOM     12  C   UNL     1      34.197 -15.090 -23.864  0.00  0.00    +0.018 C 
ATOM     13  C   UNL     1      34.115 -14.744 -21.474  0.00  0.00    +0.018 C 
ATOM     14  C   UNL     1      33.907 -14.274 -22.771  0.00  0.00    +0.057 C 
BRANCH  14  15
ATOM     15  N   UNL     1      33.412 -12.998 -22.974  0.00  0.00    -0.246 N 
ATOM     16  N   UNL     1      32.158 -11.175 -22.703  0.00  0.00    -0.224 NA
ATOM     17  C   UNL     1      33.846 -12.091 -23.907  0.00  0.00    +0.092 C 
ATOM     18  C   UNL     1      32.396 -12.395 -22.276  0.00  0.00    +0.172 C 
ATOM     19  C   UNL     1      33.059 -10.980 -23.720  0.00  0.00    +0.117 C 
ENDBRANCH  14  15
ENDBRANCH   8   9
ENDBRANCH   2   8
BRANCH   1  20
ATOM     20  C   UNL     1      36.402 -21.651 -19.053  0.00  0.00    -0.050 C 
BRANCH  20  23
ATOM     21  O   UNL     1      37.673 -22.764 -14.413  0.00  0.00    -0.435 OA
ATOM     22  O   UNL     1      35.467 -23.574 -13.881  0.00  0.00    -0.435 OA
ATOM     23  C   UNL     1      36.115 -22.175 -17.671  0.00  0.00    -0.040 C 
ATOM     24  C   UNL     1      37.131 -22.182 -16.722  0.00  0.00    +0.034 C 
ATOM     25  C   UNL     1      34.830 -22.644 -17.372  0.00  0.00    -0.003 C 
ATOM     26  C   UNL     1      36.820 -22.672 -15.470  0.00  0.00    +0.176 C 
ATOM     27  C   UNL     1      34.542 -23.134 -16.097  0.00  0.00    +0.040 C 
ATOM     28  C   UNL     1      35.560 -23.136 -15.166  0.00  0.00    +0.176 C 
ATOM     29  C   UNL     1      36.808 -23.335 -13.410  0.00  0.00    +0.429 C 
ENDBRANCH  20  23
ENDBRANCH   1  20
TORSDOF 5
ENDMDL
MODEL 4
REMARK VINA RESULT:     -11.6      4.733      9.149
REMARK  Name = 11740318
REMARK  5 active torsions:
REMARK  status: ('A' for Active; 'I' for Inactive)
REMARK    1  A    between atoms: N_1  and  C_20
REMARK    2  A    between atoms: C_2  and  O_8
REMARK    3  A    between atoms: O_8  and  C_9
REMARK    4  A    between atoms: C_14  and  N_15
REMARK    5  A    between atoms: C_20  and  C_23
REMARK                            x       y       z     vdW  Elec       q    Type
REMARK                         _______ _______ _______ _____ _____    ______ ____
ROOT
ATOM      1  N   UNL     1      35.040 -18.080 -22.775  0.00  0.00    +0.392 N 
ATOM      2  C   UNL     1      33.914 -16.452 -24.263  0.00  0.00    +0.145 C 
ATOM      3  C   UNL     1      34.988 -16.673 -23.193  0.00  0.00    -0.032 C 
ATOM      4  C   UNL     1      34.131 -17.372 -25.460  0.00  0.00    +0.039 C 
ATOM      5  C   UNL     1      34.261 -18.819 -25.005  0.00  0.00    -0.019 C 
ATOM      6  C   UNL     1      35.324 -18.963 -23.914  0.00  0.00    -0.077 C 
ATOM      7  H   UNL     1      34.123 -18.331 -22.405  0.00  0.00    -0.079 HD
ENDROOT
BRANCH   2   8
ATOM      8  O   UNL     1      33.956 -15.103 -24.714  0.00  0.00    -0.481 OA
BRANCH   8   9
ATOM      9  C   UNL     1      33.478 -14.150 -23.855  0.00  0.00    +0.138 C 
ATOM     10  C   UNL     1      33.693 -12.804 -24.129  0.00  0.00    +0.038 C 
ATOM     11  C   UNL     1      32.781 -14.538 -22.715  0.00  0.00    +0.038 C 
ATOM     12  C   UNL     1      33.205 -11.833 -23.253  0.00  0.00    +0.018 C 
ATOM     13  C   UNL     1      32.294 -13.568 -21.840  0.00  0.00    +0.018 C 
ATOM     14  C   UNL     1      32.506 -12.215 -22.109  0.00  0.00    +0.057 C 
BRANCH  14  15
ATOM     15  N   UNL     1      32.022 -11.253 -21.241  0.00  0.00    -0.246 N 
ATOM     16  N   UNL     1      31.449  -9.249 -20.451  0.00  0.00    -0.224 NA
ATOM     17  C   UNL     1      31.503 -11.467 -19.990  0.00  0.00    +0.092 C 
ATOM     18  C   UNL     1      31.965  -9.900 -21.469  0.00  0.00    +0.172 C 
ATOM     19  C   UNL     1      31.158 -10.220 -19.525  0.00  0.00    +0.117 C 
ENDBRANCH  14  15
ENDBRANCH   8   9
ENDBRANCH   2   8
BRANCH   1  20
ATOM     20  C   UNL     1      36.038 -18.265 -21.722  0.00  0.00    -0.050 C 
BRANCH  20  23
ATOM     21  O   UNL     1      32.940 -21.401 -19.498  0.00  0.00    -0.435 OA
ATOM     22  O   UNL     1      34.742 -22.672 -18.525  0.00  0.00    -0.435 OA
ATOM     23  C   UNL     1      35.725 -19.456 -20.856  0.00  0.00    -0.040 C 
ATOM     24  C   UNL     1      34.398 -19.806 -20.633  0.00  0.00    +0.034 C 
ATOM     25  C   UNL     1      36.779 -20.188 -20.296  0.00  0.00    -0.003 C 
ATOM     26  C   UNL     1      34.162 -20.905 -19.834  0.00  0.00    +0.176 C 
ATOM     27  C   UNL     1      36.513 -21.297 -19.491  0.00  0.00    +0.040 C 
ATOM     28  C   UNL     1      35.191 -21.631 -19.278  0.00  0.00    +0.176 C 
ATOM     29  C   UNL     1      33.315 -22.521 -18.670  0.00  0.00    +0.429 C 
ENDBRANCH  20  23
ENDBRANCH   1  20
TORSDOF 5
ENDMDL
MODEL 5
REMARK VINA RESULT:     -11.5      5.578     12.268
REMARK  Name = 11740318
REMARK  5 active torsions:
REMARK  status: ('A' for Active; 'I' for Inactive)
REMARK    1  A    between atoms: N_1  and  C_20
REMARK    2  A    between atoms: C_2  and  O_8
REMARK    3  A    between atoms: O_8  and  C_9
REMARK    4  A    between atoms: C_14  and  N_15
REMARK    5  A    between atoms: C_20  and  C_23
REMARK                            x       y       z     vdW  Elec       q    Type
REMARK                         _______ _______ _______ _____ _____    ______ ____
ROOT
ATOM      1  N   UNL     1      33.618 -14.915 -23.025  0.00  0.00    +0.392 N 
ATOM      2  C   UNL     1      33.991 -17.170 -22.075  0.00  0.00    +0.145 C 
ATOM      3  C   UNL     1      34.020 -16.293 -23.331  0.00  0.00    -0.032 C 
ATOM      4  C   UNL     1      34.861 -16.578 -20.970  0.00  0.00    +0.039 C 
ATOM      5  C   UNL     1      34.486 -15.124 -20.717  0.00  0.00    -0.019 C 
ATOM      6  C   UNL     1      34.500 -14.314 -22.015  0.00  0.00    -0.077 C 
ATOM      7  H   UNL     1      32.673 -14.941 -22.641  0.00  0.00    -0.079 HD
ENDROOT
BRANCH   2   8
ATOM      8  O   UNL     1      34.478 -18.471 -22.386  0.00  0.00    -0.481 OA
BRANCH   8   9
ATOM      9  C   UNL     1      34.434 -19.401 -21.382  0.00  0.00    +0.138 C 
ATOM     10  C   UNL     1      33.210 -19.757 -20.826  0.00  0.00    +0.038 C 
ATOM     11  C   UNL     1      35.614 -19.982 -20.928  0.00  0.00    +0.038 C 
ATOM     12  C   UNL     1      33.166 -20.706 -19.802  0.00  0.00    +0.018 C 
ATOM     13  C   UNL     1      35.569 -20.929 -19.906  0.00  0.00    +0.018 C 
ATOM     14  C   UNL     1      34.345 -21.291 -19.343  0.00  0.00    +0.057 C 
BRANCH  14  15
ATOM     15  N   UNL     1      34.301 -22.232 -18.330  0.00  0.00    -0.246 N 
ATOM     16  N   UNL     1      34.965 -23.479 -16.605  0.00  0.00    -0.224 NA
ATOM     17  C   UNL     1      33.235 -23.029 -18.000  0.00  0.00    +0.092 C 
ATOM     18  C   UNL     1      35.316 -22.543 -17.459  0.00  0.00    +0.172 C 
ATOM     19  C   UNL     1      33.669 -23.786 -16.937  0.00  0.00    +0.117 C 
ENDBRANCH  14  15
ENDBRANCH   8   9
ENDBRANCH   2   8
BRANCH   1  20
ATOM     20  C   UNL     1      33.606 -14.103 -24.242  0.00  0.00    -0.050 C 
BRANCH  20  23
ATOM     21  O   UNL     1      31.466 -10.348 -21.855  0.00  0.00    -0.435 OA
ATOM     22  O   UNL     1      32.782  -8.703 -23.024  0.00  0.00    -0.435 OA
ATOM     23  C   UNL     1      33.410 -12.641 -23.939  0.00  0.00    -0.040 C 
ATOM     24  C   UNL     1      32.471 -12.264 -22.986  0.00  0.00    +0.034 C 
ATOM     25  C   UNL     1      34.180 -11.694 -24.624  0.00  0.00    -0.003 C 
ATOM     26  C   UNL     1      32.328 -10.913 -22.743  0.00  0.00    +0.176 C 
ATOM     27  C   UNL     1      34.016 -10.333 -24.359  0.00  0.00    +0.040 C 
ATOM     28  C   UNL     1      33.079  -9.973 -23.412  0.00  0.00    +0.176 C 
ATOM     29  C   UNL     1      31.760  -8.948 -22.037  0.00  0.00    +0.429 C 
ENDBRANCH  20  23
ENDBRANCH   1  20
TORSDOF 5
ENDMDL
MODEL 6
REMARK VINA RESULT:     -11.3      3.308     10.174
REMARK  Name = 11740318
REMARK  5 active torsions:
REMARK  status: ('A' for Active; 'I' for Inactive)
REMARK    1  A    between atoms: N_1  and  C_20
REMARK    2  A    between atoms: C_2  and  O_8
REMARK    3  A    between atoms: O_8  and  C_9
REMARK    4  A    between atoms: C_14  and  N_15
REMARK    5  A    between atoms: C_20  and  C_23
REMARK                            x       y       z     vdW  Elec       q    Type
REMARK                         _______ _______ _______ _____ _____    ______ ____
ROOT
ATOM      1  N   UNL     1      35.162 -19.696 -21.360  0.00  0.00    +0.392 N 
ATOM      2  C   UNL     1      34.968 -21.626 -19.822  0.00  0.00    +0.145 C 
ATOM      3  C   UNL     1      35.809 -20.424 -20.261  0.00  0.00    -0.032 C 
ATOM      4  C   UNL     1      33.554 -21.199 -19.439  0.00  0.00    +0.039 C 
ATOM      5  C   UNL     1      32.923 -20.379 -20.555  0.00  0.00    -0.019 C 
ATOM      6  C   UNL     1      33.829 -19.217 -20.969  0.00  0.00    -0.077 C 
ATOM      7  H   UNL     1      35.047 -20.343 -22.140  0.00  0.00    -0.079 HD
ENDROOT
BRANCH   2   8
ATOM      8  O   UNL     1      35.574 -22.251 -18.696  0.00  0.00    -0.481 OA
BRANCH   8   9
ATOM      9  C   UNL     1      34.736 -22.649 -17.688  0.00  0.00    +0.138 C 
ATOM     10  C   UNL     1      33.433 -23.032 -17.986  0.00  0.00    +0.038 C 
ATOM     11  C   UNL     1      35.197 -22.669 -16.376  0.00  0.00    +0.038 C 
ATOM     12  C   UNL     1      32.579 -23.438 -16.959  0.00  0.00    +0.018 C 
ATOM     13  C   UNL     1      34.344 -23.074 -15.350  0.00  0.00    +0.018 C 
ATOM     14  C   UNL     1      33.035 -23.459 -15.642  0.00  0.00    +0.057 C 
BRANCH  14  15
ATOM     15  N   UNL     1      32.190 -23.863 -14.624  0.00  0.00    -0.246 N 
ATOM     16  N   UNL     1      31.370 -25.083 -12.949  0.00  0.00    -0.224 NA
ATOM     17  C   UNL     1      31.045 -23.230 -14.212  0.00  0.00    +0.092 C 
ATOM     18  C   UNL     1      32.339 -24.973 -13.830  0.00  0.00    +0.172 C 
ATOM     19  C   UNL     1      30.560 -23.999 -13.182  0.00  0.00    +0.117 C 
ENDBRANCH  14  15
ENDBRANCH   8   9
ENDBRANCH   2   8
BRANCH   1  20
ATOM     20  C   UNL     1      35.999 -18.580 -21.798  0.00  0.00    -0.050 C 
BRANCH  20  23
ATOM     21  O   UNL     1      33.966 -14.483 -23.660  0.00  0.00    -0.435 OA
ATOM     22  O   UNL     1      33.561 -15.517 -25.798  0.00  0.00    -0.435 OA
ATOM     23  C   UNL     1      35.345 -17.785 -22.897  0.00  0.00    -0.040 C 
ATOM     24  C   UNL     1      34.986 -16.463 -22.659  0.00  0.00    +0.034 C 
ATOM     25  C   UNL     1      35.114 -18.395 -24.136  0.00  0.00    -0.003 C 
ATOM     26  C   UNL     1      34.389 -15.776 -23.697  0.00  0.00    +0.176 C 
ATOM     27  C   UNL     1      34.509 -17.677 -25.169  0.00  0.00    +0.040 C 
ATOM     28  C   UNL     1      34.157 -16.367 -24.918  0.00  0.00    +0.176 C 
ATOM     29  C   UNL     1      33.443 -14.326 -24.995  0.00  0.00    +0.429 C 
ENDBRANCH  20  23
ENDBRANCH   1  20
TORSDOF 5
ENDMDL
MODEL 7
REMARK VINA RESULT:     -11.0      3.206      5.939
REMARK  Name = 11740318
REMARK  5 active torsions:
REMARK  status: ('A' for Active; 'I' for Inactive)
REMARK    1  A    between atoms: N_1  and  C_20
REMARK    2  A    between atoms: C_2  and  O_8
REMARK    3  A    between atoms: O_8  and  C_9
REMARK    4  A    between atoms: C_14  and  N_15
REMARK    5  A    between atoms: C_20  and  C_23
REMARK                            x       y       z     vdW  Elec       q    Type
REMARK                         _______ _______ _______ _____ _____    ______ ____
ROOT
ATOM      1  N   UNL     1      34.679 -21.188 -19.281  0.00  0.00    +0.392 N 
ATOM      2  C   UNL     1      35.018 -19.291 -20.836  0.00  0.00    +0.145 C 
ATOM      3  C   UNL     1      35.574 -20.611 -20.292  0.00  0.00    -0.032 C 
ATOM      4  C   UNL     1      33.609 -19.474 -21.391  0.00  0.00    +0.039 C 
ATOM      5  C   UNL     1      32.711 -20.144 -20.360  0.00  0.00    -0.019 C 
ATOM      6  C   UNL     1      33.341 -21.436 -19.834  0.00  0.00    -0.077 C 
ATOM      7  H   UNL     1      34.585 -20.511 -18.523  0.00  0.00    -0.079 HD
ENDROOT
BRANCH   2   8
ATOM      8  O   UNL     1      35.857 -18.809 -21.879  0.00  0.00    -0.481 OA
BRANCH   8   9
ATOM      9  C   UNL     1      35.340 -17.827 -22.681  0.00  0.00    +0.138 C 
ATOM     10  C   UNL     1      35.115 -18.085 -24.029  0.00  0.00    +0.038 C 
ATOM     11  C   UNL     1      35.046 -16.579 -22.141  0.00  0.00    +0.038 C 
ATOM     12  C   UNL     1      34.588 -17.084 -24.847  0.00  0.00    +0.018 C 
ATOM     13  C   UNL     1      34.520 -15.579 -22.958  0.00  0.00    +0.018 C 
ATOM     14  C   UNL     1      34.290 -15.832 -24.311  0.00  0.00    +0.057 C 
BRANCH  14  15
ATOM     15  N   UNL     1      33.768 -14.840 -25.120  0.00  0.00    -0.246 N 
ATOM     16  N   UNL     1      33.210 -12.803 -25.836  0.00  0.00    -0.224 NA
ATOM     17  C   UNL     1      33.135 -15.015 -26.324  0.00  0.00    +0.092 C 
ATOM     18  C   UNL     1      33.786 -13.489 -24.874  0.00  0.00    +0.172 C 
ATOM     19  C   UNL     1      32.803 -13.749 -26.743  0.00  0.00    +0.117 C 
ENDBRANCH  14  15
ENDBRANCH   8   9
ENDBRANCH   2   8
BRANCH   1  20
ATOM     20  C   UNL     1      35.247 -22.422 -18.739  0.00  0.00    -0.050 C 
BRANCH  20  23
ATOM     21  O   UNL     1      31.533 -23.757 -15.772  0.00  0.00    -0.435 OA
ATOM     22  O   UNL     1      32.936 -23.731 -13.813  0.00  0.00    -0.435 OA
ATOM     23  C   UNL     1      34.658 -22.769 -17.398  0.00  0.00    -0.040 C 
ATOM     24  C   UNL     1      33.311 -23.101 -17.312  0.00  0.00    +0.034 C 
ATOM     25  C   UNL     1      35.481 -22.750 -16.266  0.00  0.00    -0.003 C 
ATOM     26  C   UNL     1      32.817 -23.411 -16.061  0.00  0.00    +0.176 C 
ATOM     27  C   UNL     1      34.957 -23.069 -15.011  0.00  0.00    +0.040 C 
ATOM     28  C   UNL     1      33.618 -23.396 -14.942  0.00  0.00    +0.176 C 
ATOM     29  C   UNL     1      31.616 -23.959 -14.347  0.00  0.00    +0.429 C 
ENDBRANCH  20  23
ENDBRANCH   1  20
TORSDOF 5
ENDMDL
MODEL 8
REMARK VINA RESULT:     -10.9      2.187      3.225
REMARK  Name = 11740318
REMARK  5 active torsions:
REMARK  status: ('A' for Active; 'I' for Inactive)
REMARK    1  A    between atoms: N_1  and  C_20
REMARK    2  A    between atoms: C_2  and  O_8
REMARK    3  A    between atoms: O_8  and  C_9
REMARK    4  A    between atoms: C_14  and  N_15
REMARK    5  A    between atoms: C_20  and  C_23
REMARK                            x       y       z     vdW  Elec       q    Type
REMARK                         _______ _______ _______ _____ _____    ______ ____
ROOT
ATOM      1  N   UNL     1      36.224 -22.293 -16.629  0.00  0.00    +0.392 N 
ATOM      2  C   UNL     1      35.231 -21.609 -18.792  0.00  0.00    +0.145 C 
ATOM      3  C   UNL     1      36.506 -22.004 -18.041  0.00  0.00    -0.032 C 
ATOM      4  C   UNL     1      34.158 -22.685 -18.657  0.00  0.00    +0.039 C 
ATOM      5  C   UNL     1      33.930 -23.032 -17.192  0.00  0.00    -0.019 C 
ATOM      6  C   UNL     1      35.246 -23.381 -16.494  0.00  0.00    -0.077 C 
ATOM      7  H   UNL     1      35.820 -21.454 -16.212  0.00  0.00    -0.079 HD
ENDROOT
BRANCH   2   8
ATOM      8  O   UNL     1      35.523 -21.430 -20.173  0.00  0.00    -0.481 OA
BRANCH   8   9
ATOM      9  C   UNL     1      35.293 -20.185 -20.695  0.00  0.00    +0.138 C 
ATOM     10  C   UNL     1      33.995 -19.689 -20.749  0.00  0.00    +0.038 C 
ATOM     11  C   UNL     1      36.361 -19.428 -21.166  0.00  0.00    +0.038 C 
ATOM     12  C   UNL     1      33.762 -18.420 -21.281  0.00  0.00    +0.018 C 
ATOM     13  C   UNL     1      36.127 -18.160 -21.698  0.00  0.00    +0.018 C 
ATOM     14  C   UNL     1      34.828 -17.656 -21.755  0.00  0.00    +0.057 C 
BRANCH  14  15
ATOM     15  N   UNL     1      34.597 -16.398 -22.281  0.00  0.00    -0.246 N 
ATOM     16  N   UNL     1      34.227 -14.201 -22.361  0.00  0.00    -0.224 NA
ATOM     17  C   UNL     1      34.498 -16.073 -23.610  0.00  0.00    +0.092 C 
ATOM     18  C   UNL     1      34.426 -15.234 -21.573  0.00  0.00    +0.172 C 
ATOM     19  C   UNL     1      34.271 -14.717 -23.632  0.00  0.00    +0.117 C 
ENDBRANCH  14  15
ENDBRANCH   8   9
ENDBRANCH   2   8
BRANCH   1  20
ATOM     20  C   UNL     1      37.458 -22.622 -15.917  0.00  0.00    -0.050 C 
BRANCH  20  23
ATOM     21  O   UNL     1      35.462 -23.509 -11.489  0.00  0.00    -0.435 OA
ATOM     22  O   UNL     1      36.410 -25.721 -11.376  0.00  0.00    -0.435 OA
ATOM     23  C   UNL     1      37.197 -23.483 -14.710  0.00  0.00    -0.040 C 
ATOM     24  C   UNL     1      36.409 -22.986 -13.678  0.00  0.00    +0.034 C 
ATOM     25  C   UNL     1      37.752 -24.767 -14.654  0.00  0.00    -0.003 C 
ATOM     26  C   UNL     1      36.197 -23.812 -12.593  0.00  0.00    +0.176 C 
ATOM     27  C   UNL     1      37.522 -25.583 -13.545  0.00  0.00    +0.040 C 
ATOM     28  C   UNL     1      36.740 -25.076 -12.528  0.00  0.00    +0.176 C 
ATOM     29  C   UNL     1      35.600 -24.723 -10.723  0.00  0.00    +0.429 C 
ENDBRANCH  20  23
ENDBRANCH   1  20
TORSDOF 5
ENDMDL
MODEL 9
REMARK VINA RESULT:     -10.9      5.759     10.425
REMARK  Name = 11740318
REMARK  5 active torsions:
REMARK  status: ('A' for Active; 'I' for Inactive)
REMARK    1  A    between atoms: N_1  and  C_20
REMARK    2  A    between atoms: C_2  and  O_8
REMARK    3  A    between atoms: O_8  and  C_9
REMARK    4  A    between atoms: C_14  and  N_15
REMARK    5  A    between atoms: C_20  and  C_23
REMARK                            x       y       z     vdW  Elec       q    Type
REMARK                         _______ _______ _______ _____ _____    ______ ____
ROOT
ATOM      1  N   UNL     1      34.355 -16.489 -23.267  0.00  0.00    +0.392 N 
ATOM      2  C   UNL     1      33.417 -14.750 -24.759  0.00  0.00    +0.145 C 
ATOM      3  C   UNL     1      34.428 -15.075 -23.655  0.00  0.00    -0.032 C 
ATOM      4  C   UNL     1      33.611 -15.660 -25.968  0.00  0.00    +0.039 C 
ATOM      5  C   UNL     1      33.611 -17.122 -25.541  0.00  0.00    -0.019 C 
ATOM      6  C   UNL     1      34.616 -17.370 -24.414  0.00  0.00    -0.077 C 
ATOM      7  H   UNL     1      33.408 -16.675 -22.937  0.00  0.00    -0.079 HD
ENDROOT
BRANCH   2   8
ATOM      8  O   UNL     1      33.580 -13.400 -25.178  0.00  0.00    -0.481 OA
BRANCH   8   9
ATOM      9  C   UNL     1      33.278 -12.429 -24.261  0.00  0.00    +0.138 C 
ATOM     10  C   UNL     1      33.808 -11.152 -24.409  0.00  0.00    +0.038 C 
ATOM     11  C   UNL     1      32.443 -12.729 -23.190  0.00  0.00    +0.038 C 
ATOM     12  C   UNL     1      33.499 -10.162 -23.474  0.00  0.00    +0.018 C 
ATOM     13  C   UNL     1      32.134 -11.741 -22.256  0.00  0.00    +0.018 C 
ATOM     14  C   UNL     1      32.662 -10.457 -22.398  0.00  0.00    +0.057 C 
BRANCH  14  15
ATOM     15  N   UNL     1      32.355  -9.477 -21.472  0.00  0.00    -0.246 N 
ATOM     16  N   UNL     1      31.766  -8.541 -19.537  0.00  0.00    -0.224 NA
ATOM     17  C   UNL     1      32.360  -8.122 -21.684  0.00  0.00    +0.092 C 
ATOM     18  C   UNL     1      31.991  -9.674 -20.163  0.00  0.00    +0.172 C 
ATOM     19  C   UNL     1      31.995  -7.569 -20.479  0.00  0.00    +0.117 C 
ENDBRANCH  14  15
ENDBRANCH   8   9
ENDBRANCH   2   8
BRANCH   1  20
ATOM     20  C   UNL     1      35.292 -16.771 -22.180  0.00  0.00    -0.050 C 
BRANCH  20  23
ATOM     21  O   UNL     1      36.574 -20.995 -19.968  0.00  0.00    -0.435 OA
ATOM     22  O   UNL     1      34.280 -21.649 -19.631  0.00  0.00    -0.435 OA
ATOM     23  C   UNL     1      34.984 -18.077 -21.498  0.00  0.00    -0.040 C 
ATOM     24  C   UNL     1      36.031 -18.886 -21.071  0.00  0.00    +0.034 C 
ATOM     25  C   UNL     1      33.647 -18.448 -21.307  0.00  0.00    -0.003 C 
ATOM     26  C   UNL     1      35.698 -20.072 -20.451  0.00  0.00    +0.176 C 
ATOM     27  C   UNL     1      33.337 -19.654 -20.676  0.00  0.00    +0.040 C 
ATOM     28  C   UNL     1      34.387 -20.447 -20.259  0.00  0.00    +0.176 C 
ATOM     29  C   UNL     1      35.669 -21.990 -19.449  0.00  0.00    +0.429 C 
ENDBRANCH  20  23
ENDBRANCH   1  20
TORSDOF 5
ENDMDL
