MODEL 1
REMARK VINA RESULT:      -8.9      0.000      0.000
REMARK  Name = 5459348
REMARK  5 active torsions:
REMARK  status: ('A' for Active; 'I' for Inactive)
REMARK    1  A    between atoms: C_4  and  C_11
REMARK    2  A    between atoms: C_6  and  O_13
REMARK    3  A    between atoms: O_13  and  C_14
REMARK    4  A    between atoms: C_17  and  C_20
REMARK    5  A    between atoms: C_21  and  C_23
REMARK                            x       y       z     vdW  Elec       q    Type
REMARK                         _______ _______ _______ _____ _____    ______ ____
ROOT
ATOM      1  I   UNL     1      32.885 -14.533 -26.518  0.00  0.00    -0.034 I 
ATOM      2  O   UNL     1      34.947 -16.896 -25.839  0.00  0.00    -0.267 OA
ATOM      3  N   UNL     1      35.051 -16.830 -23.555  0.00  0.00    -0.324 N 
ATOM      4  C   UNL     1      33.883 -15.218 -22.277  0.00  0.00    +0.024 A 
ATOM      5  C   UNL     1      34.718 -16.279 -22.334  0.00  0.00    +0.035 A 
ATOM      6  C   UNL     1      33.315 -14.704 -23.531  0.00  0.00    +0.152 A 
ATOM      7  C   UNL     1      33.647 -15.226 -24.727  0.00  0.00    +0.120 A 
ATOM      8  C   UNL     1      35.355 -16.964 -21.158  0.00  0.00    +0.050 C 
ATOM      9  C   UNL     1      34.599 -16.380 -24.779  0.00  0.00    +0.266 A 
ATOM     10  H   UNL     1      35.658 -17.606 -23.552  0.00  0.00    +0.169 HD
ENDROOT
BRANCH   4  11
ATOM     11  C   UNL     1      33.543 -14.504 -20.994  0.00  0.00    +0.031 C 
ATOM     12  C   UNL     1      32.364 -15.150 -20.298  0.00  0.00    +0.005 C 
ENDBRANCH   4  11
BRANCH   6  13
ATOM     13  O   UNL     1      32.408 -13.661 -23.450  0.00  0.00    -0.453 OA
BRANCH  13  14
ATOM     14  C   UNL     1      32.913 -12.401 -23.575  0.00  0.00    +0.145 C 
ATOM     15  C   UNL     1      32.322 -11.343 -22.885  0.00  0.00    +0.038 C 
ATOM     16  C   UNL     1      34.021 -12.173 -24.391  0.00  0.00    +0.037 C 
ATOM     17  C   UNL     1      32.841 -10.054 -23.014  0.00  0.00    +0.004 C 
ATOM     18  C   UNL     1      34.537 -10.884 -24.519  0.00  0.00    +0.003 C 
ATOM     19  C   UNL     1      33.948  -9.825 -23.831  0.00  0.00    +0.000 C 
BRANCH  17  20
ATOM     20  C   UNL     1      32.226  -8.948 -22.295  0.00  0.00    +0.011 C 
ATOM     21  C   UNL     1      32.574  -7.647 -22.404  0.00  0.00    +0.078 C 
BRANCH  21  23
ATOM     22  N   UNL     1      31.386  -5.801 -21.043  0.00  0.00    -0.191 NA
ATOM     23  C   UNL     1      31.923  -6.630 -21.653  0.00  0.00    +0.101 C 
ENDBRANCH  21  23
ENDBRANCH  17  20
ENDBRANCH  13  14
ENDBRANCH   6  13
TORSDOF 5
ENDMDL
MODEL 2
REMARK VINA RESULT:      -8.4     10.689     12.869
REMARK  Name = 5459348
REMARK  5 active torsions:
REMARK  status: ('A' for Active; 'I' for Inactive)
REMARK    1  A    between atoms: C_4  and  C_11
REMARK    2  A    between atoms: C_6  and  O_13
REMARK    3  A    between atoms: O_13  and  C_14
REMARK    4  A    between atoms: C_17  and  C_20
REMARK    5  A    between atoms: C_21  and  C_23
REMARK                            x       y       z     vdW  Elec       q    Type
REMARK                         _______ _______ _______ _____ _____    ______ ____
ROOT
ATOM      1  I   UNL     1      35.854 -24.357 -14.405  0.00  0.00    -0.034 I 
ATOM      2  O   UNL     1      37.998 -22.231 -15.491  0.00  0.00    -0.267 OA
ATOM      3  N   UNL     1      37.055 -21.524 -17.452  0.00  0.00    -0.324 N 
ATOM      4  C   UNL     1      35.023 -22.411 -18.275  0.00  0.00    +0.024 A 
ATOM      5  C   UNL     1      36.069 -21.568 -18.416  0.00  0.00    +0.035 A 
ATOM      6  C   UNL     1      34.946 -23.236 -17.062  0.00  0.00    +0.152 A 
ATOM      7  C   UNL     1      35.911 -23.211 -16.123  0.00  0.00    +0.120 A 
ATOM      8  C   UNL     1      36.290 -20.622 -19.563  0.00  0.00    +0.050 C 
ATOM      9  C   UNL     1      37.081 -22.295 -16.308  0.00  0.00    +0.266 A 
ATOM     10  H   UNL     1      37.797 -20.891 -17.590  0.00  0.00    +0.169 HD
ENDROOT
BRANCH   4  11
ATOM     11  C   UNL     1      33.956 -22.584 -19.325  0.00  0.00    +0.031 C 
ATOM     12  C   UNL     1      33.077 -21.356 -19.428  0.00  0.00    +0.005 C 
ENDBRANCH   4  11
BRANCH   6  13
ATOM     13  O   UNL     1      33.832 -24.045 -16.900  0.00  0.00    -0.453 OA
BRANCH  13  14
ATOM     14  C   UNL     1      32.832 -23.556 -16.112  0.00  0.00    +0.145 C 
ATOM     15  C   UNL     1      31.590 -23.259 -16.671  0.00  0.00    +0.038 C 
ATOM     16  C   UNL     1      33.053 -23.356 -14.750  0.00  0.00    +0.037 C 
ATOM     17  C   UNL     1      30.567 -22.760 -15.865  0.00  0.00    +0.004 C 
ATOM     18  C   UNL     1      32.030 -22.856 -13.946  0.00  0.00    +0.003 C 
ATOM     19  C   UNL     1      30.787 -22.558 -14.502  0.00  0.00    +0.000 C 
BRANCH  17  20
ATOM     20  C   UNL     1      29.269 -22.449 -16.445  0.00  0.00    +0.011 C 
ATOM     21  C   UNL     1      28.104 -22.356 -15.768  0.00  0.00    +0.078 C 
BRANCH  21  23
ATOM     22  N   UNL     1      25.876 -21.805 -16.953  0.00  0.00    -0.191 NA
ATOM     23  C   UNL     1      26.877 -22.056 -16.420  0.00  0.00    +0.101 C 
ENDBRANCH  21  23
ENDBRANCH  17  20
ENDBRANCH  13  14
ENDBRANCH   6  13
TORSDOF 5
ENDMDL
MODEL 3
REMARK VINA RESULT:      -8.2      3.595      6.998
REMARK  Name = 5459348
REMARK  5 active torsions:
REMARK  status: ('A' for Active; 'I' for Inactive)
REMARK    1  A    between atoms: C_4  and  C_11
REMARK    2  A    between atoms: C_6  and  O_13
REMARK    3  A    between atoms: O_13  and  C_14
REMARK    4  A    between atoms: C_17  and  C_20
REMARK    5  A    between atoms: C_21  and  C_23
REMARK                            x       y       z     vdW  Elec       q    Type
REMARK                         _______ _______ _______ _____ _____    ______ ____
ROOT
ATOM      1  I   UNL     1      32.421  -6.245 -22.656  0.00  0.00    -0.034 I 
ATOM      2  O   UNL     1      32.495  -6.541 -19.462  0.00  0.00    -0.267 OA
ATOM      3  N   UNL     1      31.982  -8.749 -19.151  0.00  0.00    -0.324 N 
ATOM      4  C   UNL     1      31.464 -10.197 -20.947  0.00  0.00    +0.024 A 
ATOM      5  C   UNL     1      31.623  -9.995 -19.621  0.00  0.00    +0.035 A 
ATOM      6  C   UNL     1      31.722  -9.077 -21.863  0.00  0.00    +0.152 A 
ATOM      7  C   UNL     1      32.057  -7.853 -21.412  0.00  0.00    +0.120 A 
ATOM      8  C   UNL     1      31.447 -11.030 -18.545  0.00  0.00    +0.050 C 
ATOM      9  C   UNL     1      32.198  -7.636 -19.937  0.00  0.00    +0.266 A 
ATOM     10  H   UNL     1      32.093  -8.646 -18.177  0.00  0.00    +0.169 HD
ENDROOT
BRANCH   4  11
ATOM     11  C   UNL     1      30.985 -11.501 -21.532  0.00  0.00    +0.031 C 
ATOM     12  C   UNL     1      32.029 -12.588 -21.384  0.00  0.00    +0.005 C 
ENDBRANCH   4  11
BRANCH   6  13
ATOM     13  O   UNL     1      31.621  -9.318 -23.224  0.00  0.00    -0.453 OA
BRANCH  13  14
ATOM     14  C   UNL     1      32.737  -9.798 -23.843  0.00  0.00    +0.145 C 
ATOM     15  C   UNL     1      32.724 -11.074 -24.406  0.00  0.00    +0.038 C 
ATOM     16  C   UNL     1      33.887  -9.013 -23.913  0.00  0.00    +0.037 C 
ATOM     17  C   UNL     1      33.866 -11.565 -25.040  0.00  0.00    +0.004 C 
ATOM     18  C   UNL     1      35.027  -9.506 -24.546  0.00  0.00    +0.003 C 
ATOM     19  C   UNL     1      35.018 -10.781 -25.109  0.00  0.00    +0.000 C 
BRANCH  17  20
ATOM     20  C   UNL     1      33.856 -12.896 -25.628  0.00  0.00    +0.011 C 
ATOM     21  C   UNL     1      33.367 -14.013 -25.044  0.00  0.00    +0.078 C 
BRANCH  21  23
ATOM     22  N   UNL     1      33.439 -16.308 -26.224  0.00  0.00    -0.191 NA
ATOM     23  C   UNL     1      33.408 -15.278 -25.691  0.00  0.00    +0.101 C 
ENDBRANCH  21  23
ENDBRANCH  17  20
ENDBRANCH  13  14
ENDBRANCH   6  13
TORSDOF 5
ENDMDL
MODEL 4
REMARK VINA RESULT:      -8.2      2.404      3.365
REMARK  Name = 5459348
REMARK  5 active torsions:
REMARK  status: ('A' for Active; 'I' for Inactive)
REMARK    1  A    between atoms: C_4  and  C_11
REMARK    2  A    between atoms: C_6  and  O_13
REMARK    3  A    between atoms: O_13  and  C_14
REMARK    4  A    between atoms: C_17  and  C_20
REMARK    5  A    between atoms: C_21  and  C_23
REMARK                            x       y       z     vdW  Elec       q    Type
REMARK                         _______ _______ _______ _____ _____    ______ ____
ROOT
ATOM      1  I   UNL     1      31.245 -11.494 -20.992  0.00  0.00    -0.034 I 
ATOM      2  O   UNL     1      32.656 -14.209 -20.022  0.00  0.00    -0.267 OA
ATOM      3  N   UNL     1      33.703 -14.937 -21.922  0.00  0.00    -0.324 N 
ATOM      4  C   UNL     1      33.518 -13.800 -23.987  0.00  0.00    +0.024 A 
ATOM      5  C   UNL     1      34.005 -14.832 -23.264  0.00  0.00    +0.035 A 
ATOM      6  C   UNL     1      32.705 -12.785 -23.303  0.00  0.00    +0.152 A 
ATOM      7  C   UNL     1      32.392 -12.888 -21.998  0.00  0.00    +0.120 A 
ATOM      8  C   UNL     1      34.887 -15.934 -23.782  0.00  0.00    +0.050 C 
ATOM      9  C   UNL     1      32.911 -14.054 -21.215  0.00  0.00    +0.266 A 
ATOM     10  H   UNL     1      34.082 -15.701 -21.429  0.00  0.00    +0.169 HD
ENDROOT
BRANCH   4  11
ATOM     11  C   UNL     1      33.727 -13.665 -25.474  0.00  0.00    +0.031 C 
ATOM     12  C   UNL     1      32.668 -14.418 -26.252  0.00  0.00    +0.005 C 
ENDBRANCH   4  11
BRANCH   6  13
ATOM     13  O   UNL     1      32.271 -11.698 -24.044  0.00  0.00    -0.453 OA
BRANCH  13  14
ATOM     14  C   UNL     1      33.018 -10.561 -23.954  0.00  0.00    +0.145 C 
ATOM     15  C   UNL     1      32.424  -9.371 -23.532  0.00  0.00    +0.038 C 
ATOM     16  C   UNL     1      34.373 -10.589 -24.281  0.00  0.00    +0.037 C 
ATOM     17  C   UNL     1      33.189  -8.208 -23.439  0.00  0.00    +0.004 C 
ATOM     18  C   UNL     1      35.135  -9.425 -24.188  0.00  0.00    +0.003 C 
ATOM     19  C   UNL     1      34.544  -8.235 -23.768  0.00  0.00    +0.000 C 
BRANCH  17  20
ATOM     20  C   UNL     1      32.572  -6.966 -23.000  0.00  0.00    +0.011 C 
ATOM     21  C   UNL     1      31.244  -6.718 -22.951  0.00  0.00    +0.078 C 
BRANCH  21  23
ATOM     22  N   UNL     1      30.304  -4.446 -22.163  0.00  0.00    -0.191 NA
ATOM     23  C   UNL     1      30.729  -5.467 -22.516  0.00  0.00    +0.101 C 
ENDBRANCH  21  23
ENDBRANCH  17  20
ENDBRANCH  13  14
ENDBRANCH   6  13
TORSDOF 5
ENDMDL
MODEL 5
REMARK VINA RESULT:      -8.1      2.678      7.412
REMARK  Name = 5459348
REMARK  5 active torsions:
REMARK  status: ('A' for Active; 'I' for Inactive)
REMARK    1  A    between atoms: C_4  and  C_11
REMARK    2  A    between atoms: C_6  and  O_13
REMARK    3  A    between atoms: O_13  and  C_14
REMARK    4  A    between atoms: C_17  and  C_20
REMARK    5  A    between atoms: C_21  and  C_23
REMARK                            x       y       z     vdW  Elec       q    Type
REMARK                         _______ _______ _______ _____ _____    ______ ____
ROOT
ATOM      1  I   UNL     1      31.178 -11.269 -20.778  0.00  0.00    -0.034 I 
ATOM      2  O   UNL     1      32.711  -8.872 -22.261  0.00  0.00    -0.267 OA
ATOM      3  N   UNL     1      33.745  -9.938 -24.002  0.00  0.00    -0.324 N 
ATOM      4  C   UNL     1      33.615 -12.279 -24.313  0.00  0.00    +0.024 A 
ATOM      5  C   UNL     1      34.076 -11.073 -24.712  0.00  0.00    +0.035 A 
ATOM      6  C   UNL     1      32.727 -12.338 -23.144  0.00  0.00    +0.152 A 
ATOM      7  C   UNL     1      32.412 -11.237 -22.435  0.00  0.00    +0.120 A 
ATOM      8  C   UNL     1      34.953 -10.815 -25.906  0.00  0.00    +0.050 C 
ATOM      9  C   UNL     1      32.957  -9.912 -22.869  0.00  0.00    +0.266 A 
ATOM     10  H   UNL     1      34.097  -9.078 -24.329  0.00  0.00    +0.169 HD
ENDROOT
BRANCH   4  11
ATOM     11  C   UNL     1      34.005 -13.573 -24.980  0.00  0.00    +0.031 C 
ATOM     12  C   UNL     1      33.057 -13.921 -26.109  0.00  0.00    +0.005 C 
ENDBRANCH   4  11
BRANCH   6  13
ATOM     13  O   UNL     1      32.208 -13.572 -22.789  0.00  0.00    -0.453 OA
BRANCH  13  14
ATOM     14  C   UNL     1      33.065 -14.446 -22.188  0.00  0.00    +0.145 C 
ATOM     15  C   UNL     1      33.359 -15.663 -22.801  0.00  0.00    +0.038 C 
ATOM     16  C   UNL     1      33.647 -14.119 -20.964  0.00  0.00    +0.037 C 
ATOM     17  C   UNL     1      34.236 -16.556 -22.186  0.00  0.00    +0.004 C 
ATOM     18  C   UNL     1      34.524 -15.014 -20.351  0.00  0.00    +0.003 C 
ATOM     19  C   UNL     1      34.818 -16.232 -20.961  0.00  0.00    +0.000 C 
BRANCH  17  20
ATOM     20  C   UNL     1      34.545 -17.828 -22.823  0.00  0.00    +0.011 C 
ATOM     21  C   UNL     1      34.533 -18.067 -24.153  0.00  0.00    +0.078 C 
BRANCH  21  23
ATOM     22  N   UNL     1      35.086 -20.396 -25.124  0.00  0.00    -0.191 NA
ATOM     23  C   UNL     1      34.840 -19.348 -24.689  0.00  0.00    +0.101 C 
ENDBRANCH  21  23
ENDBRANCH  17  20
ENDBRANCH  13  14
ENDBRANCH   6  13
TORSDOF 5
ENDMDL
MODEL 6
REMARK VINA RESULT:      -8.1      2.915      7.608
REMARK  Name = 5459348
REMARK  5 active torsions:
REMARK  status: ('A' for Active; 'I' for Inactive)
REMARK    1  A    between atoms: C_4  and  C_11
REMARK    2  A    between atoms: C_6  and  O_13
REMARK    3  A    between atoms: O_13  and  C_14
REMARK    4  A    between atoms: C_17  and  C_20
REMARK    5  A    between atoms: C_21  and  C_23
REMARK                            x       y       z     vdW  Elec       q    Type
REMARK                         _______ _______ _______ _____ _____    ______ ____
ROOT
ATOM      1  I   UNL     1      30.883 -10.248 -19.196  0.00  0.00    -0.034 I 
ATOM      2  O   UNL     1      32.689  -7.608 -19.453  0.00  0.00    -0.267 OA
ATOM      3  N   UNL     1      33.365  -7.674 -21.638  0.00  0.00    -0.324 N 
ATOM      4  C   UNL     1      32.794  -9.451 -23.090  0.00  0.00    +0.024 A 
ATOM      5  C   UNL     1      33.428  -8.277 -22.877  0.00  0.00    +0.035 A 
ATOM      6  C   UNL     1      32.012 -10.035 -21.992  0.00  0.00    +0.152 A 
ATOM      7  C   UNL     1      31.958  -9.462 -20.775  0.00  0.00    +0.120 A 
ATOM      8  C   UNL     1      34.233  -7.513 -23.891  0.00  0.00    +0.050 C 
ATOM      9  C   UNL     1      32.693  -8.178 -20.543  0.00  0.00    +0.266 A 
ATOM     10  H   UNL     1      33.837  -6.816 -21.526  0.00  0.00    +0.169 HD
ENDROOT
BRANCH   4  11
ATOM     11  C   UNL     1      32.890 -10.217 -24.385  0.00  0.00    +0.031 C 
ATOM     12  C   UNL     1      34.279 -10.785 -24.590  0.00  0.00    +0.005 C 
ENDBRANCH   4  11
BRANCH   6  13
ATOM     13  O   UNL     1      31.312 -11.204 -22.247  0.00  0.00    -0.453 OA
BRANCH  13  14
ATOM     14  C   UNL     1      31.968 -12.374 -22.004  0.00  0.00    +0.145 C 
ATOM     15  C   UNL     1      32.404 -13.161 -23.070  0.00  0.00    +0.038 C 
ATOM     16  C   UNL     1      32.205 -12.780 -20.692  0.00  0.00    +0.037 C 
ATOM     17  C   UNL     1      33.075 -14.357 -22.821  0.00  0.00    +0.004 C 
ATOM     18  C   UNL     1      32.876 -13.977 -20.444  0.00  0.00    +0.003 C 
ATOM     19  C   UNL     1      33.311 -14.766 -21.508  0.00  0.00    +0.000 C 
BRANCH  17  20
ATOM     20  C   UNL     1      33.530 -15.181 -23.931  0.00  0.00    +0.011 C 
ATOM     21  C   UNL     1      34.268 -16.309 -23.826  0.00  0.00    +0.078 C 
BRANCH  21  23
ATOM     22  N   UNL     1      35.010 -17.655 -25.900  0.00  0.00    -0.191 NA
ATOM     23  C   UNL     1      34.677 -17.048 -24.969  0.00  0.00    +0.101 C 
ENDBRANCH  21  23
ENDBRANCH  17  20
ENDBRANCH  13  14
ENDBRANCH   6  13
TORSDOF 5
ENDMDL
MODEL 7
REMARK VINA RESULT:      -8.0      2.433      6.710
REMARK  Name = 5459348
REMARK  5 active torsions:
REMARK  status: ('A' for Active; 'I' for Inactive)
REMARK    1  A    between atoms: C_4  and  C_11
REMARK    2  A    between atoms: C_6  and  O_13
REMARK    3  A    between atoms: O_13  and  C_14
REMARK    4  A    between atoms: C_17  and  C_20
REMARK    5  A    between atoms: C_21  and  C_23
REMARK                            x       y       z     vdW  Elec       q    Type
REMARK                         _______ _______ _______ _____ _____    ______ ____
ROOT
ATOM      1  I   UNL     1      33.563 -13.243 -26.371  0.00  0.00    -0.034 I 
ATOM      2  O   UNL     1      35.691 -10.874 -26.768  0.00  0.00    -0.267 OA
ATOM      3  N   UNL     1      35.197  -9.461 -25.038  0.00  0.00    -0.324 N 
ATOM      4  C   UNL     1      33.414  -9.866 -23.538  0.00  0.00    +0.024 A 
ATOM      5  C   UNL     1      34.440  -9.088 -23.947  0.00  0.00    +0.035 A 
ATOM      6  C   UNL     1      33.162 -11.126 -24.252  0.00  0.00    +0.152 A 
ATOM      7  C   UNL     1      33.885 -11.490 -25.327  0.00  0.00    +0.120 A 
ATOM      8  C   UNL     1      34.872  -7.795 -23.314  0.00  0.00    +0.050 C 
ATOM      9  C   UNL     1      34.998 -10.601 -25.790  0.00  0.00    +0.266 A 
ATOM     10  H   UNL     1      35.938  -8.868 -25.300  0.00  0.00    +0.169 HD
ENDROOT
BRANCH   4  11
ATOM     11  C   UNL     1      32.485  -9.483 -22.414  0.00  0.00    +0.031 C 
ATOM     12  C   UNL     1      31.314  -8.668 -22.920  0.00  0.00    +0.005 C 
ENDBRANCH   4  11
BRANCH   6  13
ATOM     13  O   UNL     1      32.151 -11.946 -23.777  0.00  0.00    -0.453 OA
BRANCH  13  14
ATOM     14  C   UNL     1      32.455 -12.731 -22.705  0.00  0.00    +0.145 C 
ATOM     15  C   UNL     1      33.309 -13.822 -22.863  0.00  0.00    +0.038 C 
ATOM     16  C   UNL     1      31.914 -12.441 -21.453  0.00  0.00    +0.037 C 
ATOM     17  C   UNL     1      33.620 -14.625 -21.766  0.00  0.00    +0.004 C 
ATOM     18  C   UNL     1      32.226 -13.245 -20.357  0.00  0.00    +0.003 C 
ATOM     19  C   UNL     1      33.078 -14.337 -20.513  0.00  0.00    +0.000 C 
BRANCH  17  20
ATOM     20  C   UNL     1      34.510 -15.765 -21.927  0.00  0.00    +0.011 C 
ATOM     21  C   UNL     1      34.674 -16.770 -21.039  0.00  0.00    +0.078 C 
BRANCH  21  23
ATOM     22  N   UNL     1      36.313 -18.720 -21.465  0.00  0.00    -0.191 NA
ATOM     23  C   UNL     1      35.576 -17.843 -21.276  0.00  0.00    +0.101 C 
ENDBRANCH  21  23
ENDBRANCH  17  20
ENDBRANCH  13  14
ENDBRANCH   6  13
TORSDOF 5
ENDMDL
MODEL 8
REMARK VINA RESULT:      -8.0      2.639      7.360
REMARK  Name = 5459348
REMARK  5 active torsions:
REMARK  status: ('A' for Active; 'I' for Inactive)
REMARK    1  A    between atoms: C_4  and  C_11
REMARK    2  A    between atoms: C_6  and  O_13
REMARK    3  A    between atoms: O_13  and  C_14
REMARK    4  A    between atoms: C_17  and  C_20
REMARK    5  A    between atoms: C_21  and  C_23
REMARK                            x       y       z     vdW  Elec       q    Type
REMARK                         _______ _______ _______ _____ _____    ______ ____
ROOT
ATOM      1  I   UNL     1      32.410 -13.700 -21.716  0.00  0.00    -0.034 I 
ATOM      2  O   UNL     1      30.229 -11.443 -21.050  0.00  0.00    -0.267 OA
ATOM      3  N   UNL     1      30.919  -9.683 -22.338  0.00  0.00    -0.324 N 
ATOM      4  C   UNL     1      32.877  -9.770 -23.663  0.00  0.00    +0.024 A 
ATOM      5  C   UNL     1      31.802  -9.085 -23.214  0.00  0.00    +0.035 A 
ATOM      6  C   UNL     1      33.051 -11.163 -23.230  0.00  0.00    +0.152 A 
ATOM      7  C   UNL     1      32.204 -11.749 -22.363  0.00  0.00    +0.120 A 
ATOM      8  C   UNL     1      31.439  -7.674 -23.583  0.00  0.00    +0.050 C 
ATOM      9  C   UNL     1      31.035 -10.967 -21.848  0.00  0.00    +0.266 A 
ATOM     10  H   UNL     1      30.146  -9.150 -22.040  0.00  0.00    +0.169 HD
ENDROOT
BRANCH   4  11
ATOM     11  C   UNL     1      33.934  -9.159 -24.547  0.00  0.00    +0.031 C 
ATOM     12  C   UNL     1      34.848  -8.242 -23.763  0.00  0.00    +0.005 C 
ENDBRANCH   4  11
BRANCH   6  13
ATOM     13  O   UNL     1      34.120 -11.874 -23.753  0.00  0.00    -0.453 OA
BRANCH  13  14
ATOM     14  C   UNL     1      33.835 -12.762 -24.746  0.00  0.00    +0.145 C 
ATOM     15  C   UNL     1      34.010 -14.128 -24.528  0.00  0.00    +0.038 C 
ATOM     16  C   UNL     1      33.367 -12.304 -25.977  0.00  0.00    +0.037 C 
ATOM     17  C   UNL     1      33.717 -15.037 -25.545  0.00  0.00    +0.004 C 
ATOM     18  C   UNL     1      33.076 -13.214 -26.993  0.00  0.00    +0.003 C 
ATOM     19  C   UNL     1      33.251 -14.580 -26.778  0.00  0.00    +0.000 C 
BRANCH  17  20
ATOM     20  C   UNL     1      33.899 -16.464 -25.320  0.00  0.00    +0.011 C 
ATOM     21  C   UNL     1      34.647 -17.019 -24.341  0.00  0.00    +0.078 C 
BRANCH  21  23
ATOM     22  N   UNL     1      34.887 -19.578 -24.090  0.00  0.00    -0.191 NA
ATOM     23  C   UNL     1      34.776 -18.428 -24.202  0.00  0.00    +0.101 C 
ENDBRANCH  21  23
ENDBRANCH  17  20
ENDBRANCH  13  14
ENDBRANCH   6  13
TORSDOF 5
ENDMDL
MODEL 9
REMARK VINA RESULT:      -8.0      9.110     12.845
REMARK  Name = 5459348
REMARK  5 active torsions:
REMARK  status: ('A' for Active; 'I' for Inactive)
REMARK    1  A    between atoms: C_4  and  C_11
REMARK    2  A    between atoms: C_6  and  O_13
REMARK    3  A    between atoms: O_13  and  C_14
REMARK    4  A    between atoms: C_17  and  C_20
REMARK    5  A    between atoms: C_21  and  C_23
REMARK                            x       y       z     vdW  Elec       q    Type
REMARK                         _______ _______ _______ _____ _____    ______ ____
ROOT
ATOM      1  I   UNL     1      31.586 -23.087 -16.198  0.00  0.00    -0.034 I 
ATOM      2  O   UNL     1      31.811 -23.139 -12.997  0.00  0.00    -0.267 OA
ATOM      3  N   UNL     1      33.961 -23.843 -12.657  0.00  0.00    -0.324 N 
ATOM      4  C   UNL     1      35.404 -24.422 -14.440  0.00  0.00    +0.024 A 
ATOM      5  C   UNL     1      35.185 -24.289 -13.113  0.00  0.00    +0.035 A 
ATOM      6  C   UNL     1      34.331 -24.042 -15.369  0.00  0.00    +0.152 A 
ATOM      7  C   UNL     1      33.129 -23.621 -14.933  0.00  0.00    +0.120 A 
ATOM      8  C   UNL     1      36.176 -24.584 -12.022  0.00  0.00    +0.050 C 
ATOM      9  C   UNL     1      32.889 -23.510 -13.459  0.00  0.00    +0.266 A 
ATOM     10  H   UNL     1      33.845 -23.755 -11.683  0.00  0.00    +0.169 HD
ENDROOT
BRANCH   4  11
ATOM     11  C   UNL     1      36.678 -24.987 -15.012  0.00  0.00    +0.031 C 
ATOM     12  C   UNL     1      36.595 -26.491 -15.168  0.00  0.00    +0.005 C 
ENDBRANCH   4  11
BRANCH   6  13
ATOM     13  O   UNL     1      34.596 -24.119 -16.727  0.00  0.00    -0.453 OA
BRANCH  13  14
ATOM     14  C   UNL     1      35.258 -23.064 -17.280  0.00  0.00    +0.145 C 
ATOM     15  C   UNL     1      34.831 -22.537 -18.499  0.00  0.00    +0.038 C 
ATOM     16  C   UNL     1      36.359 -22.512 -16.627  0.00  0.00    +0.037 C 
ATOM     17  C   UNL     1      35.509 -21.458 -19.065  0.00  0.00    +0.004 C 
ATOM     18  C   UNL     1      37.036 -21.433 -17.194  0.00  0.00    +0.003 C 
ATOM     19  C   UNL     1      36.611 -20.906 -18.413  0.00  0.00    +0.000 C 
BRANCH  17  20
ATOM     20  C   UNL     1      35.066 -20.906 -20.337  0.00  0.00    +0.011 C 
ATOM     21  C   UNL     1      35.503 -19.754 -20.892  0.00  0.00    +0.078 C 
BRANCH  21  23
ATOM     22  N   UNL     1      34.600 -18.908 -23.159  0.00  0.00    -0.191 NA
ATOM     23  C   UNL     1      35.006 -19.286 -22.139  0.00  0.00    +0.101 C 
ENDBRANCH  21  23
ENDBRANCH  17  20
ENDBRANCH  13  14
ENDBRANCH   6  13
TORSDOF 5
ENDMDL
