MODEL 1
REMARK VINA RESULT:      -7.9      0.000      0.000
REMARK  Name = 4913
REMARK  7 active torsions:
REMARK  status: ('A' for Active; 'I' for Inactive)
REMARK    1  A    between atoms: N_2  and  C_14
REMARK    2  A    between atoms: C_3  and  C_5
REMARK    3  A    between atoms: C_10  and  N_11
REMARK    4  A    between atoms: C_14  and  C_15
REMARK    5  A    between atoms: C_15  and  N_16
REMARK    6  A    between atoms: N_16  and  C_18
REMARK    7  A    between atoms: N_16  and  C_20
REMARK                            x       y       z     vdW  Elec       q    Type
REMARK                         _______ _______ _______ _____ _____    ______ ____
ROOT
ATOM      1  O   UNL     1      36.637 -18.392 -22.099  0.00  0.00    -0.270 OA
ATOM      2  N   UNL     1      34.562 -17.441 -22.504  0.00  0.00    -0.303 N 
ATOM      3  C   UNL     1      35.418 -18.393 -21.947  0.00  0.00    +0.246 C 
ATOM      4  H   UNL     1      33.596 -17.516 -22.332  0.00  0.00    +0.150 HD
ENDROOT
BRANCH   3   5
ATOM      5  C   UNL     1      34.789 -19.444 -21.108  0.00  0.00    +0.053 C 
ATOM      6  C   UNL     1      33.414 -19.459 -20.978  0.00  0.00    +0.006 C 
ATOM      7  C   UNL     1      35.596 -20.373 -20.484  0.00  0.00    +0.006 C 
ATOM      8  C   UNL     1      32.823 -20.447 -20.190  0.00  0.00    +0.014 C 
ATOM      9  C   UNL     1      35.004 -21.360 -19.697  0.00  0.00    +0.014 C 
ATOM     10  C   UNL     1      33.618 -21.397 -19.550  0.00  0.00    +0.042 C 
BRANCH  10  11
ATOM     11  N   UNL     1      33.020 -22.396 -18.755  0.00  0.00    -0.357 N 
ATOM     12  H   UNL     1      33.410 -22.632 -17.882  0.00  0.00    +0.142 HD
ATOM     13  H   UNL     1      32.211 -22.860 -19.073  0.00  0.00    +0.142 HD
ENDBRANCH  10  11
ENDBRANCH   3   5
BRANCH   2  14
ATOM     14  C   UNL     1      35.040 -16.338 -23.332  0.00  0.00    +0.067 C 
BRANCH  14  15
ATOM     15  C   UNL     1      34.586 -15.005 -22.747  0.00  0.00    -0.056 C 
BRANCH  15  16
ATOM     16  N   UNL     1      33.184 -14.758 -23.081  0.00  0.00    +0.388 N 
ATOM     17  H   UNL     1      32.732 -15.656 -23.259  0.00  0.00    -0.080 HD
BRANCH  16  18
ATOM     18  C   UNL     1      33.082 -13.939 -24.288  0.00  0.00    -0.077 C 
ATOM     19  C   UNL     1      33.630 -12.542 -24.051  0.00  0.00    -0.025 C 
ENDBRANCH  16  18
BRANCH  16  20
ATOM     20  C   UNL     1      32.498 -14.110 -21.963  0.00  0.00    -0.077 C 
ATOM     21  C   UNL     1      32.826 -14.792 -20.646  0.00  0.00    -0.025 C 
ENDBRANCH  16  20
ENDBRANCH  15  16
ENDBRANCH  14  15
ENDBRANCH   2  14
TORSDOF 7
ENDMDL
MODEL 2
REMARK VINA RESULT:      -7.8      0.696      1.729
REMARK  Name = 4913
REMARK  7 active torsions:
REMARK  status: ('A' for Active; 'I' for Inactive)
REMARK    1  A    between atoms: N_2  and  C_14
REMARK    2  A    between atoms: C_3  and  C_5
REMARK    3  A    between atoms: C_10  and  N_11
REMARK    4  A    between atoms: C_14  and  C_15
REMARK    5  A    between atoms: C_15  and  N_16
REMARK    6  A    between atoms: N_16  and  C_18
REMARK    7  A    between atoms: N_16  and  C_20
REMARK                            x       y       z     vdW  Elec       q    Type
REMARK                         _______ _______ _______ _____ _____    ______ ____
ROOT
ATOM      1  O   UNL     1      36.636 -18.420 -22.203  0.00  0.00    -0.270 OA
ATOM      2  N   UNL     1      34.602 -17.326 -22.409  0.00  0.00    -0.303 N 
ATOM      3  C   UNL     1      35.434 -18.354 -21.960  0.00  0.00    +0.246 C 
ATOM      4  H   UNL     1      33.649 -17.351 -22.168  0.00  0.00    +0.150 HD
ENDROOT
BRANCH   3   5
ATOM      5  C   UNL     1      34.800 -19.405 -21.124  0.00  0.00    +0.053 C 
ATOM      6  C   UNL     1      33.426 -19.418 -20.997  0.00  0.00    +0.006 C 
ATOM      7  C   UNL     1      35.605 -20.336 -20.499  0.00  0.00    +0.006 C 
ATOM      8  C   UNL     1      32.831 -20.405 -20.211  0.00  0.00    +0.014 C 
ATOM      9  C   UNL     1      35.009 -21.323 -19.714  0.00  0.00    +0.014 C 
ATOM     10  C   UNL     1      33.623 -21.358 -19.570  0.00  0.00    +0.042 C 
BRANCH  10  11
ATOM     11  N   UNL     1      33.021 -22.357 -18.778  0.00  0.00    -0.357 N 
ATOM     12  H   UNL     1      32.728 -22.149 -17.861  0.00  0.00    +0.142 HD
ATOM     13  H   UNL     1      32.894 -23.263 -19.141  0.00  0.00    +0.142 HD
ENDBRANCH  10  11
ENDBRANCH   3   5
BRANCH   2  14
ATOM     14  C   UNL     1      35.089 -16.215 -23.221  0.00  0.00    +0.067 C 
BRANCH  14  15
ATOM     15  C   UNL     1      34.498 -14.900 -22.722  0.00  0.00    -0.056 C 
BRANCH  15  16
ATOM     16  N   UNL     1      33.899 -14.162 -23.833  0.00  0.00    +0.388 N 
ATOM     17  H   UNL     1      34.604 -13.536 -24.221  0.00  0.00    -0.080 HD
BRANCH  16  18
ATOM     18  C   UNL     1      32.771 -13.358 -23.363  0.00  0.00    -0.077 C 
ATOM     19  C   UNL     1      32.323 -13.797 -21.979  0.00  0.00    -0.025 C 
ENDBRANCH  16  18
BRANCH  16  20
ATOM     20  C   UNL     1      33.468 -15.082 -24.885  0.00  0.00    -0.077 C 
ATOM     21  C   UNL     1      32.967 -14.327 -26.104  0.00  0.00    -0.025 C 
ENDBRANCH  16  20
ENDBRANCH  15  16
ENDBRANCH  14  15
ENDBRANCH   2  14
TORSDOF 7
ENDMDL
MODEL 3
REMARK VINA RESULT:      -7.7      1.736      6.596
REMARK  Name = 4913
REMARK  7 active torsions:
REMARK  status: ('A' for Active; 'I' for Inactive)
REMARK    1  A    between atoms: N_2  and  C_14
REMARK    2  A    between atoms: C_3  and  C_5
REMARK    3  A    between atoms: C_10  and  N_11
REMARK    4  A    between atoms: C_14  and  C_15
REMARK    5  A    between atoms: C_15  and  N_16
REMARK    6  A    between atoms: N_16  and  C_18
REMARK    7  A    between atoms: N_16  and  C_20
REMARK                            x       y       z     vdW  Elec       q    Type
REMARK                         _______ _______ _______ _____ _____    ______ ____
ROOT
ATOM      1  O   UNL     1      35.232 -16.547 -20.234  0.00  0.00    -0.270 OA
ATOM      2  N   UNL     1      35.074 -17.118 -22.475  0.00  0.00    -0.303 N 
ATOM      3  C   UNL     1      34.776 -16.338 -21.355  0.00  0.00    +0.246 C 
ATOM      4  H   UNL     1      34.664 -16.880 -23.338  0.00  0.00    +0.150 HD
ENDROOT
BRANCH   3   5
ATOM      5  C   UNL     1      33.869 -15.183 -21.571  0.00  0.00    +0.053 C 
ATOM      6  C   UNL     1      33.167 -14.677 -20.496  0.00  0.00    +0.006 C 
ATOM      7  C   UNL     1      33.755 -14.651 -22.839  0.00  0.00    +0.006 C 
ATOM      8  C   UNL     1      32.314 -13.591 -20.698  0.00  0.00    +0.014 C 
ATOM      9  C   UNL     1      32.902 -13.566 -23.041  0.00  0.00    +0.014 C 
ATOM     10  C   UNL     1      32.182 -13.036 -21.971  0.00  0.00    +0.042 C 
BRANCH  10  11
ATOM     11  N   UNL     1      31.322 -11.937 -22.174  0.00  0.00    -0.357 N 
ATOM     12  H   UNL     1      31.018 -11.400 -21.407  0.00  0.00    +0.142 HD
ATOM     13  H   UNL     1      31.024 -11.707 -23.085  0.00  0.00    +0.142 HD
ENDBRANCH  10  11
ENDBRANCH   3   5
BRANCH   2  14
ATOM     14  C   UNL     1      35.967 -18.270 -22.420  0.00  0.00    +0.067 C 
BRANCH  14  15
ATOM     15  C   UNL     1      35.188 -19.521 -22.025  0.00  0.00    -0.056 C 
BRANCH  15  16
ATOM     16  N   UNL     1      35.255 -19.722 -20.579  0.00  0.00    +0.388 N 
ATOM     17  H   UNL     1      35.168 -18.814 -20.122  0.00  0.00    -0.080 HD
BRANCH  16  18
ATOM     18  C   UNL     1      36.540 -20.309 -20.202  0.00  0.00    -0.077 C 
ATOM     19  C   UNL     1      36.366 -21.365 -19.123  0.00  0.00    -0.025 C 
ENDBRANCH  16  18
BRANCH  16  20
ATOM     20  C   UNL     1      34.153 -20.572 -20.129  0.00  0.00    -0.077 C 
ATOM     21  C   UNL     1      32.810 -20.004 -20.557  0.00  0.00    -0.025 C 
ENDBRANCH  16  20
ENDBRANCH  15  16
ENDBRANCH  14  15
ENDBRANCH   2  14
TORSDOF 7
ENDMDL
MODEL 4
REMARK VINA RESULT:      -7.6      4.250      8.596
REMARK  Name = 4913
REMARK  7 active torsions:
REMARK  status: ('A' for Active; 'I' for Inactive)
REMARK    1  A    between atoms: N_2  and  C_14
REMARK    2  A    between atoms: C_3  and  C_5
REMARK    3  A    between atoms: C_10  and  N_11
REMARK    4  A    between atoms: C_14  and  C_15
REMARK    5  A    between atoms: C_15  and  N_16
REMARK    6  A    between atoms: N_16  and  C_18
REMARK    7  A    between atoms: N_16  and  C_20
REMARK                            x       y       z     vdW  Elec       q    Type
REMARK                         _______ _______ _______ _____ _____    ______ ____
ROOT
ATOM      1  O   UNL     1      33.809 -23.877 -18.772  0.00  0.00    -0.270 OA
ATOM      2  N   UNL     1      32.427 -22.363 -17.689  0.00  0.00    -0.303 N 
ATOM      3  C   UNL     1      33.419 -22.725 -18.603  0.00  0.00    +0.246 C 
ATOM      4  H   UNL     1      32.174 -21.415 -17.618  0.00  0.00    +0.150 HD
ENDROOT
BRANCH   3   5
ATOM      5  C   UNL     1      34.003 -21.630 -19.418  0.00  0.00    +0.053 C 
ATOM      6  C   UNL     1      35.376 -21.538 -19.527  0.00  0.00    +0.006 C 
ATOM      7  C   UNL     1      33.156 -20.738 -20.044  0.00  0.00    +0.006 C 
ATOM      8  C   UNL     1      35.925 -20.510 -20.294  0.00  0.00    +0.014 C 
ATOM      9  C   UNL     1      33.705 -19.710 -20.810  0.00  0.00    +0.014 C 
ATOM     10  C   UNL     1      35.089 -19.596 -20.935  0.00  0.00    +0.042 C 
BRANCH  10  11
ATOM     11  N   UNL     1      35.644 -18.559 -21.711  0.00  0.00    -0.357 N 
ATOM     12  H   UNL     1      35.769 -17.663 -21.321  0.00  0.00    +0.142 HD
ATOM     13  H   UNL     1      35.906 -18.728 -22.646  0.00  0.00    +0.142 HD
ENDBRANCH  10  11
ENDBRANCH   3   5
BRANCH   2  14
ATOM     14  C   UNL     1      31.749 -23.333 -16.836  0.00  0.00    +0.067 C 
BRANCH  14  15
ATOM     15  C   UNL     1      30.434 -22.755 -16.322  0.00  0.00    -0.056 C 
BRANCH  15  16
ATOM     16  N   UNL     1      29.367 -23.747 -16.435  0.00  0.00    +0.388 N 
ATOM     17  H   UNL     1      29.689 -24.500 -17.044  0.00  0.00    -0.080 HD
BRANCH  16  18
ATOM     18  C   UNL     1      28.172 -23.149 -17.029  0.00  0.00    -0.077 C 
ATOM     19  C   UNL     1      27.367 -22.385 -15.992  0.00  0.00    -0.025 C 
ENDBRANCH  16  18
BRANCH  16  20
ATOM     20  C   UNL     1      29.056 -24.316 -15.124  0.00  0.00    -0.077 C 
ATOM     21  C   UNL     1      29.912 -25.538 -14.837  0.00  0.00    -0.025 C 
ENDBRANCH  16  20
ENDBRANCH  15  16
ENDBRANCH  14  15
ENDBRANCH   2  14
TORSDOF 7
ENDMDL
MODEL 5
REMARK VINA RESULT:      -7.5      4.214      8.624
REMARK  Name = 4913
REMARK  7 active torsions:
REMARK  status: ('A' for Active; 'I' for Inactive)
REMARK    1  A    between atoms: N_2  and  C_14
REMARK    2  A    between atoms: C_3  and  C_5
REMARK    3  A    between atoms: C_10  and  N_11
REMARK    4  A    between atoms: C_14  and  C_15
REMARK    5  A    between atoms: C_15  and  N_16
REMARK    6  A    between atoms: N_16  and  C_18
REMARK    7  A    between atoms: N_16  and  C_20
REMARK                            x       y       z     vdW  Elec       q    Type
REMARK                         _______ _______ _______ _____ _____    ______ ____
ROOT
ATOM      1  O   UNL     1      33.842 -23.928 -18.781  0.00  0.00    -0.270 OA
ATOM      2  N   UNL     1      32.438 -22.424 -17.713  0.00  0.00    -0.303 N 
ATOM      3  C   UNL     1      33.449 -22.777 -18.609  0.00  0.00    +0.246 C 
ATOM      4  H   UNL     1      32.184 -21.477 -17.638  0.00  0.00    +0.150 HD
ENDROOT
BRANCH   3   5
ATOM      5  C   UNL     1      34.048 -21.676 -19.403  0.00  0.00    +0.053 C 
ATOM      6  C   UNL     1      33.213 -20.773 -20.030  0.00  0.00    +0.006 C 
ATOM      7  C   UNL     1      35.423 -21.587 -19.491  0.00  0.00    +0.006 C 
ATOM      8  C   UNL     1      33.776 -19.737 -20.775  0.00  0.00    +0.014 C 
ATOM      9  C   UNL     1      35.986 -20.552 -20.237  0.00  0.00    +0.014 C 
ATOM     10  C   UNL     1      35.163 -19.627 -20.879  0.00  0.00    +0.042 C 
BRANCH  10  11
ATOM     11  N   UNL     1      35.732 -18.579 -21.631  0.00  0.00    -0.357 N 
ATOM     12  H   UNL     1      36.154 -17.817 -21.173  0.00  0.00    +0.142 HD
ATOM     13  H   UNL     1      35.707 -18.609 -22.615  0.00  0.00    +0.142 HD
ENDBRANCH  10  11
ENDBRANCH   3   5
BRANCH   2  14
ATOM     14  C   UNL     1      31.743 -23.402 -16.882  0.00  0.00    +0.067 C 
BRANCH  14  15
ATOM     15  C   UNL     1      31.439 -22.807 -15.511  0.00  0.00    -0.056 C 
BRANCH  15  16
ATOM     16  N   UNL     1      30.041 -23.048 -15.155  0.00  0.00    +0.388 N 
ATOM     17  H   UNL     1      29.784 -22.405 -14.405  0.00  0.00    -0.080 HD
BRANCH  16  18
ATOM     18  C   UNL     1      29.866 -24.417 -14.672  0.00  0.00    -0.077 C 
ATOM     19  C   UNL     1      30.833 -24.730 -13.543  0.00  0.00    -0.025 C 
ENDBRANCH  16  18
BRANCH  16  20
ATOM     20  C   UNL     1      29.169 -22.794 -16.301  0.00  0.00    -0.077 C 
ATOM     21  C   UNL     1      27.738 -22.542 -15.858  0.00  0.00    -0.025 C 
ENDBRANCH  16  20
ENDBRANCH  15  16
ENDBRANCH  14  15
ENDBRANCH   2  14
TORSDOF 7
ENDMDL
MODEL 6
REMARK VINA RESULT:      -7.5      4.116      8.569
REMARK  Name = 4913
REMARK  7 active torsions:
REMARK  status: ('A' for Active; 'I' for Inactive)
REMARK    1  A    between atoms: N_2  and  C_14
REMARK    2  A    between atoms: C_3  and  C_5
REMARK    3  A    between atoms: C_10  and  N_11
REMARK    4  A    between atoms: C_14  and  C_15
REMARK    5  A    between atoms: C_15  and  N_16
REMARK    6  A    between atoms: N_16  and  C_18
REMARK    7  A    between atoms: N_16  and  C_20
REMARK                            x       y       z     vdW  Elec       q    Type
REMARK                         _______ _______ _______ _____ _____    ______ ____
ROOT
ATOM      1  O   UNL     1      33.939 -23.787 -19.097  0.00  0.00    -0.270 OA
ATOM      2  N   UNL     1      32.671 -22.361 -17.781  0.00  0.00    -0.303 N 
ATOM      3  C   UNL     1      33.571 -22.651 -18.809  0.00  0.00    +0.246 C 
ATOM      4  H   UNL     1      32.429 -21.422 -17.617  0.00  0.00    +0.150 HD
ENDROOT
BRANCH   3   5
ATOM      5  C   UNL     1      34.077 -21.498 -19.595  0.00  0.00    +0.053 C 
ATOM      6  C   UNL     1      33.169 -20.633 -20.170  0.00  0.00    +0.006 C 
ATOM      7  C   UNL     1      35.440 -21.326 -19.725  0.00  0.00    +0.006 C 
ATOM      8  C   UNL     1      33.644 -19.549 -20.909  0.00  0.00    +0.014 C 
ATOM      9  C   UNL     1      35.915 -20.242 -20.464  0.00  0.00    +0.014 C 
ATOM     10  C   UNL     1      35.018 -19.354 -21.055  0.00  0.00    +0.042 C 
BRANCH  10  11
ATOM     11  N   UNL     1      35.498 -18.257 -21.800  0.00  0.00    -0.357 N 
ATOM     12  H   UNL     1      36.351 -18.328 -22.286  0.00  0.00    +0.142 HD
ATOM     13  H   UNL     1      34.981 -17.420 -21.833  0.00  0.00    +0.142 HD
ENDBRANCH  10  11
ENDBRANCH   3   5
BRANCH   2  14
ATOM     14  C   UNL     1      32.074 -23.394 -16.939  0.00  0.00    +0.067 C 
BRANCH  14  15
ATOM     15  C   UNL     1      30.718 -22.930 -16.419  0.00  0.00    -0.056 C 
BRANCH  15  16
ATOM     16  N   UNL     1      30.109 -23.974 -15.597  0.00  0.00    +0.388 N 
ATOM     17  H   UNL     1      30.465 -24.878 -15.907  0.00  0.00    -0.080 HD
BRANCH  16  18
ATOM     18  C   UNL     1      28.655 -23.968 -15.757  0.00  0.00    -0.077 C 
ATOM     19  C   UNL     1      28.234 -23.079 -16.915  0.00  0.00    -0.025 C 
ENDBRANCH  16  18
BRANCH  16  20
ATOM     20  C   UNL     1      30.469 -23.793 -14.191  0.00  0.00    -0.077 C 
ATOM     21  C   UNL     1      31.241 -24.990 -13.663  0.00  0.00    -0.025 C 
ENDBRANCH  16  20
ENDBRANCH  15  16
ENDBRANCH  14  15
ENDBRANCH   2  14
TORSDOF 7
ENDMDL
MODEL 7
REMARK VINA RESULT:      -7.3      1.113      1.961
REMARK  Name = 4913
REMARK  7 active torsions:
REMARK  status: ('A' for Active; 'I' for Inactive)
REMARK    1  A    between atoms: N_2  and  C_14
REMARK    2  A    between atoms: C_3  and  C_5
REMARK    3  A    between atoms: C_10  and  N_11
REMARK    4  A    between atoms: C_14  and  C_15
REMARK    5  A    between atoms: C_15  and  N_16
REMARK    6  A    between atoms: N_16  and  C_18
REMARK    7  A    between atoms: N_16  and  C_20
REMARK                            x       y       z     vdW  Elec       q    Type
REMARK                         _______ _______ _______ _____ _____    ______ ____
ROOT
ATOM      1  O   UNL     1      35.303 -18.986 -22.965  0.00  0.00    -0.270 OA
ATOM      2  N   UNL     1      34.553 -17.429 -21.421  0.00  0.00    -0.303 N 
ATOM      3  C   UNL     1      34.833 -18.724 -21.862  0.00  0.00    +0.246 C 
ATOM      4  H   UNL     1      34.176 -17.308 -20.520  0.00  0.00    +0.150 HD
ENDROOT
BRANCH   3   5
ATOM      5  C   UNL     1      34.553 -19.826 -20.908  0.00  0.00    +0.053 C 
ATOM      6  C   UNL     1      35.608 -20.570 -20.419  0.00  0.00    +0.006 C 
ATOM      7  C   UNL     1      33.246 -20.075 -20.538  0.00  0.00    +0.006 C 
ATOM      8  C   UNL     1      35.346 -21.605 -19.522  0.00  0.00    +0.014 C 
ATOM      9  C   UNL     1      32.984 -21.111 -19.642  0.00  0.00    +0.014 C 
ATOM     10  C   UNL     1      34.034 -21.875 -19.134  0.00  0.00    +0.042 C 
BRANCH  10  11
ATOM     11  N   UNL     1      33.768 -22.921 -18.226  0.00  0.00    -0.357 N 
ATOM     12  H   UNL     1      32.921 -22.936 -17.725  0.00  0.00    +0.142 HD
ATOM     13  H   UNL     1      34.432 -23.637 -18.091  0.00  0.00    +0.142 HD
ENDBRANCH  10  11
ENDBRANCH   3   5
BRANCH   2  14
ATOM     14  C   UNL     1      34.797 -16.246 -22.240  0.00  0.00    +0.067 C 
BRANCH  14  15
ATOM     15  C   UNL     1      33.588 -15.316 -22.196  0.00  0.00    -0.056 C 
BRANCH  15  16
ATOM     16  N   UNL     1      33.292 -14.809 -23.534  0.00  0.00    +0.388 N 
ATOM     17  H   UNL     1      32.279 -14.793 -23.657  0.00  0.00    -0.080 HD
BRANCH  16  18
ATOM     18  C   UNL     1      33.869 -15.685 -24.553  0.00  0.00    -0.077 C 
ATOM     19  C   UNL     1      33.364 -15.323 -25.939  0.00  0.00    -0.025 C 
ENDBRANCH  16  18
BRANCH  16  20
ATOM     20  C   UNL     1      33.797 -13.444 -23.687  0.00  0.00    -0.077 C 
ATOM     21  C   UNL     1      32.833 -12.431 -23.095  0.00  0.00    -0.025 C 
ENDBRANCH  16  20
ENDBRANCH  15  16
ENDBRANCH  14  15
ENDBRANCH   2  14
TORSDOF 7
ENDMDL
MODEL 8
REMARK VINA RESULT:      -7.3      4.744      9.570
REMARK  Name = 4913
REMARK  7 active torsions:
REMARK  status: ('A' for Active; 'I' for Inactive)
REMARK    1  A    between atoms: N_2  and  C_14
REMARK    2  A    between atoms: C_3  and  C_5
REMARK    3  A    between atoms: C_10  and  N_11
REMARK    4  A    between atoms: C_14  and  C_15
REMARK    5  A    between atoms: C_15  and  N_16
REMARK    6  A    between atoms: N_16  and  C_18
REMARK    7  A    between atoms: N_16  and  C_20
REMARK                            x       y       z     vdW  Elec       q    Type
REMARK                         _______ _______ _______ _____ _____    ______ ____
ROOT
ATOM      1  O   UNL     1      34.007 -23.535 -17.757  0.00  0.00    -0.270 OA
ATOM      2  N   UNL     1      35.819 -22.337 -16.947  0.00  0.00    -0.303 N 
ATOM      3  C   UNL     1      34.794 -22.597 -17.860  0.00  0.00    +0.246 C 
ATOM      4  H   UNL     1      36.406 -21.563 -17.105  0.00  0.00    +0.150 HD
ENDROOT
BRANCH   3   5
ATOM      5  C   UNL     1      34.662 -21.654 -18.998  0.00  0.00    +0.053 C 
ATOM      6  C   UNL     1      33.398 -21.303 -19.430  0.00  0.00    +0.006 C 
ATOM      7  C   UNL     1      35.805 -21.157 -19.590  0.00  0.00    +0.006 C 
ATOM      8  C   UNL     1      33.274 -20.416 -20.500  0.00  0.00    +0.014 C 
ATOM      9  C   UNL     1      35.679 -20.271 -20.660  0.00  0.00    +0.014 C 
ATOM     10  C   UNL     1      34.415 -19.900 -21.114  0.00  0.00    +0.042 C 
BRANCH  10  11
ATOM     11  N   UNL     1      34.288 -19.003 -22.194  0.00  0.00    -0.357 N 
ATOM     12  H   UNL     1      33.660 -19.198 -22.927  0.00  0.00    +0.142 HD
ATOM     13  H   UNL     1      34.829 -18.180 -22.217  0.00  0.00    +0.142 HD
ENDBRANCH  10  11
ENDBRANCH   3   5
BRANCH   2  14
ATOM     14  C   UNL     1      36.056 -23.165 -15.769  0.00  0.00    +0.067 C 
BRANCH  14  15
ATOM     15  C   UNL     1      37.554 -23.345 -15.545  0.00  0.00    -0.056 C 
BRANCH  15  16
ATOM     16  N   UNL     1      37.859 -24.751 -15.283  0.00  0.00    +0.388 N 
ATOM     17  H   UNL     1      38.247 -25.161 -16.134  0.00  0.00    -0.080 HD
BRANCH  16  18
ATOM     18  C   UNL     1      36.643 -25.481 -14.929  0.00  0.00    -0.077 C 
ATOM     19  C   UNL     1      36.744 -26.943 -15.329  0.00  0.00    -0.025 C 
ENDBRANCH  16  18
BRANCH  16  20
ATOM     20  C   UNL     1      38.855 -24.869 -14.218  0.00  0.00    -0.077 C 
ATOM     21  C   UNL     1      40.131 -25.516 -14.728  0.00  0.00    -0.025 C 
ENDBRANCH  16  20
ENDBRANCH  15  16
ENDBRANCH  14  15
ENDBRANCH   2  14
TORSDOF 7
ENDMDL
MODEL 9
REMARK VINA RESULT:      -7.2      4.312      9.139
REMARK  Name = 4913
REMARK  7 active torsions:
REMARK  status: ('A' for Active; 'I' for Inactive)
REMARK    1  A    between atoms: N_2  and  C_14
REMARK    2  A    between atoms: C_3  and  C_5
REMARK    3  A    between atoms: C_10  and  N_11
REMARK    4  A    between atoms: C_14  and  C_15
REMARK    5  A    between atoms: C_15  and  N_16
REMARK    6  A    between atoms: N_16  and  C_18
REMARK    7  A    between atoms: N_16  and  C_20
REMARK                            x       y       z     vdW  Elec       q    Type
REMARK                         _______ _______ _______ _____ _____    ______ ____
ROOT
ATOM      1  O   UNL     1      33.634 -24.032 -18.772  0.00  0.00    -0.270 OA
ATOM      2  N   UNL     1      34.254 -22.788 -16.917  0.00  0.00    -0.303 N 
ATOM      3  C   UNL     1      34.078 -22.995 -18.286  0.00  0.00    +0.246 C 
ATOM      4  H   UNL     1      34.617 -21.926 -16.612  0.00  0.00    +0.150 HD
ENDROOT
BRANCH   3   5
ATOM      5  C   UNL     1      34.441 -21.867 -19.181  0.00  0.00    +0.053 C 
ATOM      6  C   UNL     1      35.775 -21.592 -19.401  0.00  0.00    +0.006 C 
ATOM      7  C   UNL     1      33.432 -21.129 -19.766  0.00  0.00    +0.006 C 
ATOM      8  C   UNL     1      36.116 -20.532 -20.242  0.00  0.00    +0.014 C 
ATOM      9  C   UNL     1      33.773 -20.069 -20.607  0.00  0.00    +0.014 C 
ATOM     10  C   UNL     1      35.114 -19.771 -20.845  0.00  0.00    +0.042 C 
BRANCH  10  11
ATOM     11  N   UNL     1      35.458 -18.701 -21.696  0.00  0.00    -0.357 N 
ATOM     12  H   UNL     1      36.405 -18.479 -21.851  0.00  0.00    +0.142 HD
ATOM     13  H   UNL     1      34.752 -18.174 -22.136  0.00  0.00    +0.142 HD
ENDBRANCH  10  11
ENDBRANCH   3   5
BRANCH   2  14
ATOM     14  C   UNL     1      33.921 -23.798 -15.917  0.00  0.00    +0.067 C 
BRANCH  14  15
ATOM     15  C   UNL     1      34.881 -23.706 -14.735  0.00  0.00    -0.056 C 
BRANCH  15  16
ATOM     16  N   UNL     1      36.204 -24.193 -15.121  0.00  0.00    +0.388 N 
ATOM     17  H   UNL     1      36.185 -24.428 -16.114  0.00  0.00    -0.080 HD
BRANCH  16  18
ATOM     18  C   UNL     1      36.546 -25.398 -14.366  0.00  0.00    -0.077 C 
ATOM     19  C   UNL     1      36.706 -26.596 -15.286  0.00  0.00    -0.025 C 
ENDBRANCH  16  18
BRANCH  16  20
ATOM     20  C   UNL     1      37.213 -23.154 -14.912  0.00  0.00    -0.077 C 
ATOM     21  C   UNL     1      37.589 -22.481 -16.220  0.00  0.00    -0.025 C 
ENDBRANCH  16  20
ENDBRANCH  15  16
ENDBRANCH  14  15
ENDBRANCH   2  14
TORSDOF 7
ENDMDL
