MODEL 1
REMARK VINA RESULT:      -7.1      0.000      0.000
REMARK  Name = 445929
REMARK  6 active torsions:
REMARK  status: ('A' for Active; 'I' for Inactive)
REMARK    1  A    between atoms: C_2  and  O_7
REMARK    2  A    between atoms: C_3  and  O_9
REMARK    3  A    between atoms: C_4  and  O_11
REMARK    4  A    between atoms: C_5  and  C_16
REMARK    5  A    between atoms: C_6  and  O_13
REMARK    6  A    between atoms: C_16  and  O_17
REMARK                            x       y       z     vdW  Elec       q    Type
REMARK                         _______ _______ _______ _____ _____    ______ ____
ROOT
ATOM      1  O   UNL     1      38.625 -25.113 -12.768  0.00  0.00    -0.317 OA
ATOM      2  C   UNL     1      36.542 -25.363 -14.744  0.00  0.00    +0.172 C 
ATOM      3  C   UNL     1      38.022 -25.274 -15.127  0.00  0.00    +0.178 C 
ATOM      4  C   UNL     1      36.308 -24.680 -13.393  0.00  0.00    +0.196 C 
ATOM      5  C   UNL     1      38.882 -25.811 -13.986  0.00  0.00    +0.245 C 
ATOM      6  C   UNL     1      37.267 -25.230 -12.331  0.00  0.00    +0.263 C 
ENDROOT
BRANCH   2   7
ATOM      7  O   UNL     1      35.763 -24.739 -15.759  0.00  0.00    -0.379 OA
ATOM      8  H   UNL     1      35.329 -25.418 -16.299  0.00  0.00    +0.211 HD
ENDBRANCH   2   7
BRANCH   3   9
ATOM      9  O   UNL     1      38.365 -23.903 -15.358  0.00  0.00    -0.379 OA
ATOM     10  H   UNL     1      37.979 -23.352 -14.660  0.00  0.00    +0.211 HD
ENDBRANCH   3   9
BRANCH   4  11
ATOM     11  O   UNL     1      34.968 -24.878 -12.957  0.00  0.00    -0.378 OA
ATOM     12  H   UNL     1      34.781 -25.829 -12.909  0.00  0.00    +0.211 HD
ENDBRANCH   4  11
BRANCH   6  13
ATOM     13  O   UNL     1      36.927 -26.581 -12.016  0.00  0.00    -0.358 OA
ATOM     14  H   UNL     1      36.991 -27.126 -12.815  0.00  0.00    +0.213 HD
ENDBRANCH   6  13
BRANCH   5  16
ATOM     15  O   UNL     1      40.930 -24.553 -14.215  0.00  0.00    -0.247 OA
ATOM     16  C   UNL     1      40.339 -25.622 -14.264  0.00  0.00    +0.344 C 
BRANCH  16  17
ATOM     17  O   UNL     1      40.922 -26.804 -14.582  0.00  0.00    -0.478 OA
ATOM     18  H   UNL     1      41.529 -26.850 -15.294  0.00  0.00    +0.295 HD
ENDBRANCH  16  17
ENDBRANCH   5  16
TORSDOF 6
ENDMDL
MODEL 2
REMARK VINA RESULT:      -6.8      1.877      3.083
REMARK  Name = 445929
REMARK  6 active torsions:
REMARK  status: ('A' for Active; 'I' for Inactive)
REMARK    1  A    between atoms: C_2  and  O_7
REMARK    2  A    between atoms: C_3  and  O_9
REMARK    3  A    between atoms: C_4  and  O_11
REMARK    4  A    between atoms: C_5  and  C_16
REMARK    5  A    between atoms: C_6  and  O_13
REMARK    6  A    between atoms: C_16  and  O_17
REMARK                            x       y       z     vdW  Elec       q    Type
REMARK                         _______ _______ _______ _____ _____    ______ ____
ROOT
ATOM      1  O   UNL     1      37.541 -25.795 -12.828  0.00  0.00    -0.317 OA
ATOM      2  C   UNL     1      36.671 -24.625 -15.314  0.00  0.00    +0.172 C 
ATOM      3  C   UNL     1      36.817 -23.799 -14.032  0.00  0.00    +0.178 C 
ATOM      4  C   UNL     1      36.404 -26.092 -14.965  0.00  0.00    +0.196 C 
ATOM      5  C   UNL     1      37.868 -24.438 -13.127  0.00  0.00    +0.245 C 
ATOM      6  C   UNL     1      37.465 -26.622 -13.993  0.00  0.00    +0.263 C 
ENDROOT
BRANCH   2   7
ATOM      7  O   UNL     1      35.598 -24.093 -16.085  0.00  0.00    -0.379 OA
ATOM      8  H   UNL     1      34.956 -24.795 -16.275  0.00  0.00    +0.211 HD
ENDBRANCH   2   7
BRANCH   3   9
ATOM      9  O   UNL     1      35.564 -23.778 -13.341  0.00  0.00    -0.379 OA
ATOM     10  H   UNL     1      34.910 -23.297 -13.871  0.00  0.00    +0.211 HD
ENDBRANCH   3   9
BRANCH   4  11
ATOM     11  O   UNL     1      36.406 -26.895 -16.140  0.00  0.00    -0.378 OA
ATOM     12  H   UNL     1      35.904 -26.447 -16.838  0.00  0.00    +0.211 HD
ENDBRANCH   4  11
BRANCH   6  13
ATOM     13  O   UNL     1      38.727 -26.724 -14.654  0.00  0.00    -0.358 OA
ATOM     14  H   UNL     1      38.702 -26.216 -15.479  0.00  0.00    +0.213 HD
ENDBRANCH   6  13
BRANCH   5  16
ATOM     15  O   UNL     1      38.608 -22.732 -11.588  0.00  0.00    -0.247 OA
ATOM     16  C   UNL     1      37.951 -23.739 -11.808  0.00  0.00    +0.344 C 
BRANCH  16  17
ATOM     17  O   UNL     1      37.194 -24.376 -10.880  0.00  0.00    -0.478 OA
ATOM     18  H   UNL     1      37.452 -24.368  -9.980  0.00  0.00    +0.295 HD
ENDBRANCH  16  17
ENDBRANCH   5  16
TORSDOF 6
ENDMDL
MODEL 3
REMARK VINA RESULT:      -6.7      1.843      3.322
REMARK  Name = 445929
REMARK  6 active torsions:
REMARK  status: ('A' for Active; 'I' for Inactive)
REMARK    1  A    between atoms: C_2  and  O_7
REMARK    2  A    between atoms: C_3  and  O_9
REMARK    3  A    between atoms: C_4  and  O_11
REMARK    4  A    between atoms: C_5  and  C_16
REMARK    5  A    between atoms: C_6  and  O_13
REMARK    6  A    between atoms: C_16  and  O_17
REMARK                            x       y       z     vdW  Elec       q    Type
REMARK                         _______ _______ _______ _____ _____    ______ ____
ROOT
ATOM      1  O   UNL     1      36.656 -23.638 -13.569  0.00  0.00    -0.317 OA
ATOM      2  C   UNL     1      37.567 -26.342 -13.977  0.00  0.00    +0.172 C 
ATOM      3  C   UNL     1      38.322 -25.354 -13.083  0.00  0.00    +0.178 C 
ATOM      4  C   UNL     1      36.766 -25.581 -15.038  0.00  0.00    +0.196 C 
ATOM      5  C   UNL     1      37.349 -24.319 -12.524  0.00  0.00    +0.245 C 
ATOM      6  C   UNL     1      35.877 -24.515 -14.389  0.00  0.00    +0.263 C 
ENDROOT
BRANCH   2   7
ATOM      7  O   UNL     1      38.506 -27.217 -14.594  0.00  0.00    -0.379 OA
ATOM      8  H   UNL     1      38.867 -26.797 -15.390  0.00  0.00    +0.211 HD
ENDBRANCH   2   7
BRANCH   3   9
ATOM      9  O   UNL     1      39.315 -24.679 -13.862  0.00  0.00    -0.379 OA
ATOM     10  H   UNL     1      38.882 -24.151 -14.551  0.00  0.00    +0.211 HD
ENDBRANCH   3   9
BRANCH   4  11
ATOM     11  O   UNL     1      35.949 -26.476 -15.786  0.00  0.00    -0.378 OA
ATOM     12  H   UNL     1      35.015 -26.307 -15.582  0.00  0.00    +0.211 HD
ENDBRANCH   4  11
BRANCH   6  13
ATOM     13  O   UNL     1      34.827 -25.137 -13.648  0.00  0.00    -0.358 OA
ATOM     14  H   UNL     1      34.423 -24.489 -13.051  0.00  0.00    +0.213 HD
ENDBRANCH   6  13
BRANCH   5  16
ATOM     15  O   UNL     1      39.277 -23.174 -11.631  0.00  0.00    -0.247 OA
ATOM     16  C   UNL     1      38.064 -23.258 -11.750  0.00  0.00    +0.344 C 
BRANCH  16  17
ATOM     17  O   UNL     1      37.180 -22.395 -11.191  0.00  0.00    -0.478 OA
ATOM     18  H   UNL     1      37.282 -22.133 -10.298  0.00  0.00    +0.295 HD
ENDBRANCH  16  17
ENDBRANCH   5  16
TORSDOF 6
ENDMDL
MODEL 4
REMARK VINA RESULT:      -6.7      1.596      3.166
REMARK  Name = 445929
REMARK  6 active torsions:
REMARK  status: ('A' for Active; 'I' for Inactive)
REMARK    1  A    between atoms: C_2  and  O_7
REMARK    2  A    between atoms: C_3  and  O_9
REMARK    3  A    between atoms: C_4  and  O_11
REMARK    4  A    between atoms: C_5  and  C_16
REMARK    5  A    between atoms: C_6  and  O_13
REMARK    6  A    between atoms: C_16  and  O_17
REMARK                            x       y       z     vdW  Elec       q    Type
REMARK                         _______ _______ _______ _____ _____    ______ ____
ROOT
ATOM      1  O   UNL     1      36.545 -24.940 -14.533  0.00  0.00    -0.317 OA
ATOM      2  C   UNL     1      35.878 -24.378 -11.785  0.00  0.00    +0.172 C 
ATOM      3  C   UNL     1      37.133 -25.166 -12.175  0.00  0.00    +0.178 C 
ATOM      4  C   UNL     1      34.808 -24.527 -12.871  0.00  0.00    +0.196 C 
ATOM      5  C   UNL     1      37.585 -24.754 -13.573  0.00  0.00    +0.245 C 
ATOM      6  C   UNL     1      35.376 -24.165 -14.249  0.00  0.00    +0.263 C 
ENDROOT
BRANCH   2   7
ATOM      7  O   UNL     1      35.394 -24.868 -10.538  0.00  0.00    -0.379 OA
ATOM      8  H   UNL     1      34.839 -25.648 -10.690  0.00  0.00    +0.211 HD
ENDBRANCH   2   7
BRANCH   3   9
ATOM      9  O   UNL     1      36.826 -26.565 -12.183  0.00  0.00    -0.379 OA
ATOM     10  H   UNL     1      36.534 -26.826 -13.070  0.00  0.00    +0.211 HD
ENDBRANCH   3   9
BRANCH   4  11
ATOM     11  O   UNL     1      33.693 -23.688 -12.593  0.00  0.00    -0.378 OA
ATOM     12  H   UNL     1      33.995 -22.771 -12.490  0.00  0.00    +0.211 HD
ENDBRANCH   4  11
BRANCH   6  13
ATOM     13  O   UNL     1      35.641 -22.763 -14.316  0.00  0.00    -0.358 OA
ATOM     14  H   UNL     1      35.959 -22.536 -15.203  0.00  0.00    +0.213 HD
ENDBRANCH   6  13
BRANCH   5  16
ATOM     15  O   UNL     1      38.626 -26.693 -14.565  0.00  0.00    -0.247 OA
ATOM     16  C   UNL     1      38.730 -25.591 -14.046  0.00  0.00    +0.344 C 
BRANCH  16  17
ATOM     17  O   UNL     1      39.909 -24.962 -13.819  0.00  0.00    -0.478 OA
ATOM     18  H   UNL     1      40.205 -24.824 -12.942  0.00  0.00    +0.295 HD
ENDBRANCH  16  17
ENDBRANCH   5  16
TORSDOF 6
ENDMDL
MODEL 5
REMARK VINA RESULT:      -6.7      1.404      2.622
REMARK  Name = 445929
REMARK  6 active torsions:
REMARK  status: ('A' for Active; 'I' for Inactive)
REMARK    1  A    between atoms: C_2  and  O_7
REMARK    2  A    between atoms: C_3  and  O_9
REMARK    3  A    between atoms: C_4  and  O_11
REMARK    4  A    between atoms: C_5  and  C_16
REMARK    5  A    between atoms: C_6  and  O_13
REMARK    6  A    between atoms: C_16  and  O_17
REMARK                            x       y       z     vdW  Elec       q    Type
REMARK                         _______ _______ _______ _____ _____    ______ ____
ROOT
ATOM      1  O   UNL     1      38.282 -24.692 -15.235  0.00  0.00    -0.317 OA
ATOM      2  C   UNL     1      37.132 -24.860 -12.597  0.00  0.00    +0.172 C 
ATOM      3  C   UNL     1      38.316 -25.732 -13.027  0.00  0.00    +0.178 C 
ATOM      4  C   UNL     1      36.308 -24.454 -13.823  0.00  0.00    +0.196 C 
ATOM      5  C   UNL     1      39.110 -25.019 -14.119  0.00  0.00    +0.245 C 
ATOM      6  C   UNL     1      37.202 -23.818 -14.894  0.00  0.00    +0.263 C 
ENDROOT
BRANCH   2   7
ATOM      7  O   UNL     1      36.329 -25.592 -11.677  0.00  0.00    -0.379 OA
ATOM      8  H   UNL     1      36.898 -26.019 -11.018  0.00  0.00    +0.211 HD
ENDBRANCH   2   7
BRANCH   3   9
ATOM      9  O   UNL     1      37.823 -26.970 -13.549  0.00  0.00    -0.379 OA
ATOM     10  H   UNL     1      38.226 -27.139 -14.414  0.00  0.00    +0.211 HD
ENDBRANCH   3   9
BRANCH   4  11
ATOM     11  O   UNL     1      35.289 -23.530 -13.458  0.00  0.00    -0.378 OA
ATOM     12  H   UNL     1      34.433 -23.847 -13.785  0.00  0.00    +0.211 HD
ENDBRANCH   4  11
BRANCH   6  13
ATOM     13  O   UNL     1      37.671 -22.546 -14.448  0.00  0.00    -0.358 OA
ATOM     14  H   UNL     1      36.937 -22.049 -14.055  0.00  0.00    +0.213 HD
ENDBRANCH   6  13
BRANCH   5  16
ATOM     15  O   UNL     1      40.935 -26.593 -13.984  0.00  0.00    -0.247 OA
ATOM     16  C   UNL     1      40.199 -25.889 -14.660  0.00  0.00    +0.344 C 
BRANCH  16  17
ATOM     17  O   UNL     1      40.263 -25.792 -16.010  0.00  0.00    -0.478 OA
ATOM     18  H   UNL     1      40.972 -25.332 -16.414  0.00  0.00    +0.295 HD
ENDBRANCH  16  17
ENDBRANCH   5  16
TORSDOF 6
ENDMDL
MODEL 6
REMARK VINA RESULT:      -6.6      1.523      4.490
REMARK  Name = 445929
REMARK  6 active torsions:
REMARK  status: ('A' for Active; 'I' for Inactive)
REMARK    1  A    between atoms: C_2  and  O_7
REMARK    2  A    between atoms: C_3  and  O_9
REMARK    3  A    between atoms: C_4  and  O_11
REMARK    4  A    between atoms: C_5  and  C_16
REMARK    5  A    between atoms: C_6  and  O_13
REMARK    6  A    between atoms: C_16  and  O_17
REMARK                            x       y       z     vdW  Elec       q    Type
REMARK                         _______ _______ _______ _____ _____    ______ ____
ROOT
ATOM      1  O   UNL     1      36.341 -23.670 -13.582  0.00  0.00    -0.317 OA
ATOM      2  C   UNL     1      38.355 -25.727 -13.708  0.00  0.00    +0.172 C 
ATOM      3  C   UNL     1      37.462 -25.536 -12.478  0.00  0.00    +0.178 C 
ATOM      4  C   UNL     1      38.491 -24.404 -14.468  0.00  0.00    +0.196 C 
ATOM      5  C   UNL     1      36.136 -24.907 -12.900  0.00  0.00    +0.245 C 
ATOM      6  C   UNL     1      37.111 -23.812 -14.779  0.00  0.00    +0.263 C 
ENDROOT
BRANCH   2   7
ATOM      7  O   UNL     1      39.634 -26.190 -13.282  0.00  0.00    -0.379 OA
ATOM      8  H   UNL     1      39.603 -27.150 -13.149  0.00  0.00    +0.211 HD
ENDBRANCH   2   7
BRANCH   3   9
ATOM      9  O   UNL     1      38.115 -24.660 -11.554  0.00  0.00    -0.379 OA
ATOM     10  H   UNL     1      38.416 -25.167 -10.785  0.00  0.00    +0.211 HD
ENDBRANCH   3   9
BRANCH   4  11
ATOM     11  O   UNL     1      39.200 -24.597 -15.687  0.00  0.00    -0.378 OA
ATOM     12  H   UNL     1      38.669 -24.259 -16.426  0.00  0.00    +0.211 HD
ENDBRANCH   4  11
BRANCH   6  13
ATOM     13  O   UNL     1      36.440 -24.616 -15.749  0.00  0.00    -0.358 OA
ATOM     14  H   UNL     1      36.964 -25.412 -15.929  0.00  0.00    +0.213 HD
ENDBRANCH   6  13
BRANCH   5  16
ATOM     15  O   UNL     1      35.312 -25.178 -10.647  0.00  0.00    -0.247 OA
ATOM     16  C   UNL     1      35.284 -24.583 -11.714  0.00  0.00    +0.344 C 
BRANCH  16  17
ATOM     17  O   UNL     1      34.469 -23.534 -11.984  0.00  0.00    -0.478 OA
ATOM     18  H   UNL     1      33.975 -23.135 -11.295  0.00  0.00    +0.295 HD
ENDBRANCH  16  17
ENDBRANCH   5  16
TORSDOF 6
ENDMDL
MODEL 7
REMARK VINA RESULT:      -6.5      2.064      3.488
REMARK  Name = 445929
REMARK  6 active torsions:
REMARK  status: ('A' for Active; 'I' for Inactive)
REMARK    1  A    between atoms: C_2  and  O_7
REMARK    2  A    between atoms: C_3  and  O_9
REMARK    3  A    between atoms: C_4  and  O_11
REMARK    4  A    between atoms: C_5  and  C_16
REMARK    5  A    between atoms: C_6  and  O_13
REMARK    6  A    between atoms: C_16  and  O_17
REMARK                            x       y       z     vdW  Elec       q    Type
REMARK                         _______ _______ _______ _____ _____    ______ ____
ROOT
ATOM      1  O   UNL     1      37.692 -23.548 -13.555  0.00  0.00    -0.317 OA
ATOM      2  C   UNL     1      36.474 -24.815 -11.270  0.00  0.00    +0.172 C 
ATOM      3  C   UNL     1      36.415 -25.431 -12.671  0.00  0.00    +0.178 C 
ATOM      4  C   UNL     1      36.634 -23.295 -11.373  0.00  0.00    +0.196 C 
ATOM      5  C   UNL     1      37.622 -24.972 -13.486  0.00  0.00    +0.245 C 
ATOM      6  C   UNL     1      37.822 -22.931 -12.270  0.00  0.00    +0.263 C 
ENDROOT
BRANCH   2   7
ATOM      7  O   UNL     1      35.278 -25.144 -10.570  0.00  0.00    -0.379 OA
ATOM      8  H   UNL     1      34.588 -25.390 -11.205  0.00  0.00    +0.211 HD
ENDBRANCH   2   7
BRANCH   3   9
ATOM      9  O   UNL     1      35.221 -24.992 -13.328  0.00  0.00    -0.379 OA
ATOM     10  H   UNL     1      35.444 -24.648 -14.207  0.00  0.00    +0.211 HD
ENDBRANCH   3   9
BRANCH   4  11
ATOM     11  O   UNL     1      36.832 -22.724 -10.084  0.00  0.00    -0.378 OA
ATOM     12  H   UNL     1      36.122 -22.090  -9.898  0.00  0.00    +0.211 HD
ENDBRANCH   4  11
BRANCH   6  13
ATOM     13  O   UNL     1      39.047 -23.292 -11.631  0.00  0.00    -0.358 OA
ATOM     14  H   UNL     1      39.729 -23.447 -12.302  0.00  0.00    +0.213 HD
ENDBRANCH   6  13
BRANCH   5  16
ATOM     15  O   UNL     1      37.826 -26.569 -15.284  0.00  0.00    -0.247 OA
ATOM     16  C   UNL     1      37.537 -25.445 -14.902  0.00  0.00    +0.344 C 
BRANCH  16  17
ATOM     17  O   UNL     1      37.096 -24.452 -15.713  0.00  0.00    -0.478 OA
ATOM     18  H   UNL     1      37.619 -23.686 -15.843  0.00  0.00    +0.295 HD
ENDBRANCH  16  17
ENDBRANCH   5  16
TORSDOF 6
ENDMDL
MODEL 8
REMARK VINA RESULT:      -6.5      2.337      3.129
REMARK  Name = 445929
REMARK  6 active torsions:
REMARK  status: ('A' for Active; 'I' for Inactive)
REMARK    1  A    between atoms: C_2  and  O_7
REMARK    2  A    between atoms: C_3  and  O_9
REMARK    3  A    between atoms: C_4  and  O_11
REMARK    4  A    between atoms: C_5  and  C_16
REMARK    5  A    between atoms: C_6  and  O_13
REMARK    6  A    between atoms: C_16  and  O_17
REMARK                            x       y       z     vdW  Elec       q    Type
REMARK                         _______ _______ _______ _____ _____    ______ ____
ROOT
ATOM      1  O   UNL     1      37.586 -22.943 -12.999  0.00  0.00    -0.317 OA
ATOM      2  C   UNL     1      35.281 -24.655 -12.746  0.00  0.00    +0.172 C 
ATOM      3  C   UNL     1      35.707 -24.056 -14.090  0.00  0.00    +0.178 C 
ATOM      4  C   UNL     1      35.768 -23.765 -11.597  0.00  0.00    +0.196 C 
ATOM      5  C   UNL     1      37.212 -23.794 -14.081  0.00  0.00    +0.245 C 
ATOM      6  C   UNL     1      37.272 -23.496 -11.717  0.00  0.00    +0.263 C 
ENDROOT
BRANCH   2   7
ATOM      7  O   UNL     1      33.862 -24.769 -12.721  0.00  0.00    -0.379 OA
ATOM      8  H   UNL     1      33.570 -25.345 -13.444  0.00  0.00    +0.211 HD
ENDBRANCH   2   7
BRANCH   3   9
ATOM      9  O   UNL     1      35.024 -22.813 -14.288  0.00  0.00    -0.379 OA
ATOM     10  H   UNL     1      34.083 -22.984 -14.447  0.00  0.00    +0.211 HD
ENDBRANCH   3   9
BRANCH   4  11
ATOM     11  O   UNL     1      35.504 -24.380 -10.341  0.00  0.00    -0.378 OA
ATOM     12  H   UNL     1      34.983 -23.775  -9.789  0.00  0.00    +0.211 HD
ENDBRANCH   4  11
BRANCH   6  13
ATOM     13  O   UNL     1      38.006 -24.694 -11.464  0.00  0.00    -0.358 OA
ATOM     14  H   UNL     1      37.792 -25.355 -12.140  0.00  0.00    +0.213 HD
ENDBRANCH   6  13
BRANCH   5  16
ATOM     15  O   UNL     1      37.090 -22.121 -15.817  0.00  0.00    -0.247 OA
ATOM     16  C   UNL     1      37.650 -23.089 -15.325  0.00  0.00    +0.344 C 
BRANCH  16  17
ATOM     17  O   UNL     1      38.760 -23.673 -15.840  0.00  0.00    -0.478 OA
ATOM     18  H   UNL     1      39.245 -24.290 -15.329  0.00  0.00    +0.295 HD
ENDBRANCH  16  17
ENDBRANCH   5  16
TORSDOF 6
ENDMDL
MODEL 9
REMARK VINA RESULT:      -6.4      1.929      4.034
REMARK  Name = 445929
REMARK  6 active torsions:
REMARK  status: ('A' for Active; 'I' for Inactive)
REMARK    1  A    between atoms: C_2  and  O_7
REMARK    2  A    between atoms: C_3  and  O_9
REMARK    3  A    between atoms: C_4  and  O_11
REMARK    4  A    between atoms: C_5  and  C_16
REMARK    5  A    between atoms: C_6  and  O_13
REMARK    6  A    between atoms: C_16  and  O_17
REMARK                            x       y       z     vdW  Elec       q    Type
REMARK                         _______ _______ _______ _____ _____    ______ ____
ROOT
ATOM      1  O   UNL     1      35.852 -24.406 -15.949  0.00  0.00    -0.317 OA
ATOM      2  C   UNL     1      37.520 -24.259 -13.604  0.00  0.00    +0.172 C 
ATOM      3  C   UNL     1      37.638 -23.251 -14.751  0.00  0.00    +0.178 C 
ATOM      4  C   UNL     1      36.961 -25.586 -14.126  0.00  0.00    +0.196 C 
ATOM      5  C   UNL     1      36.297 -23.136 -15.473  0.00  0.00    +0.245 C 
ATOM      6  C   UNL     1      35.657 -25.360 -14.900  0.00  0.00    +0.263 C 
ENDROOT
BRANCH   2   7
ATOM      7  O   UNL     1      38.808 -24.453 -13.026  0.00  0.00    -0.379 OA
ATOM      8  H   UNL     1      39.060 -25.386 -13.104  0.00  0.00    +0.211 HD
ENDBRANCH   2   7
BRANCH   3   9
ATOM      9  O   UNL     1      38.624 -23.712 -15.681  0.00  0.00    -0.379 OA
ATOM     10  H   UNL     1      38.223 -23.800 -16.560  0.00  0.00    +0.211 HD
ENDBRANCH   3   9
BRANCH   4  11
ATOM     11  O   UNL     1      36.713 -26.483 -13.049  0.00  0.00    -0.378 OA
ATOM     12  H   UNL     1      37.045 -27.365 -13.281  0.00  0.00    +0.211 HD
ENDBRANCH   4  11
BRANCH   6  13
ATOM     13  O   UNL     1      34.619 -24.960 -14.006  0.00  0.00    -0.358 OA
ATOM     14  H   UNL     1      33.943 -25.653 -13.962  0.00  0.00    +0.213 HD
ENDBRANCH   6  13
BRANCH   5  16
ATOM     15  O   UNL     1      35.797 -22.439 -17.730  0.00  0.00    -0.247 OA
ATOM     16  C   UNL     1      36.400 -22.261 -16.681  0.00  0.00    +0.344 C 
BRANCH  16  17
ATOM     17  O   UNL     1      37.261 -21.238 -16.459  0.00  0.00    -0.478 OA
ATOM     18  H   UNL     1      37.566 -21.062 -15.591  0.00  0.00    +0.295 HD
ENDBRANCH  16  17
ENDBRANCH   5  16
TORSDOF 6
ENDMDL
