MODEL 1
REMARK VINA RESULT:      -8.8      0.000      0.000
REMARK  Name = 125017
REMARK  6 active torsions:
REMARK  status: ('A' for Active; 'I' for Inactive)
REMARK    1  A    between atoms: C_1  and  C_2
REMARK    2  A    between atoms: C_1  and  C_10
REMARK    3  A    between atoms: C_1  and  C_18
REMARK    4  A    between atoms: C_2  and  O_8
REMARK    5  A    between atoms: C_15  and  O_16
REMARK    6  A    between atoms: C_18  and  N_19
REMARK                            x       y       z     vdW  Elec       q    Type
REMARK                         _______ _______ _______ _____ _____    ______ ____
ROOT
ATOM      1  C   UNL     1      34.453 -17.901 -22.201  0.00  0.00    +0.026 C 
ENDROOT
BRANCH   1   2
ATOM      2  C   UNL     1      34.238 -16.625 -21.385  0.00  0.00    +0.090 C 
ATOM      3  C   UNL     1      32.800 -16.568 -20.845  0.00  0.00    +0.027 C 
ATOM      4  C   UNL     1      34.554 -15.379 -22.228  0.00  0.00    +0.027 C 
ATOM      5  C   UNL     1      32.510 -15.265 -20.099  0.00  0.00    +0.002 C 
ATOM      6  C   UNL     1      34.262 -14.081 -21.477  0.00  0.00    +0.002 C 
ATOM      7  C   UNL     1      32.828 -14.044 -20.956  0.00  0.00    +0.000 C 
BRANCH   2   8
ATOM      8  O   UNL     1      35.127 -16.668 -20.265  0.00  0.00    -0.386 OA
ATOM      9  H   UNL     1      34.827 -16.043 -19.588  0.00  0.00    +0.210 HD
ENDBRANCH   2   8
ENDBRANCH   1   2
BRANCH   1  10
ATOM     10  C   UNL     1      34.567 -19.115 -21.289  0.00  0.00    -0.022 C 
ATOM     11  C   UNL     1      33.413 -19.713 -20.829  0.00  0.00    -0.001 C 
ATOM     12  C   UNL     1      35.822 -19.578 -20.952  0.00  0.00    -0.001 C 
ATOM     13  C   UNL     1      33.518 -20.825 -19.993  0.00  0.00    +0.036 C 
ATOM     14  C   UNL     1      35.928 -20.690 -20.116  0.00  0.00    +0.036 C 
ATOM     15  C   UNL     1      34.776 -21.313 -19.636  0.00  0.00    +0.134 C 
BRANCH  15  16
ATOM     16  O   UNL     1      34.877 -22.399 -18.822  0.00  0.00    -0.506 OA
ATOM     17  H   UNL     1      35.290 -22.320 -17.985  0.00  0.00    +0.292 HD
ENDBRANCH  15  16
ENDBRANCH   1  10
BRANCH   1  18
ATOM     18  C   UNL     1      35.675 -17.816 -23.140  0.00  0.00    -0.071 C 
BRANCH  18  19
ATOM     19  N   UNL     1      35.315 -18.061 -24.534  0.00  0.00    +0.384 N 
ATOM     20  C   UNL     1      34.721 -16.863 -25.128  0.00  0.00    -0.101 C 
ATOM     21  C   UNL     1      34.390 -19.190 -24.635  0.00  0.00    -0.101 C 
ATOM     22  H   UNL     1      36.165 -18.290 -25.049  0.00  0.00    -0.080 HD
ENDBRANCH  18  19
ENDBRANCH   1  18
TORSDOF 6
ENDMDL
MODEL 2
REMARK VINA RESULT:      -8.1      1.550      3.633
REMARK  Name = 125017
REMARK  6 active torsions:
REMARK  status: ('A' for Active; 'I' for Inactive)
REMARK    1  A    between atoms: C_1  and  C_2
REMARK    2  A    between atoms: C_1  and  C_10
REMARK    3  A    between atoms: C_1  and  C_18
REMARK    4  A    between atoms: C_2  and  O_8
REMARK    5  A    between atoms: C_15  and  O_16
REMARK    6  A    between atoms: C_18  and  N_19
REMARK                            x       y       z     vdW  Elec       q    Type
REMARK                         _______ _______ _______ _____ _____    ______ ____
ROOT
ATOM      1  C   UNL     1      34.799 -17.996 -21.290  0.00  0.00    +0.026 C 
ENDROOT
BRANCH   1   2
ATOM      2  C   UNL     1      35.136 -18.075 -22.780  0.00  0.00    +0.090 C 
ATOM      3  C   UNL     1      34.631 -16.821 -23.511  0.00  0.00    +0.027 C 
ATOM      4  C   UNL     1      34.544 -19.348 -23.406  0.00  0.00    +0.027 C 
ATOM      5  C   UNL     1      34.864 -16.896 -25.021  0.00  0.00    +0.002 C 
ATOM      6  C   UNL     1      34.779 -19.416 -24.915  0.00  0.00    +0.002 C 
ATOM      7  C   UNL     1      34.265 -18.164 -25.620  0.00  0.00    +0.000 C 
BRANCH   2   8
ATOM      8  O   UNL     1      36.561 -18.113 -22.904  0.00  0.00    -0.386 OA
ATOM      9  H   UNL     1      36.806 -18.053 -23.839  0.00  0.00    +0.210 HD
ENDBRANCH   2   8
ENDBRANCH   1   2
BRANCH   1  10
ATOM     10  C   UNL     1      34.711 -19.389 -20.679  0.00  0.00    -0.022 C 
ATOM     11  C   UNL     1      33.468 -19.933 -20.437  0.00  0.00    -0.001 C 
ATOM     12  C   UNL     1      35.880 -20.062 -20.388  0.00  0.00    -0.001 C 
ATOM     13  C   UNL     1      33.389 -21.208 -19.877  0.00  0.00    +0.036 C 
ATOM     14  C   UNL     1      35.801 -21.337 -19.828  0.00  0.00    +0.036 C 
ATOM     15  C   UNL     1      34.555 -21.910 -19.572  0.00  0.00    +0.134 C 
BRANCH  15  16
ATOM     16  O   UNL     1      34.476 -23.154 -19.027  0.00  0.00    -0.506 OA
ATOM     17  H   UNL     1      34.955 -23.356 -18.247  0.00  0.00    +0.292 HD
ENDBRANCH  15  16
ENDBRANCH   1  10
BRANCH   1  18
ATOM     18  C   UNL     1      33.506 -17.202 -21.007  0.00  0.00    -0.071 C 
BRANCH  18  19
ATOM     19  N   UNL     1      33.694 -15.765 -21.185  0.00  0.00    +0.384 N 
ATOM     20  C   UNL     1      34.712 -15.263 -20.262  0.00  0.00    -0.101 C 
ATOM     21  C   UNL     1      32.432 -15.053 -20.986  0.00  0.00    -0.101 C 
ATOM     22  H   UNL     1      34.013 -15.599 -22.140  0.00  0.00    -0.080 HD
ENDBRANCH  18  19
ENDBRANCH   1  18
TORSDOF 6
ENDMDL
MODEL 3
REMARK VINA RESULT:      -7.6      3.126      6.600
REMARK  Name = 125017
REMARK  6 active torsions:
REMARK  status: ('A' for Active; 'I' for Inactive)
REMARK    1  A    between atoms: C_1  and  C_2
REMARK    2  A    between atoms: C_1  and  C_10
REMARK    3  A    between atoms: C_1  and  C_18
REMARK    4  A    between atoms: C_2  and  O_8
REMARK    5  A    between atoms: C_15  and  O_16
REMARK    6  A    between atoms: C_18  and  N_19
REMARK                            x       y       z     vdW  Elec       q    Type
REMARK                         _______ _______ _______ _____ _____    ______ ____
ROOT
ATOM      1  C   UNL     1      33.731 -15.550 -22.707  0.00  0.00    +0.026 C 
ENDROOT
BRANCH   1   2
ATOM      2  C   UNL     1      34.727 -16.707 -22.809  0.00  0.00    +0.090 C 
ATOM      3  C   UNL     1      34.128 -17.859 -23.632  0.00  0.00    +0.027 C 
ATOM      4  C   UNL     1      35.142 -17.193 -21.411  0.00  0.00    +0.027 C 
ATOM      5  C   UNL     1      35.051 -19.077 -23.685  0.00  0.00    +0.002 C 
ATOM      6  C   UNL     1      36.064 -18.411 -21.472  0.00  0.00    +0.002 C 
ATOM      7  C   UNL     1      35.448 -19.543 -22.288  0.00  0.00    +0.000 C 
BRANCH   2   8
ATOM      8  O   UNL     1      35.883 -16.227 -23.500  0.00  0.00    -0.386 OA
ATOM      9  H   UNL     1      36.223 -16.922 -24.085  0.00  0.00    +0.210 HD
ENDBRANCH   2   8
ENDBRANCH   1   2
BRANCH   1  10
ATOM     10  C   UNL     1      33.584 -14.841 -24.047  0.00  0.00    -0.022 C 
ATOM     11  C   UNL     1      33.312 -15.592 -25.171  0.00  0.00    -0.001 C 
ATOM     12  C   UNL     1      33.726 -13.470 -24.093  0.00  0.00    -0.001 C 
ATOM     13  C   UNL     1      33.178 -14.942 -26.398  0.00  0.00    +0.036 C 
ATOM     14  C   UNL     1      33.592 -12.820 -25.320  0.00  0.00    +0.036 C 
ATOM     15  C   UNL     1      33.319 -13.556 -26.472  0.00  0.00    +0.134 C 
BRANCH  15  16
ATOM     16  O   UNL     1      33.186 -12.923 -27.670  0.00  0.00    -0.506 OA
ATOM     17  H   UNL     1      32.398 -13.021 -28.168  0.00  0.00    +0.292 HD
ENDBRANCH  15  16
ENDBRANCH   1  10
BRANCH   1  18
ATOM     18  C   UNL     1      34.096 -14.538 -21.600  0.00  0.00    -0.071 C 
BRANCH  18  19
ATOM     19  N   UNL     1      33.032 -14.398 -20.610  0.00  0.00    +0.384 N 
ATOM     20  C   UNL     1      32.152 -15.567 -20.636  0.00  0.00    -0.101 C 
ATOM     21  C   UNL     1      32.263 -13.177 -20.852  0.00  0.00    -0.101 C 
ATOM     22  H   UNL     1      33.459 -14.335 -19.686  0.00  0.00    -0.080 HD
ENDBRANCH  18  19
ENDBRANCH   1  18
TORSDOF 6
ENDMDL
MODEL 4
REMARK VINA RESULT:      -7.4      4.780      7.712
REMARK  Name = 125017
REMARK  6 active torsions:
REMARK  status: ('A' for Active; 'I' for Inactive)
REMARK    1  A    between atoms: C_1  and  C_2
REMARK    2  A    between atoms: C_1  and  C_10
REMARK    3  A    between atoms: C_1  and  C_18
REMARK    4  A    between atoms: C_2  and  O_8
REMARK    5  A    between atoms: C_15  and  O_16
REMARK    6  A    between atoms: C_18  and  N_19
REMARK                            x       y       z     vdW  Elec       q    Type
REMARK                         _______ _______ _______ _____ _____    ______ ____
ROOT
ATOM      1  C   UNL     1      33.911 -22.684 -16.941  0.00  0.00    +0.026 C 
ENDROOT
BRANCH   1   2
ATOM      2  C   UNL     1      34.155 -22.381 -18.421  0.00  0.00    +0.090 C 
ATOM      3  C   UNL     1      35.578 -21.840 -18.630  0.00  0.00    +0.027 C 
ATOM      4  C   UNL     1      33.109 -21.388 -18.953  0.00  0.00    +0.027 C 
ATOM      5  C   UNL     1      35.838 -21.436 -20.082  0.00  0.00    +0.002 C 
ATOM      6  C   UNL     1      33.376 -20.988 -20.404  0.00  0.00    +0.002 C 
ATOM      7  C   UNL     1      34.791 -20.449 -20.587  0.00  0.00    +0.000 C 
BRANCH   2   8
ATOM      8  O   UNL     1      34.041 -23.611 -19.142  0.00  0.00    -0.386 OA
ATOM      9  H   UNL     1      33.529 -23.465 -19.952  0.00  0.00    +0.210 HD
ENDBRANCH   2   8
ENDBRANCH   1   2
BRANCH   1  10
ATOM     10  C   UNL     1      35.191 -23.161 -16.267  0.00  0.00    -0.022 C 
ATOM     11  C   UNL     1      36.295 -22.335 -16.274  0.00  0.00    -0.001 C 
ATOM     12  C   UNL     1      35.205 -24.404 -15.670  0.00  0.00    -0.001 C 
ATOM     13  C   UNL     1      37.467 -22.772 -15.657  0.00  0.00    +0.036 C 
ATOM     14  C   UNL     1      36.377 -24.842 -15.053  0.00  0.00    +0.036 C 
ATOM     15  C   UNL     1      37.508 -24.026 -15.047  0.00  0.00    +0.134 C 
BRANCH  15  16
ATOM     16  O   UNL     1      38.652 -24.451 -14.444  0.00  0.00    -0.506 OA
ATOM     17  H   UNL     1      39.423 -23.919 -14.473  0.00  0.00    +0.292 HD
ENDBRANCH  15  16
ENDBRANCH   1  10
BRANCH   1  18
ATOM     18  C   UNL     1      32.773 -23.702 -16.715  0.00  0.00    -0.071 C 
BRANCH  18  19
ATOM     19  N   UNL     1      31.780 -23.212 -15.763  0.00  0.00    +0.384 N 
ATOM     20  C   UNL     1      31.590 -24.177 -14.679  0.00  0.00    -0.101 C 
ATOM     21  C   UNL     1      30.508 -22.948 -16.436  0.00  0.00    -0.101 C 
ATOM     22  H   UNL     1      32.122 -22.339 -15.362  0.00  0.00    -0.080 HD
ENDBRANCH  18  19
ENDBRANCH   1  18
TORSDOF 6
ENDMDL
MODEL 5
REMARK VINA RESULT:      -7.3      6.686      9.813
REMARK  Name = 125017
REMARK  6 active torsions:
REMARK  status: ('A' for Active; 'I' for Inactive)
REMARK    1  A    between atoms: C_1  and  C_2
REMARK    2  A    between atoms: C_1  and  C_10
REMARK    3  A    between atoms: C_1  and  C_18
REMARK    4  A    between atoms: C_2  and  O_8
REMARK    5  A    between atoms: C_15  and  O_16
REMARK    6  A    between atoms: C_18  and  N_19
REMARK                            x       y       z     vdW  Elec       q    Type
REMARK                         _______ _______ _______ _____ _____    ______ ____
ROOT
ATOM      1  C   UNL     1      34.784 -23.172 -15.103  0.00  0.00    +0.026 C 
ENDROOT
BRANCH   1   2
ATOM      2  C   UNL     1      35.217 -24.358 -14.238  0.00  0.00    +0.090 C 
ATOM      3  C   UNL     1      35.776 -23.866 -12.893  0.00  0.00    +0.027 C 
ATOM      4  C   UNL     1      36.252 -25.221 -14.977  0.00  0.00    +0.027 C 
ATOM      5  C   UNL     1      36.307 -25.012 -12.031  0.00  0.00    +0.002 C 
ATOM      6  C   UNL     1      36.779 -26.364 -14.109  0.00  0.00    +0.002 C 
ATOM      7  C   UNL     1      37.334 -25.852 -12.783  0.00  0.00    +0.000 C 
BRANCH   2   8
ATOM      8  O   UNL     1      34.056 -25.148 -13.970  0.00  0.00    -0.386 OA
ATOM      9  H   UNL     1      34.322 -25.988 -13.565  0.00  0.00    +0.210 HD
ENDBRANCH   2   8
ENDBRANCH   1   2
BRANCH   1  10
ATOM     10  C   UNL     1      33.268 -23.122 -15.235  0.00  0.00    -0.022 C 
ATOM     11  C   UNL     1      32.506 -22.933 -14.102  0.00  0.00    -0.001 C 
ATOM     12  C   UNL     1      32.705 -23.268 -16.487  0.00  0.00    -0.001 C 
ATOM     13  C   UNL     1      31.117 -22.888 -14.224  0.00  0.00    +0.036 C 
ATOM     14  C   UNL     1      31.316 -23.223 -16.609  0.00  0.00    +0.036 C 
ATOM     15  C   UNL     1      30.522 -23.034 -15.478  0.00  0.00    +0.134 C 
BRANCH  15  16
ATOM     16  O   UNL     1      29.167 -22.988 -15.596  0.00  0.00    -0.506 OA
ATOM     17  H   UNL     1      28.647 -23.716 -15.316  0.00  0.00    +0.292 HD
ENDBRANCH  15  16
ENDBRANCH   1  10
BRANCH   1  18
ATOM     18  C   UNL     1      35.447 -23.171 -16.497  0.00  0.00    -0.071 C 
BRANCH  18  19
ATOM     19  N   UNL     1      36.270 -21.984 -16.713  0.00  0.00    +0.384 N 
ATOM     20  C   UNL     1      36.421 -21.718 -18.143  0.00  0.00    -0.101 C 
ATOM     21  C   UNL     1      37.581 -22.145 -16.084  0.00  0.00    -0.101 C 
ATOM     22  H   UNL     1      35.801 -21.186 -16.284  0.00  0.00    -0.080 HD
ENDBRANCH  18  19
ENDBRANCH   1  18
TORSDOF 6
ENDMDL
MODEL 6
REMARK VINA RESULT:      -7.2      6.131      9.634
REMARK  Name = 125017
REMARK  6 active torsions:
REMARK  status: ('A' for Active; 'I' for Inactive)
REMARK    1  A    between atoms: C_1  and  C_2
REMARK    2  A    between atoms: C_1  and  C_10
REMARK    3  A    between atoms: C_1  and  C_18
REMARK    4  A    between atoms: C_2  and  O_8
REMARK    5  A    between atoms: C_15  and  O_16
REMARK    6  A    between atoms: C_18  and  N_19
REMARK                            x       y       z     vdW  Elec       q    Type
REMARK                         _______ _______ _______ _____ _____    ______ ____
ROOT
ATOM      1  C   UNL     1      34.075 -23.883 -15.516  0.00  0.00    +0.026 C 
ENDROOT
BRANCH   1   2
ATOM      2  C   UNL     1      35.094 -24.374 -14.486  0.00  0.00    +0.090 C 
ATOM      3  C   UNL     1      35.905 -23.193 -13.928  0.00  0.00    +0.027 C 
ATOM      4  C   UNL     1      36.024 -25.432 -15.103  0.00  0.00    +0.027 C 
ATOM      5  C   UNL     1      37.001 -23.646 -12.963  0.00  0.00    +0.002 C 
ATOM      6  C   UNL     1      37.117 -25.879 -14.132  0.00  0.00    +0.002 C 
ATOM      7  C   UNL     1      37.912 -24.692 -13.596  0.00  0.00    +0.000 C 
BRANCH   2   8
ATOM      8  O   UNL     1      34.371 -24.963 -13.402  0.00  0.00    -0.386 OA
ATOM      9  H   UNL     1      34.901 -24.910 -12.592  0.00  0.00    +0.210 HD
ENDBRANCH   2   8
ENDBRANCH   1   2
BRANCH   1  10
ATOM     10  C   UNL     1      34.761 -23.098 -16.627  0.00  0.00    -0.022 C 
ATOM     11  C   UNL     1      36.032 -22.612 -16.411  0.00  0.00    -0.001 C 
ATOM     12  C   UNL     1      34.086 -22.900 -17.814  0.00  0.00    -0.001 C 
ATOM     13  C   UNL     1      36.659 -21.893 -17.429  0.00  0.00    +0.036 C 
ATOM     14  C   UNL     1      34.714 -22.181 -18.832  0.00  0.00    +0.036 C 
ATOM     15  C   UNL     1      36.000 -21.677 -18.639  0.00  0.00    +0.134 C 
BRANCH  15  16
ATOM     16  O   UNL     1      36.613 -20.977 -19.632  0.00  0.00    -0.506 OA
ATOM     17  H   UNL     1      36.255 -20.980 -20.498  0.00  0.00    +0.292 HD
ENDBRANCH  15  16
ENDBRANCH   1  10
BRANCH   1  18
ATOM     18  C   UNL     1      32.941 -23.046 -14.887  0.00  0.00    -0.071 C 
BRANCH  18  19
ATOM     19  N   UNL     1      31.681 -23.782 -14.830  0.00  0.00    +0.384 N 
ATOM     20  C   UNL     1      30.800 -23.374 -15.925  0.00  0.00    -0.101 C 
ATOM     21  C   UNL     1      31.021 -23.574 -13.541  0.00  0.00    -0.101 C 
ATOM     22  H   UNL     1      31.885 -24.776 -14.933  0.00  0.00    -0.080 HD
ENDBRANCH  18  19
ENDBRANCH   1  18
TORSDOF 6
ENDMDL
MODEL 7
REMARK VINA RESULT:      -7.2      6.523      9.662
REMARK  Name = 125017
REMARK  6 active torsions:
REMARK  status: ('A' for Active; 'I' for Inactive)
REMARK    1  A    between atoms: C_1  and  C_2
REMARK    2  A    between atoms: C_1  and  C_10
REMARK    3  A    between atoms: C_1  and  C_18
REMARK    4  A    between atoms: C_2  and  O_8
REMARK    5  A    between atoms: C_15  and  O_16
REMARK    6  A    between atoms: C_18  and  N_19
REMARK                            x       y       z     vdW  Elec       q    Type
REMARK                         _______ _______ _______ _____ _____    ______ ____
ROOT
ATOM      1  C   UNL     1      34.442 -23.687 -14.571  0.00  0.00    +0.026 C 
ENDROOT
BRANCH   1   2
ATOM      2  C   UNL     1      32.973 -23.647 -14.149  0.00  0.00    +0.090 C 
ATOM      3  C   UNL     1      32.364 -25.058 -14.190  0.00  0.00    +0.027 C 
ATOM      4  C   UNL     1      32.176 -22.682 -15.042  0.00  0.00    +0.027 C 
ATOM      5  C   UNL     1      30.870 -25.055 -13.865  0.00  0.00    +0.002 C 
ATOM      6  C   UNL     1      30.683 -22.686 -14.712  0.00  0.00    +0.002 C 
ATOM      7  C   UNL     1      30.099 -24.094 -14.764  0.00  0.00    +0.000 C 
BRANCH   2   8
ATOM      8  O   UNL     1      32.919 -23.184 -12.797  0.00  0.00    -0.386 OA
ATOM      9  H   UNL     1      32.477 -22.322 -12.767  0.00  0.00    +0.210 HD
ENDBRANCH   2   8
ENDBRANCH   1   2
BRANCH   1  10
ATOM     10  C   UNL     1      34.612 -23.174 -15.996  0.00  0.00    -0.022 C 
ATOM     11  C   UNL     1      35.754 -22.474 -16.320  0.00  0.00    -0.001 C 
ATOM     12  C   UNL     1      33.616 -23.428 -16.916  0.00  0.00    -0.001 C 
ATOM     13  C   UNL     1      35.908 -22.004 -17.624  0.00  0.00    +0.036 C 
ATOM     14  C   UNL     1      33.770 -22.958 -18.221  0.00  0.00    +0.036 C 
ATOM     15  C   UNL     1      34.916 -22.246 -18.574  0.00  0.00    +0.134 C 
BRANCH  15  16
ATOM     16  O   UNL     1      35.068 -21.789 -19.847  0.00  0.00    -0.506 OA
ATOM     17  H   UNL     1      35.256 -20.883 -20.001  0.00  0.00    +0.292 HD
ENDBRANCH  15  16
ENDBRANCH   1  10
BRANCH   1  18
ATOM     18  C   UNL     1      35.072 -25.089 -14.425  0.00  0.00    -0.071 C 
BRANCH  18  19
ATOM     19  N   UNL     1      35.933 -25.184 -13.249  0.00  0.00    +0.384 N 
ATOM     20  C   UNL     1      36.396 -23.857 -12.844  0.00  0.00    -0.101 C 
ATOM     21  C   UNL     1      37.073 -26.061 -13.516  0.00  0.00    -0.101 C 
ATOM     22  H   UNL     1      35.388 -25.584 -12.485  0.00  0.00    -0.080 HD
ENDBRANCH  18  19
ENDBRANCH   1  18
TORSDOF 6
ENDMDL
MODEL 8
REMARK VINA RESULT:      -7.2      6.553      9.588
REMARK  Name = 125017
REMARK  6 active torsions:
REMARK  status: ('A' for Active; 'I' for Inactive)
REMARK    1  A    between atoms: C_1  and  C_2
REMARK    2  A    between atoms: C_1  and  C_10
REMARK    3  A    between atoms: C_1  and  C_18
REMARK    4  A    between atoms: C_2  and  O_8
REMARK    5  A    between atoms: C_15  and  O_16
REMARK    6  A    between atoms: C_18  and  N_19
REMARK                            x       y       z     vdW  Elec       q    Type
REMARK                         _______ _______ _______ _____ _____    ______ ____
ROOT
ATOM      1  C   UNL     1      34.332 -23.804 -15.559  0.00  0.00    +0.026 C 
ENDROOT
BRANCH   1   2
ATOM      2  C   UNL     1      32.897 -23.726 -15.034  0.00  0.00    +0.090 C 
ATOM      3  C   UNL     1      32.559 -24.978 -14.209  0.00  0.00    +0.027 C 
ATOM      4  C   UNL     1      31.902 -23.551 -16.193  0.00  0.00    +0.027 C 
ATOM      5  C   UNL     1      31.103 -24.988 -13.740  0.00  0.00    +0.002 C 
ATOM      6  C   UNL     1      30.450 -23.563 -15.718  0.00  0.00    +0.002 C 
ATOM      7  C   UNL     1      30.135 -24.816 -14.906  0.00  0.00    +0.000 C 
BRANCH   2   8
ATOM      8  O   UNL     1      32.810 -22.591 -14.169  0.00  0.00    -0.386 OA
ATOM      9  H   UNL     1      31.881 -22.415 -13.958  0.00  0.00    +0.210 HD
ENDBRANCH   2   8
ENDBRANCH   1   2
BRANCH   1  10
ATOM     10  C   UNL     1      35.250 -24.453 -14.531  0.00  0.00    -0.022 C 
ATOM     11  C   UNL     1      35.983 -25.561 -14.899  0.00  0.00    -0.001 C 
ATOM     12  C   UNL     1      35.319 -23.911 -13.264  0.00  0.00    -0.001 C 
ATOM     13  C   UNL     1      36.823 -26.156 -13.957  0.00  0.00    +0.036 C 
ATOM     14  C   UNL     1      36.159 -24.506 -12.323  0.00  0.00    +0.036 C 
ATOM     15  C   UNL     1      36.911 -25.628 -12.669  0.00  0.00    +0.134 C 
BRANCH  15  16
ATOM     16  O   UNL     1      37.732 -26.208 -11.752  0.00  0.00    -0.506 OA
ATOM     17  H   UNL     1      38.588 -26.495 -12.003  0.00  0.00    +0.292 HD
ENDBRANCH  15  16
ENDBRANCH   1  10
BRANCH   1  18
ATOM     18  C   UNL     1      34.891 -22.431 -15.989  0.00  0.00    -0.071 C 
BRANCH  18  19
ATOM     19  N   UNL     1      36.044 -22.561 -16.875  0.00  0.00    +0.384 N 
ATOM     20  C   UNL     1      37.221 -21.927 -16.280  0.00  0.00    -0.101 C 
ATOM     21  C   UNL     1      35.756 -21.972 -18.183  0.00  0.00    -0.101 C 
ATOM     22  H   UNL     1      36.241 -23.553 -17.002  0.00  0.00    -0.080 HD
ENDBRANCH  18  19
ENDBRANCH   1  18
TORSDOF 6
ENDMDL
MODEL 9
REMARK VINA RESULT:      -7.0      3.651      7.173
REMARK  Name = 125017
REMARK  6 active torsions:
REMARK  status: ('A' for Active; 'I' for Inactive)
REMARK    1  A    between atoms: C_1  and  C_2
REMARK    2  A    between atoms: C_1  and  C_10
REMARK    3  A    between atoms: C_1  and  C_18
REMARK    4  A    between atoms: C_2  and  O_8
REMARK    5  A    between atoms: C_15  and  O_16
REMARK    6  A    between atoms: C_18  and  N_19
REMARK                            x       y       z     vdW  Elec       q    Type
REMARK                         _______ _______ _______ _____ _____    ______ ____
ROOT
ATOM      1  C   UNL     1      33.714 -13.506 -23.938  0.00  0.00    +0.026 C 
ENDROOT
BRANCH   1   2
ATOM      2  C   UNL     1      34.062 -14.403 -22.749  0.00  0.00    +0.090 C 
ATOM      3  C   UNL     1      34.793 -15.667 -23.228  0.00  0.00    +0.027 C 
ATOM      4  C   UNL     1      32.799 -14.770 -21.955  0.00  0.00    +0.027 C 
ATOM      5  C   UNL     1      35.081 -16.640 -22.083  0.00  0.00    +0.002 C 
ATOM      6  C   UNL     1      33.093 -15.743 -20.814  0.00  0.00    +0.002 C 
ATOM      7  C   UNL     1      33.813 -16.992 -21.312  0.00  0.00    +0.000 C 
BRANCH   2   8
ATOM      8  O   UNL     1      34.953 -13.675 -21.900  0.00  0.00    -0.386 OA
ATOM      9  H   UNL     1      35.853 -14.021 -22.000  0.00  0.00    +0.210 HD
ENDBRANCH   2   8
ENDBRANCH   1   2
BRANCH   1  10
ATOM     10  C   UNL     1      33.207 -12.149 -23.464  0.00  0.00    -0.022 C 
ATOM     11  C   UNL     1      32.148 -12.105 -22.584  0.00  0.00    -0.001 C 
ATOM     12  C   UNL     1      33.826 -11.008 -23.932  0.00  0.00    -0.001 C 
ATOM     13  C   UNL     1      31.684 -10.862 -22.151  0.00  0.00    +0.036 C 
ATOM     14  C   UNL     1      33.362  -9.766 -23.499  0.00  0.00    +0.036 C 
ATOM     15  C   UNL     1      32.291  -9.693 -22.609  0.00  0.00    +0.134 C 
BRANCH  15  16
ATOM     16  O   UNL     1      31.839  -8.482 -22.185  0.00  0.00    -0.506 OA
ATOM     17  H   UNL     1      31.103  -8.432 -21.607  0.00  0.00    +0.292 HD
ENDBRANCH  15  16
ENDBRANCH   1  10
BRANCH   1  18
ATOM     18  C   UNL     1      32.697 -14.153 -24.903  0.00  0.00    -0.071 C 
BRANCH  18  19
ATOM     19  N   UNL     1      33.303 -14.506 -26.184  0.00  0.00    +0.384 N 
ATOM     20  C   UNL     1      33.164 -13.404 -27.137  0.00  0.00    -0.101 C 
ATOM     21  C   UNL     1      32.696 -15.723 -26.722  0.00  0.00    -0.101 C 
ATOM     22  H   UNL     1      34.297 -14.678 -26.032  0.00  0.00    -0.080 HD
ENDBRANCH  18  19
ENDBRANCH   1  18
TORSDOF 6
ENDMDL
