MODEL 1
REMARK VINA RESULT:      -6.5      0.000      0.000
REMARK  Name = 447153
REMARK  2 active torsions:
REMARK  status: ('A' for Active; 'I' for Inactive)
REMARK    1  A    between atoms: C_3  and  C_9
REMARK    2  A    between atoms: C_9  and  O_10
REMARK                            x       y       z     vdW  Elec       q    Type
REMARK                         _______ _______ _______ _____ _____    ______ ____
ROOT
ATOM      1  F   UNL     1      36.546 -21.793 -19.180  0.00  0.00    -0.202 F 
ATOM      2  F   UNL     1      37.164 -19.642 -20.737  0.00  0.00    -0.202 F 
ATOM      3  C   UNL     1      34.228 -21.429 -19.543  0.00  0.00    +0.037 C 
ATOM      4  C   UNL     1      35.564 -21.079 -19.745  0.00  0.00    +0.166 C 
ATOM      5  C   UNL     1      33.213 -20.680 -20.136  0.00  0.00    +0.001 C 
ATOM      6  C   UNL     1      35.883 -19.979 -20.541  0.00  0.00    +0.167 C 
ATOM      7  C   UNL     1      33.532 -19.579 -20.932  0.00  0.00    +0.002 C 
ATOM      8  C   UNL     1      34.867 -19.230 -21.135  0.00  0.00    +0.032 C 
ENDROOT
BRANCH   3   9
ATOM      9  C   UNL     1      33.884 -22.605 -18.693  0.00  0.00    +0.166 C 
BRANCH   9  10
ATOM     10  O   UNL     1      33.945 -23.790 -19.478  0.00  0.00    -0.377 OA
ATOM     11  H   UNL     1      33.837 -23.563 -20.415  0.00  0.00    +0.211 HD
ENDBRANCH   9  10
ENDBRANCH   3   9
TORSDOF 2
ENDMDL
MODEL 2
REMARK VINA RESULT:      -6.3      2.338      3.556
REMARK  Name = 447153
REMARK  2 active torsions:
REMARK  status: ('A' for Active; 'I' for Inactive)
REMARK    1  A    between atoms: C_3  and  C_9
REMARK    2  A    between atoms: C_9  and  O_10
REMARK                            x       y       z     vdW  Elec       q    Type
REMARK                         _______ _______ _______ _____ _____    ______ ____
ROOT
ATOM      1  F   UNL     1      37.412 -19.446 -20.773  0.00  0.00    -0.202 F 
ATOM      2  F   UNL     1      36.721 -21.670 -19.354  0.00  0.00    -0.202 F 
ATOM      3  C   UNL     1      35.125 -18.968 -21.196  0.00  0.00    +0.037 C 
ATOM      4  C   UNL     1      36.119 -19.765 -20.627  0.00  0.00    +0.166 C 
ATOM      5  C   UNL     1      33.782 -19.308 -21.038  0.00  0.00    +0.001 C 
ATOM      6  C   UNL     1      35.769 -20.904 -19.901  0.00  0.00    +0.167 C 
ATOM      7  C   UNL     1      33.432 -20.446 -20.311  0.00  0.00    +0.002 C 
ATOM      8  C   UNL     1      34.425 -21.244 -19.743  0.00  0.00    +0.032 C 
ENDROOT
BRANCH   3   9
ATOM      9  C   UNL     1      35.497 -17.750 -21.972  0.00  0.00    +0.166 C 
BRANCH   9  10
ATOM     10  O   UNL     1      36.087 -18.137 -23.207  0.00  0.00    -0.377 OA
ATOM     11  H   UNL     1      35.991 -17.418 -23.851  0.00  0.00    +0.211 HD
ENDBRANCH   9  10
ENDBRANCH   3   9
TORSDOF 2
ENDMDL
MODEL 3
REMARK VINA RESULT:      -6.2      1.837      2.408
REMARK  Name = 447153
REMARK  2 active torsions:
REMARK  status: ('A' for Active; 'I' for Inactive)
REMARK    1  A    between atoms: C_3  and  C_9
REMARK    2  A    between atoms: C_9  and  O_10
REMARK                            x       y       z     vdW  Elec       q    Type
REMARK                         _______ _______ _______ _____ _____    ______ ____
ROOT
ATOM      1  F   UNL     1      32.559 -20.618 -20.308  0.00  0.00    -0.202 F 
ATOM      2  F   UNL     1      33.900 -18.669 -21.663  0.00  0.00    -0.202 F 
ATOM      3  C   UNL     1      34.605 -21.490 -19.476  0.00  0.00    +0.037 C 
ATOM      4  C   UNL     1      33.896 -20.561 -20.237  0.00  0.00    +0.166 C 
ATOM      5  C   UNL     1      35.996 -21.421 -19.408  0.00  0.00    +0.001 C 
ATOM      6  C   UNL     1      34.579 -19.562 -20.932  0.00  0.00    +0.167 C 
ATOM      7  C   UNL     1      36.679 -20.422 -20.103  0.00  0.00    +0.002 C 
ATOM      8  C   UNL     1      35.971 -19.493 -20.864  0.00  0.00    +0.032 C 
ENDROOT
BRANCH   3   9
ATOM      9  C   UNL     1      33.877 -22.558 -18.731  0.00  0.00    +0.166 C 
BRANCH   9  10
ATOM     10  O   UNL     1      33.898 -23.761 -19.489  0.00  0.00    -0.377 OA
ATOM     11  H   UNL     1      34.191 -24.494 -18.924  0.00  0.00    +0.211 HD
ENDBRANCH   9  10
ENDBRANCH   3   9
TORSDOF 2
ENDMDL
MODEL 4
REMARK VINA RESULT:      -6.1      4.395      5.726
REMARK  Name = 447153
REMARK  2 active torsions:
REMARK  status: ('A' for Active; 'I' for Inactive)
REMARK    1  A    between atoms: C_3  and  C_9
REMARK    2  A    between atoms: C_9  and  O_10
REMARK                            x       y       z     vdW  Elec       q    Type
REMARK                         _______ _______ _______ _____ _____    ______ ____
ROOT
ATOM      1  F   UNL     1      34.966 -15.246 -22.835  0.00  0.00    -0.202 F 
ATOM      2  F   UNL     1      35.040 -16.295 -20.319  0.00  0.00    -0.202 F 
ATOM      3  C   UNL     1      34.869 -17.425 -23.774  0.00  0.00    +0.037 C 
ATOM      4  C   UNL     1      34.938 -16.575 -22.669  0.00  0.00    +0.166 C 
ATOM      5  C   UNL     1      34.838 -18.807 -23.590  0.00  0.00    +0.001 C 
ATOM      6  C   UNL     1      34.975 -17.109 -21.380  0.00  0.00    +0.167 C 
ATOM      7  C   UNL     1      34.876 -19.341 -22.301  0.00  0.00    +0.002 C 
ATOM      8  C   UNL     1      34.944 -18.492 -21.197  0.00  0.00    +0.032 C 
ENDROOT
BRANCH   3   9
ATOM      9  C   UNL     1      34.828 -16.858 -25.152  0.00  0.00    +0.166 C 
BRANCH   9  10
ATOM     10  O   UNL     1      33.683 -17.356 -25.834  0.00  0.00    -0.377 OA
ATOM     11  H   UNL     1      33.736 -18.323 -25.891  0.00  0.00    +0.211 HD
ENDBRANCH   9  10
ENDBRANCH   3   9
TORSDOF 2
ENDMDL
MODEL 5
REMARK VINA RESULT:      -6.0      1.738      2.281
REMARK  Name = 447153
REMARK  2 active torsions:
REMARK  status: ('A' for Active; 'I' for Inactive)
REMARK    1  A    between atoms: C_3  and  C_9
REMARK    2  A    between atoms: C_9  and  O_10
REMARK                            x       y       z     vdW  Elec       q    Type
REMARK                         _______ _______ _______ _____ _____    ______ ____
ROOT
ATOM      1  F   UNL     1      37.225 -19.614 -20.620  0.00  0.00    -0.202 F 
ATOM      2  F   UNL     1      35.410 -18.235 -22.115  0.00  0.00    -0.202 F 
ATOM      3  C   UNL     1      35.493 -20.940 -19.683  0.00  0.00    +0.037 C 
ATOM      4  C   UNL     1      35.924 -19.921 -20.532  0.00  0.00    +0.166 C 
ATOM      5  C   UNL     1      34.136 -21.252 -19.600  0.00  0.00    +0.001 C 
ATOM      6  C   UNL     1      34.998 -19.213 -21.299  0.00  0.00    +0.167 C 
ATOM      7  C   UNL     1      33.210 -20.545 -20.367  0.00  0.00    +0.002 C 
ATOM      8  C   UNL     1      33.641 -19.526 -21.216  0.00  0.00    +0.032 C 
ENDROOT
BRANCH   3   9
ATOM      9  C   UNL     1      36.481 -21.699 -18.863  0.00  0.00    +0.166 C 
BRANCH   9  10
ATOM     10  O   UNL     1      36.877 -20.909 -17.749  0.00  0.00    -0.377 OA
ATOM     11  H   UNL     1      36.925 -21.467 -16.957  0.00  0.00    +0.211 HD
ENDBRANCH   9  10
ENDBRANCH   3   9
TORSDOF 2
ENDMDL
MODEL 6
REMARK VINA RESULT:      -5.9      2.912      4.117
REMARK  Name = 447153
REMARK  2 active torsions:
REMARK  status: ('A' for Active; 'I' for Inactive)
REMARK    1  A    between atoms: C_3  and  C_9
REMARK    2  A    between atoms: C_9  and  O_10
REMARK                            x       y       z     vdW  Elec       q    Type
REMARK                         _______ _______ _______ _____ _____    ______ ____
ROOT
ATOM      1  F   UNL     1      32.580 -19.919 -20.527  0.00  0.00    -0.202 F 
ATOM      2  F   UNL     1      32.989 -22.117 -18.966  0.00  0.00    -0.202 F 
ATOM      3  C   UNL     1      34.922 -19.639 -20.799  0.00  0.00    +0.037 C 
ATOM      4  C   UNL     1      33.830 -20.328 -20.272  0.00  0.00    +0.166 C 
ATOM      5  C   UNL     1      36.219 -20.073 -20.528  0.00  0.00    +0.001 C 
ATOM      6  C   UNL     1      34.036 -21.454 -19.473  0.00  0.00    +0.167 C 
ATOM      7  C   UNL     1      36.425 -21.199 -19.729  0.00  0.00    +0.002 C 
ATOM      8  C   UNL     1      35.333 -21.888 -19.202  0.00  0.00    +0.032 C 
ENDROOT
BRANCH   3   9
ATOM      9  C   UNL     1      34.705 -18.436 -21.654  0.00  0.00    +0.166 C 
BRANCH   9  10
ATOM     10  O   UNL     1      35.150 -17.277 -20.962  0.00  0.00    -0.377 OA
ATOM     11  H   UNL     1      35.459 -16.616 -21.602  0.00  0.00    +0.211 HD
ENDBRANCH   9  10
ENDBRANCH   3   9
TORSDOF 2
ENDMDL
MODEL 7
REMARK VINA RESULT:      -5.9      2.399      2.939
REMARK  Name = 447153
REMARK  2 active torsions:
REMARK  status: ('A' for Active; 'I' for Inactive)
REMARK    1  A    between atoms: C_3  and  C_9
REMARK    2  A    between atoms: C_9  and  O_10
REMARK                            x       y       z     vdW  Elec       q    Type
REMARK                         _______ _______ _______ _____ _____    ______ ____
ROOT
ATOM      1  F   UNL     1      33.546 -21.770 -19.265  0.00  0.00    -0.202 F 
ATOM      2  F   UNL     1      32.296 -20.129 -21.047  0.00  0.00    -0.202 F 
ATOM      3  C   UNL     1      35.643 -20.781 -19.778  0.00  0.00    +0.037 C 
ATOM      4  C   UNL     1      34.263 -20.877 -19.960  0.00  0.00    +0.166 C 
ATOM      5  C   UNL     1      36.380 -19.847 -20.506  0.00  0.00    +0.001 C 
ATOM      6  C   UNL     1      33.620 -20.039 -20.871  0.00  0.00    +0.167 C 
ATOM      7  C   UNL     1      35.737 -19.009 -21.417  0.00  0.00    +0.002 C 
ATOM      8  C   UNL     1      34.358 -19.105 -21.600  0.00  0.00    +0.032 C 
ENDROOT
BRANCH   3   9
ATOM      9  C   UNL     1      36.333 -21.675 -18.804  0.00  0.00    +0.166 C 
BRANCH   9  10
ATOM     10  O   UNL     1      36.935 -20.888 -17.783  0.00  0.00    -0.377 OA
ATOM     11  H   UNL     1      37.672 -21.379 -17.388  0.00  0.00    +0.211 HD
ENDBRANCH   9  10
ENDBRANCH   3   9
TORSDOF 2
ENDMDL
MODEL 8
REMARK VINA RESULT:      -5.9      3.718      4.825
REMARK  Name = 447153
REMARK  2 active torsions:
REMARK  status: ('A' for Active; 'I' for Inactive)
REMARK    1  A    between atoms: C_3  and  C_9
REMARK    2  A    between atoms: C_9  and  O_10
REMARK                            x       y       z     vdW  Elec       q    Type
REMARK                         _______ _______ _______ _____ _____    ______ ____
ROOT
ATOM      1  F   UNL     1      35.127 -16.344 -21.152  0.00  0.00    -0.202 F 
ATOM      2  F   UNL     1      34.956 -14.960 -23.495  0.00  0.00    -0.202 F 
ATOM      3  C   UNL     1      34.910 -18.402 -22.316  0.00  0.00    +0.037 C 
ATOM      4  C   UNL     1      34.977 -17.008 -22.305  0.00  0.00    +0.166 C 
ATOM      5  C   UNL     1      34.756 -19.084 -23.522  0.00  0.00    +0.001 C 
ATOM      6  C   UNL     1      34.891 -16.298 -23.503  0.00  0.00    +0.167 C 
ATOM      7  C   UNL     1      34.669 -18.374 -24.719  0.00  0.00    +0.002 C 
ATOM      8  C   UNL     1      34.737 -16.981 -24.710  0.00  0.00    +0.032 C 
ENDROOT
BRANCH   3   9
ATOM      9  C   UNL     1      35.003 -19.165 -21.038  0.00  0.00    +0.166 C 
BRANCH   9  10
ATOM     10  O   UNL     1      36.338 -19.105 -20.548  0.00  0.00    -0.377 OA
ATOM     11  H   UNL     1      36.630 -19.995 -20.296  0.00  0.00    +0.211 HD
ENDBRANCH   9  10
ENDBRANCH   3   9
TORSDOF 2
ENDMDL
MODEL 9
REMARK VINA RESULT:      -5.8      4.282      5.445
REMARK  Name = 447153
REMARK  2 active torsions:
REMARK  status: ('A' for Active; 'I' for Inactive)
REMARK    1  A    between atoms: C_3  and  C_9
REMARK    2  A    between atoms: C_9  and  O_10
REMARK                            x       y       z     vdW  Elec       q    Type
REMARK                         _______ _______ _______ _____ _____    ______ ____
ROOT
ATOM      1  F   UNL     1      34.890 -19.779 -23.215  0.00  0.00    -0.202 F 
ATOM      2  F   UNL     1      35.076 -19.233 -20.550  0.00  0.00    -0.202 F 
ATOM      3  C   UNL     1      34.715 -17.462 -23.708  0.00  0.00    +0.037 C 
ATOM      4  C   UNL     1      34.850 -18.508 -22.793  0.00  0.00    +0.166 C 
ATOM      5  C   UNL     1      34.676 -16.143 -23.259  0.00  0.00    +0.001 C 
ATOM      6  C   UNL     1      34.946 -18.232 -21.429  0.00  0.00    +0.167 C 
ATOM      7  C   UNL     1      34.772 -15.867 -21.894  0.00  0.00    +0.002 C 
ATOM      8  C   UNL     1      34.907 -16.912 -20.980  0.00  0.00    +0.032 C 
ENDROOT
BRANCH   3   9
ATOM      9  C   UNL     1      34.614 -17.754 -25.167  0.00  0.00    +0.166 C 
BRANCH   9  10
ATOM     10  O   UNL     1      34.613 -16.532 -25.895  0.00  0.00    -0.377 OA
ATOM     11  H   UNL     1      33.702 -16.298 -26.133  0.00  0.00    +0.211 HD
ENDBRANCH   9  10
ENDBRANCH   3   9
TORSDOF 2
ENDMDL
