MODEL 1
REMARK VINA RESULT:     -10.7      0.000      0.000
REMARK  Name = 4078
REMARK  4 active torsions:
REMARK  status: ('A' for Active; 'I' for Inactive)
REMARK    1  A    between atoms: N_2  and  C_18
REMARK    2  A    between atoms: C_10  and  S_15
REMARK    3  A    between atoms: C_18  and  C_19
REMARK    4  A    between atoms: C_19  and  C_21
REMARK                            x       y       z     vdW  Elec       q    Type
REMARK                         _______ _______ _______ _____ _____    ______ ____
ROOT
ATOM      1  S   UNL     1      33.831 -24.183 -13.502  0.00  0.00    -0.084 S 
ATOM      2  N   UNL     1      33.753 -23.331 -16.490  0.00  0.00    -0.286 N 
ATOM      3  C   UNL     1      32.503 -23.348 -15.823  0.00  0.00    +0.058 C 
ATOM      4  C   UNL     1      35.015 -23.223 -15.852  0.00  0.00    +0.058 C 
ATOM      5  C   UNL     1      32.411 -23.695 -14.460  0.00  0.00    +0.043 C 
ATOM      6  C   UNL     1      35.173 -23.557 -14.493  0.00  0.00    +0.043 C 
ATOM      7  C   UNL     1      31.302 -22.988 -16.475  0.00  0.00    +0.024 C 
ATOM      8  C   UNL     1      36.158 -22.746 -16.531  0.00  0.00    +0.015 C 
ATOM      9  C   UNL     1      31.168 -23.703 -13.802  0.00  0.00    +0.008 C 
ATOM     10  C   UNL     1      30.071 -22.994 -15.814  0.00  0.00    +0.057 C 
ATOM     11  C   UNL     1      36.425 -23.440 -13.863  0.00  0.00    +0.008 C 
ATOM     12  C   UNL     1      30.003 -23.355 -14.476  0.00  0.00    +0.009 C 
ATOM     13  C   UNL     1      37.398 -22.627 -15.899  0.00  0.00    +0.001 C 
ATOM     14  C   UNL     1      37.533 -22.977 -14.564  0.00  0.00    +0.001 C 
ENDROOT
BRANCH  10  15
ATOM     15  S   UNL     1      28.579 -22.525 -16.692  0.00  0.00    +0.066 S 
ATOM     16  O   UNL     1      27.640 -21.950 -15.669  0.00  0.00    -0.251 OA
ATOM     17  C   UNL     1      27.991 -24.198 -17.070  0.00  0.00    +0.111 C 
ENDBRANCH  10  15
BRANCH   2  18
ATOM     18  C   UNL     1      33.738 -23.355 -17.958  0.00  0.00    +0.093 C 
BRANCH  18  19
ATOM     19  C   UNL     1      33.365 -21.986 -18.517  0.00  0.00    +0.001 C 
BRANCH  19  21
ATOM     20  N   UNL     1      33.955 -20.185 -20.165  0.00  0.00    +0.387 N 
ATOM     21  C   UNL     1      34.304 -21.526 -19.641  0.00  0.00    -0.056 C 
ATOM     22  C   UNL     1      35.746 -21.529 -19.094  0.00  0.00    -0.021 C 
ATOM     23  C   UNL     1      36.752 -21.065 -20.140  0.00  0.00    -0.004 C 
ATOM     24  C   UNL     1      34.895 -19.762 -21.217  0.00  0.00    -0.077 C 
ATOM     25  C   UNL     1      36.334 -19.719 -20.709  0.00  0.00    -0.023 C 
ATOM     26  C   UNL     1      32.587 -20.125 -20.688  0.00  0.00    -0.101 C 
ATOM     27  H   UNL     1      34.020 -19.547 -19.371  0.00  0.00    -0.080 HD
ENDBRANCH  19  21
ENDBRANCH  18  19
ENDBRANCH   2  18
TORSDOF 4
ENDMDL
MODEL 2
REMARK VINA RESULT:     -10.6      2.831      6.993
REMARK  Name = 4078
REMARK  4 active torsions:
REMARK  status: ('A' for Active; 'I' for Inactive)
REMARK    1  A    between atoms: N_2  and  C_18
REMARK    2  A    between atoms: C_10  and  S_15
REMARK    3  A    between atoms: C_18  and  C_19
REMARK    4  A    between atoms: C_19  and  C_21
REMARK                            x       y       z     vdW  Elec       q    Type
REMARK                         _______ _______ _______ _____ _____    ______ ____
ROOT
ATOM      1  S   UNL     1      36.864 -21.285 -19.157  0.00  0.00    -0.084 S 
ATOM      2  N   UNL     1      34.191 -22.450 -18.081  0.00  0.00    -0.286 N 
ATOM      3  C   UNL     1      35.299 -22.537 -17.200  0.00  0.00    +0.058 C 
ATOM      4  C   UNL     1      34.073 -21.528 -19.152  0.00  0.00    +0.058 C 
ATOM      5  C   UNL     1      36.559 -22.023 -17.565  0.00  0.00    +0.043 C 
ATOM      6  C   UNL     1      35.211 -20.914 -19.710  0.00  0.00    +0.043 C 
ATOM      7  C   UNL     1      35.187 -23.107 -15.913  0.00  0.00    +0.024 C 
ATOM      8  C   UNL     1      32.819 -21.156 -19.684  0.00  0.00    +0.015 C 
ATOM      9  C   UNL     1      37.652 -22.107 -16.685  0.00  0.00    +0.008 C 
ATOM     10  C   UNL     1      36.276 -23.183 -15.041  0.00  0.00    +0.057 C 
ATOM     11  C   UNL     1      35.088 -19.994 -20.767  0.00  0.00    +0.008 C 
ATOM     12  C   UNL     1      37.511 -22.685 -15.428  0.00  0.00    +0.009 C 
ATOM     13  C   UNL     1      32.701 -20.238 -20.731  0.00  0.00    +0.001 C 
ATOM     14  C   UNL     1      33.838 -19.659 -21.276  0.00  0.00    +0.001 C 
ENDROOT
BRANCH  10  15
ATOM     15  S   UNL     1      36.076 -23.916 -13.415  0.00  0.00    +0.066 S 
ATOM     16  O   UNL     1      36.931 -23.116 -12.474  0.00  0.00    -0.251 OA
ATOM     17  C   UNL     1      36.954 -25.467 -13.745  0.00  0.00    +0.111 C 
ENDBRANCH  10  15
BRANCH   2  18
ATOM     18  C   UNL     1      33.047 -23.332 -17.819  0.00  0.00    +0.093 C 
BRANCH  18  19
ATOM     19  C   UNL     1      32.264 -22.855 -16.600  0.00  0.00    +0.001 C 
BRANCH  19  21
ATOM     20  N   UNL     1      31.200 -24.117 -14.707  0.00  0.00    +0.387 N 
ATOM     21  C   UNL     1      31.178 -23.848 -16.164  0.00  0.00    -0.056 C 
ATOM     22  C   UNL     1      29.808 -23.276 -16.582  0.00  0.00    -0.021 C 
ATOM     23  C   UNL     1      28.660 -24.190 -16.171  0.00  0.00    -0.004 C 
ATOM     24  C   UNL     1      30.125 -25.046 -14.320  0.00  0.00    -0.077 C 
ATOM     25  C   UNL     1      28.745 -24.504 -14.686  0.00  0.00    -0.023 C 
ATOM     26  C   UNL     1      32.487 -24.653 -14.255  0.00  0.00    -0.101 C 
ATOM     27  H   UNL     1      31.054 -23.215 -14.252  0.00  0.00    -0.080 HD
ENDBRANCH  19  21
ENDBRANCH  18  19
ENDBRANCH   2  18
TORSDOF 4
ENDMDL
MODEL 3
REMARK VINA RESULT:      -9.7      2.637      5.138
REMARK  Name = 4078
REMARK  4 active torsions:
REMARK  status: ('A' for Active; 'I' for Inactive)
REMARK    1  A    between atoms: N_2  and  C_18
REMARK    2  A    between atoms: C_10  and  S_15
REMARK    3  A    between atoms: C_18  and  C_19
REMARK    4  A    between atoms: C_19  and  C_21
REMARK                            x       y       z     vdW  Elec       q    Type
REMARK                         _______ _______ _______ _____ _____    ______ ____
ROOT
ATOM      1  S   UNL     1      31.991 -22.698 -13.435  0.00  0.00    -0.084 S 
ATOM      2  N   UNL     1      32.741 -23.489 -16.347  0.00  0.00    -0.286 N 
ATOM      3  C   UNL     1      33.667 -23.878 -15.346  0.00  0.00    +0.058 C 
ATOM      4  C   UNL     1      31.371 -23.201 -16.121  0.00  0.00    +0.058 C 
ATOM      5  C   UNL     1      33.427 -23.597 -13.986  0.00  0.00    +0.043 C 
ATOM      6  C   UNL     1      30.903 -22.853 -14.838  0.00  0.00    +0.043 C 
ATOM      7  C   UNL     1      34.847 -24.590 -15.655  0.00  0.00    +0.024 C 
ATOM      8  C   UNL     1      30.411 -23.282 -17.152  0.00  0.00    +0.015 C 
ATOM      9  C   UNL     1      34.346 -23.992 -12.997  0.00  0.00    +0.008 C 
ATOM     10  C   UNL     1      35.753 -24.984 -14.667  0.00  0.00    +0.057 C 
ATOM     11  C   UNL     1      29.543 -22.576 -14.618  0.00  0.00    +0.008 C 
ATOM     12  C   UNL     1      35.504 -24.683 -13.337  0.00  0.00    +0.009 C 
ATOM     13  C   UNL     1      29.058 -23.010 -16.927  0.00  0.00    +0.001 C 
ATOM     14  C   UNL     1      28.624 -22.654 -15.659  0.00  0.00    +0.001 C 
ENDROOT
BRANCH  10  15
ATOM     15  S   UNL     1      37.235 -25.889 -15.118  0.00  0.00    +0.066 S 
ATOM     16  O   UNL     1      36.784 -27.096 -15.892  0.00  0.00    -0.251 OA
ATOM     17  C   UNL     1      37.679 -26.459 -13.456  0.00  0.00    +0.111 C 
ENDBRANCH  10  15
BRANCH   2  18
ATOM     18  C   UNL     1      33.220 -23.450 -17.734  0.00  0.00    +0.093 C 
BRANCH  18  19
ATOM     19  C   UNL     1      33.108 -22.040 -18.305  0.00  0.00    +0.001 C 
BRANCH  19  21
ATOM     20  N   UNL     1      34.030 -20.395 -19.964  0.00  0.00    +0.387 N 
ATOM     21  C   UNL     1      34.192 -21.733 -19.348  0.00  0.00    -0.056 C 
ATOM     22  C   UNL     1      35.567 -21.842 -18.658  0.00  0.00    -0.021 C 
ATOM     23  C   UNL     1      36.711 -21.534 -19.616  0.00  0.00    -0.004 C 
ATOM     24  C   UNL     1      35.105 -20.121 -20.933  0.00  0.00    -0.077 C 
ATOM     25  C   UNL     1      36.486 -20.186 -20.285  0.00  0.00    -0.023 C 
ATOM     26  C   UNL     1      32.732 -20.235 -20.625  0.00  0.00    -0.101 C 
ATOM     27  H   UNL     1      34.081 -19.724 -19.196  0.00  0.00    -0.080 HD
ENDBRANCH  19  21
ENDBRANCH  18  19
ENDBRANCH   2  18
TORSDOF 4
ENDMDL
MODEL 4
REMARK VINA RESULT:      -8.9      8.639     12.621
REMARK  Name = 4078
REMARK  4 active torsions:
REMARK  status: ('A' for Active; 'I' for Inactive)
REMARK    1  A    between atoms: N_2  and  C_18
REMARK    2  A    between atoms: C_10  and  S_15
REMARK    3  A    between atoms: C_18  and  C_19
REMARK    4  A    between atoms: C_19  and  C_21
REMARK                            x       y       z     vdW  Elec       q    Type
REMARK                         _______ _______ _______ _____ _____    ______ ____
ROOT
ATOM      1  S   UNL     1      34.186 -10.745 -25.256  0.00  0.00    -0.084 S 
ATOM      2  N   UNL     1      32.842 -12.888 -23.449  0.00  0.00    -0.286 N 
ATOM      3  C   UNL     1      32.766 -11.552 -22.980  0.00  0.00    +0.058 C 
ATOM      4  C   UNL     1      33.050 -13.265 -24.800  0.00  0.00    +0.058 C 
ATOM      5  C   UNL     1      33.318 -10.489 -23.722  0.00  0.00    +0.043 C 
ATOM      6  C   UNL     1      33.630 -12.373 -25.723  0.00  0.00    +0.043 C 
ATOM      7  C   UNL     1      32.111 -11.219 -21.774  0.00  0.00    +0.024 C 
ATOM      8  C   UNL     1      32.659 -14.530 -25.291  0.00  0.00    +0.015 C 
ATOM      9  C   UNL     1      33.234  -9.165 -23.254  0.00  0.00    +0.008 C 
ATOM     10  C   UNL     1      32.027  -9.902 -21.316  0.00  0.00    +0.057 C 
ATOM     11  C   UNL     1      33.826 -12.749 -27.063  0.00  0.00    +0.008 C 
ATOM     12  C   UNL     1      32.591  -8.873 -22.056  0.00  0.00    +0.009 C 
ATOM     13  C   UNL     1      32.852 -14.897 -26.626  0.00  0.00    +0.001 C 
ATOM     14  C   UNL     1      33.440 -14.007 -27.513  0.00  0.00    +0.001 C 
ENDROOT
BRANCH  10  15
ATOM     15  S   UNL     1      31.179  -9.537 -19.778  0.00  0.00    +0.066 S 
ATOM     16  O   UNL     1      31.973  -8.461 -19.093  0.00  0.00    -0.251 OA
ATOM     17  C   UNL     1      31.552 -11.095 -18.928  0.00  0.00    +0.111 C 
ENDBRANCH  10  15
BRANCH   2  18
ATOM     18  C   UNL     1      32.615 -13.962 -22.474  0.00  0.00    +0.093 C 
BRANCH  18  19
ATOM     19  C   UNL     1      33.933 -14.623 -22.083  0.00  0.00    +0.001 C 
BRANCH  19  21
ATOM     20  N   UNL     1      35.132 -16.674 -22.897  0.00  0.00    +0.387 N 
ATOM     21  C   UNL     1      33.907 -16.148 -22.252  0.00  0.00    -0.056 C 
ATOM     22  C   UNL     1      33.722 -16.782 -20.858  0.00  0.00    -0.021 C 
ATOM     23  C   UNL     1      33.703 -18.304 -20.922  0.00  0.00    -0.004 C 
ATOM     24  C   UNL     1      35.087 -18.142 -23.012  0.00  0.00    -0.077 C 
ATOM     25  C   UNL     1      34.938 -18.814 -21.649  0.00  0.00    -0.023 C 
ATOM     26  C   UNL     1      35.361 -16.094 -24.223  0.00  0.00    -0.101 C 
ATOM     27  H   UNL     1      35.908 -16.401 -22.293  0.00  0.00    -0.080 HD
ENDBRANCH  19  21
ENDBRANCH  18  19
ENDBRANCH   2  18
TORSDOF 4
ENDMDL
MODEL 5
REMARK VINA RESULT:      -8.9      7.943     11.978
REMARK  Name = 4078
REMARK  4 active torsions:
REMARK  status: ('A' for Active; 'I' for Inactive)
REMARK    1  A    between atoms: N_2  and  C_18
REMARK    2  A    between atoms: C_10  and  S_15
REMARK    3  A    between atoms: C_18  and  C_19
REMARK    4  A    between atoms: C_19  and  C_21
REMARK                            x       y       z     vdW  Elec       q    Type
REMARK                         _______ _______ _______ _____ _____    ______ ____
ROOT
ATOM      1  S   UNL     1      33.293 -16.187 -26.197  0.00  0.00    -0.084 S 
ATOM      2  N   UNL     1      33.854 -14.560 -23.608  0.00  0.00    -0.286 N 
ATOM      3  C   UNL     1      34.191 -15.936 -23.554  0.00  0.00    +0.058 C 
ATOM      4  C   UNL     1      33.726 -13.799 -24.797  0.00  0.00    +0.058 C 
ATOM      5  C   UNL     1      34.005 -16.774 -24.672  0.00  0.00    +0.043 C 
ATOM      6  C   UNL     1      33.494 -14.423 -26.038  0.00  0.00    +0.043 C 
ATOM      7  C   UNL     1      34.756 -16.523 -22.401  0.00  0.00    +0.024 C 
ATOM      8  C   UNL     1      33.858 -12.393 -24.802  0.00  0.00    +0.015 C 
ATOM      9  C   UNL     1      34.348 -18.136 -24.616  0.00  0.00    +0.008 C 
ATOM     10  C   UNL     1      35.099 -17.877 -22.352  0.00  0.00    +0.057 C 
ATOM     11  C   UNL     1      33.376 -13.664 -27.216  0.00  0.00    +0.008 C 
ATOM     12  C   UNL     1      34.893 -18.685 -23.460  0.00  0.00    +0.009 C 
ATOM     13  C   UNL     1      33.745 -11.643 -25.977  0.00  0.00    +0.001 C 
ATOM     14  C   UNL     1      33.500 -12.279 -27.185  0.00  0.00    +0.001 C 
ENDROOT
BRANCH  10  15
ATOM     15  S   UNL     1      35.817 -18.568 -20.860  0.00  0.00    +0.066 S 
ATOM     16  O   UNL     1      37.202 -19.026 -21.221  0.00  0.00    -0.251 OA
ATOM     17  C   UNL     1      34.776 -20.049 -20.761  0.00  0.00    +0.111 C 
ENDBRANCH  10  15
BRANCH   2  18
ATOM     18  C   UNL     1      33.695 -13.852 -22.332  0.00  0.00    +0.093 C 
BRANCH  18  19
ATOM     19  C   UNL     1      32.397 -13.050 -22.316  0.00  0.00    +0.001 C 
BRANCH  19  21
ATOM     20  N   UNL     1      31.749 -10.679 -21.804  0.00  0.00    +0.387 N 
ATOM     21  C   UNL     1      32.421 -11.900 -21.301  0.00  0.00    -0.056 C 
ATOM     22  C   UNL     1      31.742 -12.389 -20.005  0.00  0.00    -0.021 C 
ATOM     23  C   UNL     1      31.700 -11.302 -18.938  0.00  0.00    -0.004 C 
ATOM     24  C   UNL     1      31.760  -9.608 -20.792  0.00  0.00    -0.077 C 
ATOM     25  C   UNL     1      31.068 -10.038 -19.501  0.00  0.00    -0.023 C 
ATOM     26  C   UNL     1      32.350 -10.178 -23.043  0.00  0.00    -0.101 C 
ATOM     27  H   UNL     1      30.785 -10.950 -22.005  0.00  0.00    -0.080 HD
ENDBRANCH  19  21
ENDBRANCH  18  19
ENDBRANCH   2  18
TORSDOF 4
ENDMDL
MODEL 6
REMARK VINA RESULT:      -8.6      3.171      5.757
REMARK  Name = 4078
REMARK  4 active torsions:
REMARK  status: ('A' for Active; 'I' for Inactive)
REMARK    1  A    between atoms: N_2  and  C_18
REMARK    2  A    between atoms: C_10  and  S_15
REMARK    3  A    between atoms: C_18  and  C_19
REMARK    4  A    between atoms: C_19  and  C_21
REMARK                            x       y       z     vdW  Elec       q    Type
REMARK                         _______ _______ _______ _____ _____    ______ ____
ROOT
ATOM      1  S   UNL     1      34.162 -24.067 -12.908  0.00  0.00    -0.084 S 
ATOM      2  N   UNL     1      35.178 -23.212 -15.719  0.00  0.00    -0.286 N 
ATOM      3  C   UNL     1      36.136 -23.840 -14.883  0.00  0.00    +0.058 C 
ATOM      4  C   UNL     1      33.772 -23.342 -15.586  0.00  0.00    +0.058 C 
ATOM      5  C   UNL     1      35.791 -24.294 -13.595  0.00  0.00    +0.043 C 
ATOM      6  C   UNL     1      33.192 -23.746 -14.368  0.00  0.00    +0.043 C 
ATOM      7  C   UNL     1      37.463 -24.071 -15.310  0.00  0.00    +0.024 C 
ATOM      8  C   UNL     1      32.895 -23.109 -16.667  0.00  0.00    +0.015 C 
ATOM      9  C   UNL     1      36.744 -24.922 -12.774  0.00  0.00    +0.008 C 
ATOM     10  C   UNL     1      38.404 -24.700 -14.491  0.00  0.00    +0.057 C 
ATOM     11  C   UNL     1      31.798 -23.882 -14.244  0.00  0.00    +0.008 C 
ATOM     12  C   UNL     1      38.046 -25.124 -13.221  0.00  0.00    +0.009 C 
ATOM     13  C   UNL     1      31.510 -23.250 -16.540  0.00  0.00    +0.001 C 
ATOM     14  C   UNL     1      30.960 -23.634 -15.326  0.00  0.00    +0.001 C 
ENDROOT
BRANCH  10  15
ATOM     15  S   UNL     1      40.075 -24.969 -15.087  0.00  0.00    +0.066 S 
ATOM     16  O   UNL     1      39.956 -25.757 -16.360  0.00  0.00    -0.251 OA
ATOM     17  C   UNL     1      40.604 -26.124 -13.794  0.00  0.00    +0.111 C 
ENDBRANCH  10  15
BRANCH   2  18
ATOM     18  C   UNL     1      35.680 -22.424 -16.851  0.00  0.00    +0.093 C 
BRANCH  18  19
ATOM     19  C   UNL     1      34.883 -22.728 -18.116  0.00  0.00    +0.001 C 
BRANCH  19  21
ATOM     20  N   UNL     1      34.365 -20.818 -19.663  0.00  0.00    +0.387 N 
ATOM     21  C   UNL     1      35.331 -21.887 -19.319  0.00  0.00    -0.056 C 
ATOM     22  C   UNL     1      36.710 -21.278 -18.992  0.00  0.00    -0.021 C 
ATOM     23  C   UNL     1      37.232 -20.406 -20.127  0.00  0.00    -0.004 C 
ATOM     24  C   UNL     1      34.844 -20.012 -20.799  0.00  0.00    -0.077 C 
ATOM     25  C   UNL     1      36.194 -19.361 -20.505  0.00  0.00    -0.023 C 
ATOM     26  C   UNL     1      33.033 -21.344 -19.972  0.00  0.00    -0.101 C 
ATOM     27  H   UNL     1      34.290 -20.230 -18.832  0.00  0.00    -0.080 HD
ENDBRANCH  19  21
ENDBRANCH  18  19
ENDBRANCH   2  18
TORSDOF 4
ENDMDL
MODEL 7
REMARK VINA RESULT:      -7.8      7.954     12.019
REMARK  Name = 4078
REMARK  4 active torsions:
REMARK  status: ('A' for Active; 'I' for Inactive)
REMARK    1  A    between atoms: N_2  and  C_18
REMARK    2  A    between atoms: C_10  and  S_15
REMARK    3  A    between atoms: C_18  and  C_19
REMARK    4  A    between atoms: C_19  and  C_21
REMARK                            x       y       z     vdW  Elec       q    Type
REMARK                         _______ _______ _______ _____ _____    ______ ____
ROOT
ATOM      1  S   UNL     1      33.313 -15.890 -26.201  0.00  0.00    -0.084 S 
ATOM      2  N   UNL     1      33.861 -14.320 -23.575  0.00  0.00    -0.286 N 
ATOM      3  C   UNL     1      34.161 -15.705 -23.537  0.00  0.00    +0.058 C 
ATOM      4  C   UNL     1      33.778 -13.537 -24.754  0.00  0.00    +0.058 C 
ATOM      5  C   UNL     1      33.978 -16.519 -24.672  0.00  0.00    +0.043 C 
ATOM      6  C   UNL     1      33.556 -14.135 -26.010  0.00  0.00    +0.043 C 
ATOM      7  C   UNL     1      34.687 -16.325 -22.382  0.00  0.00    +0.024 C 
ATOM      8  C   UNL     1      33.947 -12.135 -24.733  0.00  0.00    +0.015 C 
ATOM      9  C   UNL     1      34.283 -17.891 -24.631  0.00  0.00    +0.008 C 
ATOM     10  C   UNL     1      34.993 -17.688 -22.349  0.00  0.00    +0.057 C 
ATOM     11  C   UNL     1      33.483 -13.354 -27.176  0.00  0.00    +0.008 C 
ATOM     12  C   UNL     1      34.789 -18.473 -23.474  0.00  0.00    +0.009 C 
ATOM     13  C   UNL     1      33.878 -11.364 -25.897  0.00  0.00    +0.001 C 
ATOM     14  C   UNL     1      33.642 -11.974 -27.120  0.00  0.00    +0.001 C 
ENDROOT
BRANCH  10  15
ATOM     15  S   UNL     1      35.661 -18.422 -20.854  0.00  0.00    +0.066 S 
ATOM     16  O   UNL     1      37.025 -18.947 -21.204  0.00  0.00    -0.251 OA
ATOM     17  C   UNL     1      34.547 -19.849 -20.773  0.00  0.00    +0.111 C 
ENDBRANCH  10  15
BRANCH   2  18
ATOM     18  C   UNL     1      33.695 -13.628 -22.291  0.00  0.00    +0.093 C 
BRANCH  18  19
ATOM     19  C   UNL     1      32.230 -13.628 -21.863  0.00  0.00    +0.001 C 
BRANCH  19  21
ATOM     20  N   UNL     1      32.196 -11.619 -20.357  0.00  0.00    +0.387 N 
ATOM     21  C   UNL     1      31.684 -12.215 -21.612  0.00  0.00    -0.056 C 
ATOM     22  C   UNL     1      32.063 -11.332 -22.818  0.00  0.00    -0.021 C 
ATOM     23  C   UNL     1      31.576  -9.898 -22.650  0.00  0.00    -0.004 C 
ATOM     24  C   UNL     1      31.679 -10.253 -20.165  0.00  0.00    -0.077 C 
ATOM     25  C   UNL     1      32.060  -9.333 -21.323  0.00  0.00    -0.023 C 
ATOM     26  C   UNL     1      31.872 -12.427 -19.178  0.00  0.00    -0.101 C 
ATOM     27  H   UNL     1      33.212 -11.590 -20.453  0.00  0.00    -0.080 HD
ENDBRANCH  19  21
ENDBRANCH  18  19
ENDBRANCH   2  18
TORSDOF 4
ENDMDL
MODEL 8
REMARK VINA RESULT:      -7.7     14.059     17.738
REMARK  Name = 4078
REMARK  4 active torsions:
REMARK  status: ('A' for Active; 'I' for Inactive)
REMARK    1  A    between atoms: N_2  and  C_18
REMARK    2  A    between atoms: C_10  and  S_15
REMARK    3  A    between atoms: C_18  and  C_19
REMARK    4  A    between atoms: C_19  and  C_21
REMARK                            x       y       z     vdW  Elec       q    Type
REMARK                         _______ _______ _______ _____ _____    ______ ____
ROOT
ATOM      1  S   UNL     1      31.199  -5.067 -23.605  0.00  0.00    -0.084 S 
ATOM      2  N   UNL     1      33.514  -7.136 -23.761  0.00  0.00    -0.286 N 
ATOM      3  C   UNL     1      33.489  -6.162 -24.791  0.00  0.00    +0.058 C 
ATOM      4  C   UNL     1      32.902  -6.993 -22.490  0.00  0.00    +0.058 C 
ATOM      5  C   UNL     1      32.502  -5.157 -24.817  0.00  0.00    +0.043 C 
ATOM      6  C   UNL     1      31.857  -6.070 -22.287  0.00  0.00    +0.043 C 
ATOM      7  C   UNL     1      34.462  -6.130 -25.814  0.00  0.00    +0.024 C 
ATOM      8  C   UNL     1      33.328  -7.735 -21.368  0.00  0.00    +0.015 C 
ATOM      9  C   UNL     1      32.486  -4.189 -25.837  0.00  0.00    +0.008 C 
ATOM     10  C   UNL     1      34.444  -5.164 -26.823  0.00  0.00    +0.057 C 
ATOM     11  C   UNL     1      31.259  -5.926 -21.023  0.00  0.00    +0.008 C 
ATOM     12  C   UNL     1      33.454  -4.193 -26.837  0.00  0.00    +0.009 C 
ATOM     13  C   UNL     1      32.734  -7.585 -20.112  0.00  0.00    +0.001 C 
ATOM     14  C   UNL     1      31.695  -6.681 -19.939  0.00  0.00    +0.001 C 
ENDROOT
BRANCH  10  15
ATOM     15  S   UNL     1      35.709  -5.171 -28.096  0.00  0.00    +0.066 S 
ATOM     16  O   UNL     1      36.884  -4.419 -27.539  0.00  0.00    -0.251 OA
ATOM     17  C   UNL     1      34.874  -4.064 -29.264  0.00  0.00    +0.111 C 
ENDBRANCH  10  15
BRANCH   2  18
ATOM     18  C   UNL     1      34.293  -8.357 -24.002  0.00  0.00    +0.093 C 
BRANCH  18  19
ATOM     19  C   UNL     1      33.401  -9.470 -24.541  0.00  0.00    +0.001 C 
BRANCH  19  21
ATOM     20  N   UNL     1      32.014 -11.071 -23.190  0.00  0.00    +0.387 N 
ATOM     21  C   UNL     1      33.381 -10.708 -23.633  0.00  0.00    -0.056 C 
ATOM     22  C   UNL     1      34.022 -11.880 -24.405  0.00  0.00    -0.021 C 
ATOM     23  C   UNL     1      34.029 -13.165 -23.586  0.00  0.00    -0.004 C 
ATOM     24  C   UNL     1      32.029 -12.281 -22.350  0.00  0.00    -0.077 C 
ATOM     25  C   UNL     1      32.627 -13.477 -23.087  0.00  0.00    -0.023 C 
ATOM     26  C   UNL     1      31.355  -9.985 -22.460  0.00  0.00    -0.101 C 
ATOM     27  H   UNL     1      31.481 -11.251 -24.041  0.00  0.00    -0.080 HD
ENDBRANCH  19  21
ENDBRANCH  18  19
ENDBRANCH   2  18
TORSDOF 4
ENDMDL
