MODEL 1
REMARK VINA RESULT:      -9.8      0.000      0.000
REMARK  Name = 5289529
REMARK  4 active torsions:
REMARK  status: ('A' for Active; 'I' for Inactive)
REMARK    1  A    between atoms: C_1  and  C_19
REMARK    2  A    between atoms: C_4  and  O_26
REMARK    3  A    between atoms: C_9  and  C_13
REMARK    4  A    between atoms: N_17  and  S_22
REMARK                            x       y       z     vdW  Elec       q    Type
REMARK                         _______ _______ _______ _____ _____    ______ ____
ROOT
ATOM      1  C   UNL     1      34.533 -23.399 -16.091  0.00  0.00    +0.037 C 
ATOM      2  C   UNL     1      33.129 -23.435 -16.087  0.00  0.00    +0.003 C 
ATOM      3  C   UNL     1      32.419 -22.838 -17.155  0.00  0.00    +0.000 C 
ATOM      4  C   UNL     1      35.226 -22.782 -17.132  0.00  0.00    +0.139 C 
ATOM      5  C   UNL     1      32.414 -24.053 -15.047  0.00  0.00    +0.003 C 
ATOM      6  C   UNL     1      33.133 -22.220 -18.194  0.00  0.00    +0.003 C 
ATOM      7  C   UNL     1      34.528 -22.193 -18.181  0.00  0.00    +0.037 C 
ATOM      8  C   UNL     1      31.015 -22.874 -17.151  0.00  0.00    +0.000 C 
ATOM      9  C   UNL     1      31.020 -24.080 -15.060  0.00  0.00    +0.031 C 
ATOM     10  C   UNL     1      30.321 -23.492 -16.111  0.00  0.00    +0.003 C 
ENDROOT
BRANCH   9  13
ATOM     11  N   UNL     1      29.115 -25.429 -14.213  0.00  0.00    -0.343 N 
ATOM     12  N   UNL     1      30.750 -24.645 -12.740  0.00  0.00    -0.285 NA
ATOM     13  C   UNL     1      30.294 -24.724 -13.977  0.00  0.00    +0.117 C 
ATOM     14  H   UNL     1      28.640 -25.858 -13.466  0.00  0.00    +0.144 HD
ATOM     15  H   UNL     1      28.757 -25.498 -15.129  0.00  0.00    +0.144 HD
ATOM     16  H   UNL     1      30.260 -25.080 -12.006  0.00  0.00    +0.188 HD
ENDBRANCH   9  13
BRANCH   1  19
ATOM     17  N   UNL     1      36.344 -24.245 -13.135  0.00  0.00    -0.091 N 
ATOM     18  N   UNL     1      36.538 -25.420 -13.758  0.00  0.00    -0.156 NA
ATOM     19  C   UNL     1      35.308 -23.994 -15.026  0.00  0.00    +0.042 C 
ATOM     20  C   UNL     1      35.608 -23.352 -13.859  0.00  0.00    +0.111 C 
ATOM     21  C   UNL     1      35.898 -25.257 -14.919  0.00  0.00    +0.121 C 
BRANCH  17  22
ATOM     22  S   UNL     1      36.935 -23.875 -11.611  0.00  0.00    +0.077 S 
ATOM     23  O   UNL     1      38.021 -24.824 -11.374  0.00  0.00    -0.153 OA
ATOM     24  O   UNL     1      37.196 -22.439 -11.646  0.00  0.00    -0.153 OA
ATOM     25  C   UNL     1      35.712 -24.171 -10.341  0.00  0.00    +0.202 C 
ENDBRANCH  17  22
ENDBRANCH   1  19
BRANCH   4  26
ATOM     26  O   UNL     1      36.591 -22.737 -17.154  0.00  0.00    -0.471 OA
ATOM     27  C   UNL     1      37.199 -21.488 -16.836  0.00  0.00    +0.252 C 
ENDBRANCH   4  26
TORSDOF 4
ENDMDL
MODEL 2
REMARK VINA RESULT:      -9.4      1.867      2.329
REMARK  Name = 5289529
REMARK  4 active torsions:
REMARK  status: ('A' for Active; 'I' for Inactive)
REMARK    1  A    between atoms: C_1  and  C_19
REMARK    2  A    between atoms: C_4  and  O_26
REMARK    3  A    between atoms: C_9  and  C_13
REMARK    4  A    between atoms: N_17  and  S_22
REMARK                            x       y       z     vdW  Elec       q    Type
REMARK                         _______ _______ _______ _____ _____    ______ ____
ROOT
ATOM      1  C   UNL     1      34.996 -22.906 -16.752  0.00  0.00    +0.037 C 
ATOM      2  C   UNL     1      33.654 -23.165 -16.428  0.00  0.00    +0.003 C 
ATOM      3  C   UNL     1      32.638 -22.797 -17.340  0.00  0.00    +0.000 C 
ATOM      4  C   UNL     1      35.330 -22.291 -17.959  0.00  0.00    +0.139 C 
ATOM      5  C   UNL     1      33.299 -23.784 -15.218  0.00  0.00    +0.003 C 
ATOM      6  C   UNL     1      32.993 -22.177 -18.550  0.00  0.00    +0.003 C 
ATOM      7  C   UNL     1      34.331 -21.927 -18.856  0.00  0.00    +0.037 C 
ATOM      8  C   UNL     1      31.296 -23.056 -17.016  0.00  0.00    +0.000 C 
ATOM      9  C   UNL     1      31.962 -24.035 -14.912  0.00  0.00    +0.031 C 
ATOM     10  C   UNL     1      30.961 -23.672 -15.810  0.00  0.00    +0.003 C 
ENDROOT
BRANCH   9  13
ATOM     11  N   UNL     1      30.299 -24.672 -13.181  0.00  0.00    -0.343 N 
ATOM     12  N   UNL     1      32.542 -25.279 -12.940  0.00  0.00    -0.285 NA
ATOM     13  C   UNL     1      31.610 -24.677 -13.656  0.00  0.00    +0.117 C 
ATOM     14  H   UNL     1      30.083 -25.113 -12.328  0.00  0.00    +0.144 HD
ATOM     15  H   UNL     1      29.590 -24.226 -13.699  0.00  0.00    +0.144 HD
ATOM     16  H   UNL     1      32.307 -25.714 -12.089  0.00  0.00    +0.188 HD
ENDBRANCH   9  13
BRANCH   1  19
ATOM     17  N   UNL     1      37.472 -24.454 -14.703  0.00  0.00    -0.091 N 
ATOM     18  N   UNL     1      37.814 -23.189 -14.403  0.00  0.00    -0.156 NA
ATOM     19  C   UNL     1      36.074 -23.262 -15.857  0.00  0.00    +0.042 C 
ATOM     20  C   UNL     1      36.428 -24.550 -15.577  0.00  0.00    +0.111 C 
ATOM     21  C   UNL     1      36.950 -22.464 -15.117  0.00  0.00    +0.121 C 
BRANCH  17  22
ATOM     22  S   UNL     1      38.235 -25.812 -14.082  0.00  0.00    +0.077 S 
ATOM     23  O   UNL     1      37.832 -25.877 -12.679  0.00  0.00    -0.153 OA
ATOM     24  O   UNL     1      37.895 -26.889 -15.005  0.00  0.00    -0.153 OA
ATOM     25  C   UNL     1      40.013 -25.630 -14.095  0.00  0.00    +0.202 C 
ENDBRANCH  17  22
ENDBRANCH   1  19
BRANCH   4  26
ATOM     26  O   UNL     1      36.628 -22.031 -18.293  0.00  0.00    -0.471 OA
ATOM     27  C   UNL     1      36.848 -21.210 -19.437  0.00  0.00    +0.252 C 
ENDBRANCH   4  26
TORSDOF 4
ENDMDL
MODEL 3
REMARK VINA RESULT:      -9.2      3.111      5.143
REMARK  Name = 5289529
REMARK  4 active torsions:
REMARK  status: ('A' for Active; 'I' for Inactive)
REMARK    1  A    between atoms: C_1  and  C_19
REMARK    2  A    between atoms: C_4  and  O_26
REMARK    3  A    between atoms: C_9  and  C_13
REMARK    4  A    between atoms: N_17  and  S_22
REMARK                            x       y       z     vdW  Elec       q    Type
REMARK                         _______ _______ _______ _____ _____    ______ ____
ROOT
ATOM      1  C   UNL     1      34.443 -23.391 -15.998  0.00  0.00    +0.037 C 
ATOM      2  C   UNL     1      34.314 -22.715 -17.222  0.00  0.00    +0.003 C 
ATOM      3  C   UNL     1      33.025 -22.515 -17.769  0.00  0.00    +0.000 C 
ATOM      4  C   UNL     1      33.317 -23.863 -15.324  0.00  0.00    +0.139 C 
ATOM      5  C   UNL     1      35.437 -22.233 -17.915  0.00  0.00    +0.003 C 
ATOM      6  C   UNL     1      31.903 -22.997 -17.077  0.00  0.00    +0.003 C 
ATOM      7  C   UNL     1      32.049 -23.667 -15.862  0.00  0.00    +0.037 C 
ATOM      8  C   UNL     1      32.896 -21.838 -18.994  0.00  0.00    +0.000 C 
ATOM      9  C   UNL     1      35.291 -21.563 -19.130  0.00  0.00    +0.031 C 
ATOM     10  C   UNL     1      34.022 -21.366 -19.668  0.00  0.00    +0.003 C 
ENDROOT
BRANCH   9  13
ATOM     11  N   UNL     1      36.688 -19.703 -19.998  0.00  0.00    -0.343 N 
ATOM     12  N   UNL     1      37.337 -21.921 -20.337  0.00  0.00    -0.285 NA
ATOM     13  C   UNL     1      36.463 -21.068 -19.834  0.00  0.00    +0.117 C 
ATOM     14  H   UNL     1      37.488 -19.389 -20.478  0.00  0.00    +0.144 HD
ATOM     15  H   UNL     1      36.045 -19.051 -19.632  0.00  0.00    +0.144 HD
ATOM     16  H   UNL     1      38.131 -21.589 -20.814  0.00  0.00    +0.188 HD
ENDBRANCH   9  13
BRANCH   1  19
ATOM     17  N   UNL     1      37.504 -24.645 -14.661  0.00  0.00    -0.091 N 
ATOM     18  N   UNL     1      37.742 -23.356 -14.368  0.00  0.00    -0.156 NA
ATOM     19  C   UNL     1      35.736 -23.623 -15.393  0.00  0.00    +0.042 C 
ATOM     20  C   UNL     1      36.307 -24.858 -15.281  0.00  0.00    +0.111 C 
ATOM     21  C   UNL     1      36.650 -22.735 -14.822  0.00  0.00    +0.121 C 
BRANCH  17  22
ATOM     22  S   UNL     1      38.557 -25.903 -14.314  0.00  0.00    +0.077 S 
ATOM     23  O   UNL     1      38.648 -25.943 -12.857  0.00  0.00    -0.153 OA
ATOM     24  O   UNL     1      38.037 -27.045 -15.060  0.00  0.00    -0.153 OA
ATOM     25  C   UNL     1      40.205 -25.568 -14.920  0.00  0.00    +0.202 C 
ENDBRANCH  17  22
ENDBRANCH   1  19
BRANCH   4  26
ATOM     26  O   UNL     1      33.421 -24.522 -14.132  0.00  0.00    -0.471 OA
ATOM     27  C   UNL     1      32.217 -25.037 -13.572  0.00  0.00    +0.252 C 
ENDBRANCH   4  26
TORSDOF 4
ENDMDL
MODEL 4
REMARK VINA RESULT:      -8.6      3.366      5.239
REMARK  Name = 5289529
REMARK  4 active torsions:
REMARK  status: ('A' for Active; 'I' for Inactive)
REMARK    1  A    between atoms: C_1  and  C_19
REMARK    2  A    between atoms: C_4  and  O_26
REMARK    3  A    between atoms: C_9  and  C_13
REMARK    4  A    between atoms: N_17  and  S_22
REMARK                            x       y       z     vdW  Elec       q    Type
REMARK                         _______ _______ _______ _____ _____    ______ ____
ROOT
ATOM      1  C   UNL     1      33.968 -23.548 -15.947  0.00  0.00    +0.037 C 
ATOM      2  C   UNL     1      32.669 -23.653 -15.423  0.00  0.00    +0.003 C 
ATOM      3  C   UNL     1      32.498 -24.036 -14.072  0.00  0.00    +0.000 C 
ATOM      4  C   UNL     1      35.081 -23.818 -15.151  0.00  0.00    +0.139 C 
ATOM      5  C   UNL     1      31.538 -23.384 -16.210  0.00  0.00    +0.003 C 
ATOM      6  C   UNL     1      33.630 -24.306 -13.286  0.00  0.00    +0.003 C 
ATOM      7  C   UNL     1      34.913 -24.197 -13.823  0.00  0.00    +0.037 C 
ATOM      8  C   UNL     1      31.199 -24.141 -13.547  0.00  0.00    +0.000 C 
ATOM      9  C   UNL     1      30.255 -23.492 -15.672  0.00  0.00    +0.031 C 
ATOM     10  C   UNL     1      30.086 -23.870 -14.343  0.00  0.00    +0.003 C 
ENDROOT
BRANCH   9  13
ATOM     11  N   UNL     1      28.232 -24.225 -16.911  0.00  0.00    -0.343 N 
ATOM     12  N   UNL     1      28.838 -21.969 -16.875  0.00  0.00    -0.285 NA
ATOM     13  C   UNL     1      29.093 -23.209 -16.499  0.00  0.00    +0.117 C 
ATOM     14  H   UNL     1      27.450 -24.011 -17.470  0.00  0.00    +0.144 HD
ATOM     15  H   UNL     1      28.406 -25.157 -16.643  0.00  0.00    +0.144 HD
ATOM     16  H   UNL     1      28.052 -21.775 -17.434  0.00  0.00    +0.188 HD
ENDBRANCH   9  13
BRANCH   1  19
ATOM     17  N   UNL     1      34.995 -22.118 -19.051  0.00  0.00    -0.091 N 
ATOM     18  N   UNL     1      34.140 -23.008 -19.583  0.00  0.00    -0.156 NA
ATOM     19  C   UNL     1      34.201 -23.159 -17.320  0.00  0.00    +0.042 C 
ATOM     20  C   UNL     1      35.068 -22.171 -17.689  0.00  0.00    +0.111 C 
ATOM     21  C   UNL     1      33.657 -23.643 -18.512  0.00  0.00    +0.121 C 
BRANCH  17  22
ATOM     22  S   UNL     1      35.905 -21.031 -19.945  0.00  0.00    +0.077 S 
ATOM     23  O   UNL     1      36.711 -20.303 -18.968  0.00  0.00    -0.153 OA
ATOM     24  O   UNL     1      36.541 -21.836 -20.983  0.00  0.00    -0.153 OA
ATOM     25  C   UNL     1      34.872 -19.820 -20.758  0.00  0.00    +0.202 C 
ENDBRANCH  17  22
ENDBRANCH   1  19
BRANCH   4  26
ATOM     26  O   UNL     1      36.351 -23.722 -15.642  0.00  0.00    -0.471 OA
ATOM     27  C   UNL     1      37.396 -24.266 -14.840  0.00  0.00    +0.252 C 
ENDBRANCH   4  26
TORSDOF 4
ENDMDL
MODEL 5
REMARK VINA RESULT:      -8.5      2.513      4.548
REMARK  Name = 5289529
REMARK  4 active torsions:
REMARK  status: ('A' for Active; 'I' for Inactive)
REMARK    1  A    between atoms: C_1  and  C_19
REMARK    2  A    between atoms: C_4  and  O_26
REMARK    3  A    between atoms: C_9  and  C_13
REMARK    4  A    between atoms: N_17  and  S_22
REMARK                            x       y       z     vdW  Elec       q    Type
REMARK                         _______ _______ _______ _____ _____    ______ ____
ROOT
ATOM      1  C   UNL     1      33.239 -23.857 -15.462  0.00  0.00    +0.037 C 
ATOM      2  C   UNL     1      33.388 -23.109 -16.642  0.00  0.00    +0.003 C 
ATOM      3  C   UNL     1      32.235 -22.636 -17.311  0.00  0.00    +0.000 C 
ATOM      4  C   UNL     1      31.971 -24.134 -14.951  0.00  0.00    +0.139 C 
ATOM      5  C   UNL     1      34.657 -22.821 -17.171  0.00  0.00    +0.003 C 
ATOM      6  C   UNL     1      30.966 -22.926 -16.782  0.00  0.00    +0.003 C 
ATOM      7  C   UNL     1      30.837 -23.670 -15.609  0.00  0.00    +0.037 C 
ATOM      8  C   UNL     1      32.384 -21.888 -18.490  0.00  0.00    +0.000 C 
ATOM      9  C   UNL     1      34.786 -22.076 -18.343  0.00  0.00    +0.031 C 
ATOM     10  C   UNL     1      33.651 -21.610 -19.002  0.00  0.00    +0.003 C 
ENDROOT
BRANCH   9  13
ATOM     11  N   UNL     1      36.293 -21.494 -20.229  0.00  0.00    -0.343 N 
ATOM     12  N   UNL     1      37.158 -21.792 -18.079  0.00  0.00    -0.285 NA
ATOM     13  C   UNL     1      36.106 -21.784 -18.878  0.00  0.00    +0.117 C 
ATOM     14  H   UNL     1      37.196 -21.298 -20.570  0.00  0.00    +0.144 HD
ATOM     15  H   UNL     1      35.522 -21.485 -20.842  0.00  0.00    +0.144 HD
ATOM     16  H   UNL     1      38.052 -21.595 -18.439  0.00  0.00    +0.188 HD
ENDBRANCH   9  13
BRANCH   1  19
ATOM     17  N   UNL     1      35.834 -24.680 -13.155  0.00  0.00    -0.091 N 
ATOM     18  N   UNL     1      36.261 -25.489 -14.140  0.00  0.00    -0.156 NA
ATOM     19  C   UNL     1      34.382 -24.365 -14.738  0.00  0.00    +0.042 C 
ATOM     20  C   UNL     1      34.703 -23.981 -13.468  0.00  0.00    +0.111 C 
ATOM     21  C   UNL     1      35.363 -25.289 -15.108  0.00  0.00    +0.121 C 
BRANCH  17  22
ATOM     22  S   UNL     1      36.591 -24.519 -11.669  0.00  0.00    +0.077 S 
ATOM     23  O   UNL     1      35.549 -24.757 -10.673  0.00  0.00    -0.153 OA
ATOM     24  O   UNL     1      37.759 -25.390 -11.746  0.00  0.00    -0.153 OA
ATOM     25  C   UNL     1      37.178 -22.851 -11.406  0.00  0.00    +0.202 C 
ENDBRANCH  17  22
ENDBRANCH   1  19
BRANCH   4  26
ATOM     26  O   UNL     1      31.805 -24.859 -13.806  0.00  0.00    -0.471 OA
ATOM     27  C   UNL     1      30.552 -24.735 -13.139  0.00  0.00    +0.252 C 
ENDBRANCH   4  26
TORSDOF 4
ENDMDL
MODEL 6
REMARK VINA RESULT:      -8.3      4.003      6.502
REMARK  Name = 5289529
REMARK  4 active torsions:
REMARK  status: ('A' for Active; 'I' for Inactive)
REMARK    1  A    between atoms: C_1  and  C_19
REMARK    2  A    between atoms: C_4  and  O_26
REMARK    3  A    between atoms: C_9  and  C_13
REMARK    4  A    between atoms: N_17  and  S_22
REMARK                            x       y       z     vdW  Elec       q    Type
REMARK                         _______ _______ _______ _____ _____    ______ ____
ROOT
ATOM      1  C   UNL     1      33.606 -23.430 -15.918  0.00  0.00    +0.037 C 
ATOM      2  C   UNL     1      34.512 -23.923 -14.964  0.00  0.00    +0.003 C 
ATOM      3  C   UNL     1      34.059 -24.185 -13.650  0.00  0.00    +0.000 C 
ATOM      4  C   UNL     1      32.273 -23.199 -15.579  0.00  0.00    +0.139 C 
ATOM      5  C   UNL     1      35.858 -24.161 -15.288  0.00  0.00    +0.003 C 
ATOM      6  C   UNL     1      32.714 -23.945 -13.327  0.00  0.00    +0.003 C 
ATOM      7  C   UNL     1      31.827 -23.456 -14.286  0.00  0.00    +0.037 C 
ATOM      8  C   UNL     1      34.966 -24.678 -12.697  0.00  0.00    +0.000 C 
ATOM      9  C   UNL     1      36.744 -24.652 -14.328  0.00  0.00    +0.031 C 
ATOM     10  C   UNL     1      36.299 -24.909 -13.035  0.00  0.00    +0.003 C 
ENDROOT
BRANCH   9  13
ATOM     11  N   UNL     1      38.813 -26.020 -14.214  0.00  0.00    -0.343 N 
ATOM     12  N   UNL     1      38.780 -24.038 -15.450  0.00  0.00    -0.285 NA
ATOM     13  C   UNL     1      38.135 -24.895 -14.678  0.00  0.00    +0.117 C 
ATOM     14  H   UNL     1      39.754 -26.166 -14.463  0.00  0.00    +0.144 HD
ATOM     15  H   UNL     1      38.350 -26.670 -13.635  0.00  0.00    +0.144 HD
ATOM     16  H   UNL     1      39.720 -24.201 -15.688  0.00  0.00    +0.188 HD
ENDBRANCH   9  13
BRANCH   1  19
ATOM     17  N   UNL     1      35.000 -22.210 -18.967  0.00  0.00    -0.091 N 
ATOM     18  N   UNL     1      34.268 -23.187 -19.529  0.00  0.00    -0.156 NA
ATOM     19  C   UNL     1      34.015 -23.145 -17.275  0.00  0.00    +0.042 C 
ATOM     20  C   UNL     1      34.882 -22.145 -17.608  0.00  0.00    +0.111 C 
ATOM     21  C   UNL     1      33.666 -23.756 -18.482  0.00  0.00    +0.121 C 
BRANCH  17  22
ATOM     22  S   UNL     1      35.982 -21.153 -19.822  0.00  0.00    +0.077 S 
ATOM     23  O   UNL     1      36.735 -20.417 -18.809  0.00  0.00    -0.153 OA
ATOM     24  O   UNL     1      36.670 -21.988 -20.801  0.00  0.00    -0.153 OA
ATOM     25  C   UNL     1      35.020 -19.945 -20.722  0.00  0.00    +0.202 C 
ENDBRANCH  17  22
ENDBRANCH   1  19
BRANCH   4  26
ATOM     26  O   UNL     1      31.376 -22.721 -16.491  0.00  0.00    -0.471 OA
ATOM     27  C   UNL     1      30.001 -23.006 -16.254  0.00  0.00    +0.252 C 
ENDBRANCH   4  26
TORSDOF 4
ENDMDL
MODEL 7
REMARK VINA RESULT:      -8.2      3.509      5.999
REMARK  Name = 5289529
REMARK  4 active torsions:
REMARK  status: ('A' for Active; 'I' for Inactive)
REMARK    1  A    between atoms: C_1  and  C_19
REMARK    2  A    between atoms: C_4  and  O_26
REMARK    3  A    between atoms: C_9  and  C_13
REMARK    4  A    between atoms: N_17  and  S_22
REMARK                            x       y       z     vdW  Elec       q    Type
REMARK                         _______ _______ _______ _____ _____    ______ ____
ROOT
ATOM      1  C   UNL     1      33.873 -23.082 -16.401  0.00  0.00    +0.037 C 
ATOM      2  C   UNL     1      34.995 -23.124 -15.557  0.00  0.00    +0.003 C 
ATOM      3  C   UNL     1      36.246 -22.683 -16.048  0.00  0.00    +0.000 C 
ATOM      4  C   UNL     1      33.984 -22.612 -17.710  0.00  0.00    +0.139 C 
ATOM      5  C   UNL     1      34.902 -23.594 -14.237  0.00  0.00    +0.003 C 
ATOM      6  C   UNL     1      36.340 -22.214 -17.369  0.00  0.00    +0.003 C 
ATOM      7  C   UNL     1      35.215 -22.179 -18.193  0.00  0.00    +0.037 C 
ATOM      8  C   UNL     1      37.369 -22.726 -15.204  0.00  0.00    +0.000 C 
ATOM      9  C   UNL     1      36.027 -23.628 -13.413  0.00  0.00    +0.031 C 
ATOM     10  C   UNL     1      37.258 -23.195 -13.895  0.00  0.00    +0.003 C 
ENDROOT
BRANCH   9  13
ATOM     11  N   UNL     1      36.814 -23.720 -11.059  0.00  0.00    -0.343 N 
ATOM     12  N   UNL     1      34.946 -24.955 -11.725  0.00  0.00    -0.285 NA
ATOM     13  C   UNL     1      35.914 -24.116 -12.047  0.00  0.00    +0.117 C 
ATOM     14  H   UNL     1      36.719 -24.062 -10.141  0.00  0.00    +0.144 HD
ATOM     15  H   UNL     1      37.544 -23.097 -11.280  0.00  0.00    +0.144 HD
ATOM     16  H   UNL     1      34.868 -25.286 -10.802  0.00  0.00    +0.188 HD
ENDBRANCH   9  13
BRANCH   1  19
ATOM     17  N   UNL     1      30.417 -23.749 -15.817  0.00  0.00    -0.091 N 
ATOM     18  N   UNL     1      30.878 -24.526 -14.823  0.00  0.00    -0.156 NA
ATOM     19  C   UNL     1      32.571 -23.520 -15.951  0.00  0.00    +0.042 C 
ATOM     20  C   UNL     1      31.399 -23.121 -16.527  0.00  0.00    +0.111 C 
ATOM     21  C   UNL     1      32.203 -24.379 -14.913  0.00  0.00    +0.121 C 
BRANCH  17  22
ATOM     22  S   UNL     1      28.793 -23.546 -16.182  0.00  0.00    +0.077 S 
ATOM     23  O   UNL     1      28.739 -23.374 -17.632  0.00  0.00    -0.153 OA
ATOM     24  O   UNL     1      28.120 -24.671 -15.541  0.00  0.00    -0.153 OA
ATOM     25  C   UNL     1      28.140 -22.045 -15.465  0.00  0.00    +0.202 C 
ENDBRANCH  17  22
ENDBRANCH   1  19
BRANCH   4  26
ATOM     26  O   UNL     1      32.905 -22.563 -18.545  0.00  0.00    -0.471 OA
ATOM     27  C   UNL     1      32.951 -21.609 -19.602  0.00  0.00    +0.252 C 
ENDBRANCH   4  26
TORSDOF 4
ENDMDL
MODEL 8
REMARK VINA RESULT:      -8.2      3.426      5.560
REMARK  Name = 5289529
REMARK  4 active torsions:
REMARK  status: ('A' for Active; 'I' for Inactive)
REMARK    1  A    between atoms: C_1  and  C_19
REMARK    2  A    between atoms: C_4  and  O_26
REMARK    3  A    between atoms: C_9  and  C_13
REMARK    4  A    between atoms: N_17  and  S_22
REMARK                            x       y       z     vdW  Elec       q    Type
REMARK                         _______ _______ _______ _____ _____    ______ ____
ROOT
ATOM      1  C   UNL     1      33.928 -22.612 -17.311  0.00  0.00    +0.037 C 
ATOM      2  C   UNL     1      34.986 -22.763 -16.399  0.00  0.00    +0.003 C 
ATOM      3  C   UNL     1      36.305 -22.469 -16.816  0.00  0.00    +0.000 C 
ATOM      4  C   UNL     1      34.169 -22.177 -18.615  0.00  0.00    +0.139 C 
ATOM      5  C   UNL     1      34.762 -23.199 -15.083  0.00  0.00    +0.003 C 
ATOM      6  C   UNL     1      36.529 -22.034 -18.133  0.00  0.00    +0.003 C 
ATOM      7  C   UNL     1      35.467 -21.889 -19.025  0.00  0.00    +0.037 C 
ATOM      8  C   UNL     1      37.363 -22.620 -15.904  0.00  0.00    +0.000 C 
ATOM      9  C   UNL     1      35.824 -23.342 -14.191  0.00  0.00    +0.031 C 
ATOM     10  C   UNL     1      37.123 -23.053 -14.600  0.00  0.00    +0.003 C 
ENDROOT
BRANCH   9  13
ATOM     11  N   UNL     1      36.401 -23.405 -11.776  0.00  0.00    -0.343 N 
ATOM     12  N   UNL     1      34.554 -24.590 -12.576  0.00  0.00    -0.285 NA
ATOM     13  C   UNL     1      35.577 -23.793 -12.830  0.00  0.00    +0.117 C 
ATOM     14  H   UNL     1      36.215 -23.721 -10.863  0.00  0.00    +0.144 HD
ATOM     15  H   UNL     1      37.171 -22.813 -11.946  0.00  0.00    +0.144 HD
ATOM     16  H   UNL     1      34.384 -24.896 -11.657  0.00  0.00    +0.188 HD
ENDBRANCH   9  13
BRANCH   1  19
ATOM     17  N   UNL     1      30.849 -23.774 -15.934  0.00  0.00    -0.091 N 
ATOM     18  N   UNL     1      30.296 -22.911 -16.803  0.00  0.00    -0.156 NA
ATOM     19  C   UNL     1      32.561 -22.897 -16.939  0.00  0.00    +0.042 C 
ATOM     20  C   UNL     1      32.213 -23.802 -15.977  0.00  0.00    +0.111 C 
ATOM     21  C   UNL     1      31.356 -22.377 -17.416  0.00  0.00    +0.121 C 
BRANCH  17  22
ATOM     22  S   UNL     1      29.977 -24.741 -14.878  0.00  0.00    +0.077 S 
ATOM     23  O   UNL     1      28.600 -24.258 -14.956  0.00  0.00    -0.153 OA
ATOM     24  O   UNL     1      30.309 -26.110 -15.261  0.00  0.00    -0.153 OA
ATOM     25  C   UNL     1      30.504 -24.510 -13.186  0.00  0.00    +0.202 C 
ENDBRANCH  17  22
ENDBRANCH   1  19
BRANCH   4  26
ATOM     26  O   UNL     1      33.155 -22.024 -19.516  0.00  0.00    -0.471 OA
ATOM     27  C   UNL     1      33.118 -20.799 -20.243  0.00  0.00    +0.252 C 
ENDBRANCH   4  26
TORSDOF 4
ENDMDL
MODEL 9
REMARK VINA RESULT:      -7.7      4.075      6.040
REMARK  Name = 5289529
REMARK  4 active torsions:
REMARK  status: ('A' for Active; 'I' for Inactive)
REMARK    1  A    between atoms: C_1  and  C_19
REMARK    2  A    between atoms: C_4  and  O_26
REMARK    3  A    between atoms: C_9  and  C_13
REMARK    4  A    between atoms: N_17  and  S_22
REMARK                            x       y       z     vdW  Elec       q    Type
REMARK                         _______ _______ _______ _____ _____    ______ ____
ROOT
ATOM      1  C   UNL     1      34.910 -22.801 -16.713  0.00  0.00    +0.037 C 
ATOM      2  C   UNL     1      35.318 -22.040 -17.821  0.00  0.00    +0.003 C 
ATOM      3  C   UNL     1      36.689 -21.732 -17.981  0.00  0.00    +0.000 C 
ATOM      4  C   UNL     1      35.841 -23.250 -15.777  0.00  0.00    +0.139 C 
ATOM      5  C   UNL     1      34.394 -21.580 -18.774  0.00  0.00    +0.003 C 
ATOM      6  C   UNL     1      37.613 -22.192 -17.028  0.00  0.00    +0.003 C 
ATOM      7  C   UNL     1      37.190 -22.946 -15.934  0.00  0.00    +0.037 C 
ATOM      8  C   UNL     1      37.097 -20.971 -19.089  0.00  0.00    +0.000 C 
ATOM      9  C   UNL     1      34.818 -20.826 -19.869  0.00  0.00    +0.031 C 
ATOM     10  C   UNL     1      36.167 -20.522 -20.027  0.00  0.00    +0.003 C 
ENDROOT
BRANCH   9  13
ATOM     11  N   UNL     1      34.245 -19.622 -21.964  0.00  0.00    -0.343 N 
ATOM     12  N   UNL     1      32.566 -20.625 -20.686  0.00  0.00    -0.285 NA
ATOM     13  C   UNL     1      33.850 -20.357 -20.848  0.00  0.00    +0.117 C 
ATOM     14  H   UNL     1      33.574 -19.315 -22.615  0.00  0.00    +0.144 HD
ATOM     15  H   UNL     1      35.198 -19.409 -22.101  0.00  0.00    +0.144 HD
ATOM     16  H   UNL     1      31.910 -20.309 -21.347  0.00  0.00    +0.188 HD
ENDBRANCH   9  13
BRANCH   1  19
ATOM     17  N   UNL     1      31.625 -23.497 -15.509  0.00  0.00    -0.091 N 
ATOM     18  N   UNL     1      31.366 -23.790 -16.795  0.00  0.00    -0.156 NA
ATOM     19  C   UNL     1      33.522 -23.146 -16.501  0.00  0.00    +0.042 C 
ATOM     20  C   UNL     1      32.911 -23.103 -15.281  0.00  0.00    +0.111 C 
ATOM     21  C   UNL     1      32.538 -23.571 -17.397  0.00  0.00    +0.121 C 
BRANCH  17  22
ATOM     22  S   UNL     1      30.496 -23.594 -14.273  0.00  0.00    +0.077 S 
ATOM     23  O   UNL     1      31.274 -23.603 -13.037  0.00  0.00    -0.153 OA
ATOM     24  O   UNL     1      29.545 -22.521 -14.548  0.00  0.00    -0.153 OA
ATOM     25  C   UNL     1      29.597 -25.138 -14.323  0.00  0.00    +0.202 C 
ENDBRANCH  17  22
ENDBRANCH   1  19
BRANCH   4  26
ATOM     26  O   UNL     1      35.465 -23.991 -14.694  0.00  0.00    -0.471 OA
ATOM     27  C   UNL     1      36.174 -25.205 -14.464  0.00  0.00    +0.252 C 
ENDBRANCH   4  26
TORSDOF 4
ENDMDL
