MODEL 1
REMARK VINA RESULT:     -10.7      0.000      0.000
REMARK  Name = 1933
REMARK  3 active torsions:
REMARK  status: ('A' for Active; 'I' for Inactive)
REMARK    1  A    between atoms: C_8  and  N_15
REMARK    2  A    between atoms: N_15  and  C_17
REMARK    3  A    between atoms: C_17  and  C_18
REMARK                            x       y       z     vdW  Elec       q    Type
REMARK                         _______ _______ _______ _____ _____    ______ ____
ROOT
ATOM      1  N   UNL     1      32.574 -24.672 -13.529  0.00  0.00    -0.410 NA
ATOM      2  C   UNL     1      35.171 -22.839 -15.609  0.00  0.00    +0.030 C 
ATOM      3  C   UNL     1      33.876 -23.463 -15.168  0.00  0.00    +0.013 C 
ATOM      4  C   UNL     1      36.383 -23.363 -14.839  0.00  0.00    +0.005 C 
ATOM      5  C   UNL     1      36.092 -23.399 -13.344  0.00  0.00    +0.008 C 
ATOM      6  C   UNL     1      34.932 -24.351 -13.054  0.00  0.00    +0.059 C 
ATOM      7  C   UNL     1      33.744 -24.132 -13.954  0.00  0.00    +0.105 C 
ATOM      8  C   UNL     1      32.730 -23.328 -15.953  0.00  0.00    +0.030 C 
ATOM      9  C   UNL     1      31.509 -23.871 -15.532  0.00  0.00    +0.109 C 
ATOM     10  C   UNL     1      31.477 -24.545 -14.298  0.00  0.00    +0.118 C 
ATOM     11  C   UNL     1      30.344 -23.753 -16.308  0.00  0.00    -0.014 C 
ATOM     12  C   UNL     1      30.265 -25.087 -13.878  0.00  0.00    +0.028 C 
ATOM     13  C   UNL     1      29.144 -24.303 -15.866  0.00  0.00    -0.004 C 
ATOM     14  C   UNL     1      29.105 -24.972 -14.649  0.00  0.00    +0.002 C 
ENDROOT
BRANCH   8  15
ATOM     15  N   UNL     1      32.815 -22.639 -17.190  0.00  0.00    -0.332 N 
ATOM     16  H   UNL     1      32.330 -21.789 -17.292  0.00  0.00    +0.147 HD
BRANCH  15  17
ATOM     17  C   UNL     1      33.576 -23.130 -18.291  0.00  0.00    +0.114 C 
BRANCH  17  18
ATOM     18  C   UNL     1      34.118 -22.012 -19.142  0.00  0.00    -0.003 C 
ATOM     19  C   UNL     1      35.490 -21.878 -19.301  0.00  0.00    -0.003 C 
ATOM     20  C   UNL     1      33.237 -21.131 -19.753  0.00  0.00    -0.003 C 
ATOM     21  C   UNL     1      35.992 -20.843 -20.090  0.00  0.00    -0.000 C 
ATOM     22  C   UNL     1      33.738 -20.095 -20.542  0.00  0.00    -0.000 C 
ATOM     23  C   UNL     1      35.116 -19.950 -20.709  0.00  0.00    -0.000 C 
ENDBRANCH  17  18
ENDBRANCH  15  17
ENDBRANCH   8  15
TORSDOF 3
ENDMDL
MODEL 2
REMARK VINA RESULT:     -10.6      0.547      3.906
REMARK  Name = 1933
REMARK  3 active torsions:
REMARK  status: ('A' for Active; 'I' for Inactive)
REMARK    1  A    between atoms: C_8  and  N_15
REMARK    2  A    between atoms: N_15  and  C_17
REMARK    3  A    between atoms: C_17  and  C_18
REMARK                            x       y       z     vdW  Elec       q    Type
REMARK                         _______ _______ _______ _____ _____    ______ ____
ROOT
ATOM      1  N   UNL     1      33.169 -24.469 -13.715  0.00  0.00    -0.410 NA
ATOM      2  C   UNL     1      30.499 -23.605 -16.276  0.00  0.00    +0.030 C 
ATOM      3  C   UNL     1      31.825 -23.707 -15.574  0.00  0.00    +0.013 C 
ATOM      4  C   UNL     1      29.309 -23.863 -15.350  0.00  0.00    +0.005 C 
ATOM      5  C   UNL     1      29.559 -25.095 -14.490  0.00  0.00    +0.008 C 
ATOM      6  C   UNL     1      30.780 -24.880 -13.599  0.00  0.00    +0.059 C 
ATOM      7  C   UNL     1      31.973 -24.342 -14.344  0.00  0.00    +0.105 C 
ATOM      8  C   UNL     1      32.979 -23.214 -16.184  0.00  0.00    +0.030 C 
ATOM      9  C   UNL     1      34.227 -23.340 -15.558  0.00  0.00    +0.109 C 
ATOM     10  C   UNL     1      34.275 -23.981 -14.307  0.00  0.00    +0.118 C 
ATOM     11  C   UNL     1      35.401 -22.846 -16.149  0.00  0.00    -0.014 C 
ATOM     12  C   UNL     1      35.513 -24.107 -13.682  0.00  0.00    +0.028 C 
ATOM     13  C   UNL     1      36.627 -22.983 -15.504  0.00  0.00    -0.004 C 
ATOM     14  C   UNL     1      36.682 -23.615 -14.268  0.00  0.00    +0.002 C 
ENDROOT
BRANCH   8  15
ATOM     15  N   UNL     1      32.877 -22.574 -17.447  0.00  0.00    -0.332 N 
ATOM     16  H   UNL     1      32.246 -21.827 -17.549  0.00  0.00    +0.147 HD
BRANCH  15  17
ATOM     17  C   UNL     1      33.656 -22.972 -18.573  0.00  0.00    +0.114 C 
BRANCH  17  18
ATOM     18  C   UNL     1      34.091 -21.791 -19.399  0.00  0.00    -0.003 C 
ATOM     19  C   UNL     1      35.445 -21.562 -19.603  0.00  0.00    -0.003 C 
ATOM     20  C   UNL     1      33.132 -20.949 -19.944  0.00  0.00    -0.003 C 
ATOM     21  C   UNL     1      35.847 -20.468 -20.370  0.00  0.00    -0.000 C 
ATOM     22  C   UNL     1      33.535 -19.855 -20.711  0.00  0.00    -0.000 C 
ATOM     23  C   UNL     1      34.893 -19.614 -20.923  0.00  0.00    -0.000 C 
ENDBRANCH  17  18
ENDBRANCH  15  17
ENDBRANCH   8  15
TORSDOF 3
ENDMDL
MODEL 3
REMARK VINA RESULT:      -9.9      8.300     11.788
REMARK  Name = 1933
REMARK  3 active torsions:
REMARK  status: ('A' for Active; 'I' for Inactive)
REMARK    1  A    between atoms: C_8  and  N_15
REMARK    2  A    between atoms: N_15  and  C_17
REMARK    3  A    between atoms: C_17  and  C_18
REMARK                            x       y       z     vdW  Elec       q    Type
REMARK                         _______ _______ _______ _____ _____    ______ ____
ROOT
ATOM      1  N   UNL     1      34.200 -16.924 -25.186  0.00  0.00    -0.410 NA
ATOM      2  C   UNL     1      34.760 -17.105 -21.432  0.00  0.00    +0.030 C 
ATOM      3  C   UNL     1      34.463 -16.575 -22.808  0.00  0.00    +0.013 C 
ATOM      4  C   UNL     1      35.497 -18.445 -21.451  0.00  0.00    +0.005 C 
ATOM      5  C   UNL     1      34.849 -19.397 -22.448  0.00  0.00    +0.008 C 
ATOM      6  C   UNL     1      34.933 -18.822 -23.860  0.00  0.00    +0.059 C 
ATOM      7  C   UNL     1      34.497 -17.382 -23.942  0.00  0.00    +0.105 C 
ATOM      8  C   UNL     1      34.074 -15.246 -22.978  0.00  0.00    +0.030 C 
ATOM      9  C   UNL     1      33.755 -14.753 -24.250  0.00  0.00    +0.109 C 
ATOM     10  C   UNL     1      33.835 -15.639 -25.340  0.00  0.00    +0.118 C 
ATOM     11  C   UNL     1      33.367 -13.417 -24.447  0.00  0.00    -0.014 C 
ATOM     12  C   UNL     1      33.521 -15.151 -26.606  0.00  0.00    +0.028 C 
ATOM     13  C   UNL     1      33.058 -12.954 -25.722  0.00  0.00    -0.004 C 
ATOM     14  C   UNL     1      33.135 -13.822 -26.804  0.00  0.00    +0.002 C 
ENDROOT
BRANCH   8  15
ATOM     15  N   UNL     1      34.009 -14.393 -21.846  0.00  0.00    -0.332 N 
ATOM     16  H   UNL     1      34.755 -13.774 -21.677  0.00  0.00    +0.147 HD
BRANCH  15  17
ATOM     17  C   UNL     1      32.904 -14.395 -20.946  0.00  0.00    +0.114 C 
BRANCH  17  18
ATOM     18  C   UNL     1      32.246 -13.043 -20.862  0.00  0.00    -0.003 C 
ATOM     19  C   UNL     1      32.084 -12.439 -19.622  0.00  0.00    -0.003 C 
ATOM     20  C   UNL     1      31.811 -12.422 -22.023  0.00  0.00    -0.003 C 
ATOM     21  C   UNL     1      31.475 -11.186 -19.544  0.00  0.00    -0.000 C 
ATOM     22  C   UNL     1      31.202 -11.169 -21.945  0.00  0.00    -0.000 C 
ATOM     23  C   UNL     1      31.033 -10.552 -20.705  0.00  0.00    -0.000 C 
ENDBRANCH  17  18
ENDBRANCH  15  17
ENDBRANCH   8  15
TORSDOF 3
ENDMDL
MODEL 4
REMARK VINA RESULT:      -9.9      1.797      6.397
REMARK  Name = 1933
REMARK  3 active torsions:
REMARK  status: ('A' for Active; 'I' for Inactive)
REMARK    1  A    between atoms: C_8  and  N_15
REMARK    2  A    between atoms: N_15  and  C_17
REMARK    3  A    between atoms: C_17  and  C_18
REMARK                            x       y       z     vdW  Elec       q    Type
REMARK                         _______ _______ _______ _____ _____    ______ ____
ROOT
ATOM      1  N   UNL     1      33.039 -22.846 -17.888  0.00  0.00    -0.410 NA
ATOM      2  C   UNL     1      34.201 -23.639 -14.359  0.00  0.00    +0.030 C 
ATOM      3  C   UNL     1      34.199 -23.197 -15.796  0.00  0.00    +0.013 C 
ATOM      4  C   UNL     1      33.018 -24.540 -14.005  0.00  0.00    +0.005 C 
ATOM      5  C   UNL     1      31.723 -23.965 -14.564  0.00  0.00    +0.008 C 
ATOM      6  C   UNL     1      31.790 -23.893 -16.088  0.00  0.00    +0.059 C 
ATOM      7  C   UNL     1      33.063 -23.270 -16.598  0.00  0.00    +0.105 C 
ATOM      8  C   UNL     1      35.344 -22.630 -16.356  0.00  0.00    +0.030 C 
ATOM      9  C   UNL     1      35.341 -22.178 -17.683  0.00  0.00    +0.109 C 
ATOM     10  C   UNL     1      34.151 -22.310 -18.422  0.00  0.00    +0.118 C 
ATOM     11  C   UNL     1      36.484 -21.610 -18.270  0.00  0.00    -0.014 C 
ATOM     12  C   UNL     1      34.146 -21.863 -19.740  0.00  0.00    +0.028 C 
ATOM     13  C   UNL     1      36.453 -21.171 -19.591  0.00  0.00    -0.004 C 
ATOM     14  C   UNL     1      35.281 -21.298 -20.327  0.00  0.00    +0.002 C 
ENDROOT
BRANCH   8  15
ATOM     15  N   UNL     1      36.520 -22.520 -15.569  0.00  0.00    -0.332 N 
ATOM     16  H   UNL     1      36.601 -21.767 -14.942  0.00  0.00    +0.147 HD
BRANCH  15  17
ATOM     17  C   UNL     1      37.588 -23.461 -15.651  0.00  0.00    +0.114 C 
BRANCH  17  18
ATOM     18  C   UNL     1      37.519 -24.485 -14.549  0.00  0.00    -0.003 C 
ATOM     19  C   UNL     1      37.221 -25.804 -14.861  0.00  0.00    -0.003 C 
ATOM     20  C   UNL     1      37.754 -24.095 -13.239  0.00  0.00    -0.003 C 
ATOM     21  C   UNL     1      37.158 -26.753 -13.840  0.00  0.00    -0.000 C 
ATOM     22  C   UNL     1      37.691 -25.043 -12.218  0.00  0.00    -0.000 C 
ATOM     23  C   UNL     1      37.392 -26.373 -12.519  0.00  0.00    -0.000 C 
ENDBRANCH  17  18
ENDBRANCH  15  17
ENDBRANCH   8  15
TORSDOF 3
ENDMDL
MODEL 5
REMARK VINA RESULT:      -9.8      1.745      5.392
REMARK  Name = 1933
REMARK  3 active torsions:
REMARK  status: ('A' for Active; 'I' for Inactive)
REMARK    1  A    between atoms: C_8  and  N_15
REMARK    2  A    between atoms: N_15  and  C_17
REMARK    3  A    between atoms: C_17  and  C_18
REMARK                            x       y       z     vdW  Elec       q    Type
REMARK                         _______ _______ _______ _____ _____    ______ ____
ROOT
ATOM      1  N   UNL     1      32.053 -22.776 -17.662  0.00  0.00    -0.410 NA
ATOM      2  C   UNL     1      35.806 -22.501 -17.138  0.00  0.00    +0.030 C 
ATOM      3  C   UNL     1      34.339 -22.709 -16.879  0.00  0.00    +0.013 C 
ATOM      4  C   UNL     1      36.084 -21.722 -18.424  0.00  0.00    +0.005 C 
ATOM      5  C   UNL     1      35.235 -22.261 -19.569  0.00  0.00    +0.008 C 
ATOM      6  C   UNL     1      33.751 -22.087 -19.254  0.00  0.00    +0.059 C 
ATOM      7  C   UNL     1      33.377 -22.561 -17.874  0.00  0.00    +0.105 C 
ATOM      8  C   UNL     1      33.902 -23.126 -15.622  0.00  0.00    +0.030 C 
ATOM      9  C   UNL     1      32.542 -23.362 -15.380  0.00  0.00    +0.109 C 
ATOM     10  C   UNL     1      31.641 -23.170 -16.443  0.00  0.00    +0.118 C 
ATOM     11  C   UNL     1      32.078 -23.777 -14.121  0.00  0.00    -0.014 C 
ATOM     12  C   UNL     1      30.288 -23.401 -16.206  0.00  0.00    +0.028 C 
ATOM     13  C   UNL     1      30.721 -24.001 -13.909  0.00  0.00    -0.004 C 
ATOM     14  C   UNL     1      29.825 -23.813 -14.954  0.00  0.00    +0.002 C 
ENDROOT
BRANCH   8  15
ATOM     15  N   UNL     1      34.851 -23.305 -14.582  0.00  0.00    -0.332 N 
ATOM     16  H   UNL     1      35.381 -22.531 -14.286  0.00  0.00    +0.147 HD
BRANCH  15  17
ATOM     17  C   UNL     1      35.066 -24.564 -13.948  0.00  0.00    +0.114 C 
BRANCH  17  18
ATOM     18  C   UNL     1      36.532 -24.886 -13.823  0.00  0.00    -0.003 C 
ATOM     19  C   UNL     1      37.379 -24.641 -14.894  0.00  0.00    -0.003 C 
ATOM     20  C   UNL     1      37.013 -25.424 -12.638  0.00  0.00    -0.003 C 
ATOM     21  C   UNL     1      38.737 -24.939 -14.777  0.00  0.00    -0.000 C 
ATOM     22  C   UNL     1      38.371 -25.722 -12.521  0.00  0.00    -0.000 C 
ATOM     23  C   UNL     1      39.233 -25.480 -13.592  0.00  0.00    -0.000 C 
ENDBRANCH  17  18
ENDBRANCH  15  17
ENDBRANCH   8  15
TORSDOF 3
ENDMDL
MODEL 6
REMARK VINA RESULT:      -9.7      1.831      6.255
REMARK  Name = 1933
REMARK  3 active torsions:
REMARK  status: ('A' for Active; 'I' for Inactive)
REMARK    1  A    between atoms: C_8  and  N_15
REMARK    2  A    between atoms: N_15  and  C_17
REMARK    3  A    between atoms: C_17  and  C_18
REMARK                            x       y       z     vdW  Elec       q    Type
REMARK                         _______ _______ _______ _____ _____    ______ ____
ROOT
ATOM      1  N   UNL     1      32.692 -23.074 -17.274  0.00  0.00    -0.410 NA
ATOM      2  C   UNL     1      32.121 -23.975 -13.627  0.00  0.00    +0.030 C 
ATOM      3  C   UNL     1      32.795 -23.573 -14.911  0.00  0.00    +0.013 C 
ATOM      4  C   UNL     1      30.765 -24.646 -13.845  0.00  0.00    +0.005 C 
ATOM      5  C   UNL     1      29.939 -23.866 -14.860  0.00  0.00    +0.008 C 
ATOM      6  C   UNL     1      30.648 -23.842 -16.213  0.00  0.00    +0.059 C 
ATOM      7  C   UNL     1      32.103 -23.465 -16.114  0.00  0.00    +0.105 C 
ATOM      8  C   UNL     1      34.147 -23.229 -14.915  0.00  0.00    +0.030 C 
ATOM      9  C   UNL     1      34.775 -22.816 -16.097  0.00  0.00    +0.109 C 
ATOM     10  C   UNL     1      33.999 -22.754 -17.269  0.00  0.00    +0.118 C 
ATOM     11  C   UNL     1      36.136 -22.470 -16.127  0.00  0.00    -0.014 C 
ATOM     12  C   UNL     1      34.620 -22.344 -18.446  0.00  0.00    +0.028 C 
ATOM     13  C   UNL     1      36.734 -22.064 -17.316  0.00  0.00    -0.004 C 
ATOM     14  C   UNL     1      35.975 -22.001 -18.478  0.00  0.00    +0.002 C 
ENDROOT
BRANCH   8  15
ATOM     15  N   UNL     1      34.886 -23.309 -13.706  0.00  0.00    -0.332 N 
ATOM     16  H   UNL     1      35.174 -22.475 -13.272  0.00  0.00    +0.147 HD
BRANCH  15  17
ATOM     17  C   UNL     1      35.226 -24.552 -13.095  0.00  0.00    +0.114 C 
BRANCH  17  18
ATOM     18  C   UNL     1      36.593 -25.026 -13.513  0.00  0.00    -0.003 C 
ATOM     19  C   UNL     1      37.710 -24.580 -12.822  0.00  0.00    -0.003 C 
ATOM     20  C   UNL     1      36.714 -25.902 -14.582  0.00  0.00    -0.003 C 
ATOM     21  C   UNL     1      38.977 -25.020 -13.208  0.00  0.00    -0.000 C 
ATOM     22  C   UNL     1      37.980 -26.342 -14.969  0.00  0.00    -0.000 C 
ATOM     23  C   UNL     1      39.112 -25.900 -14.282  0.00  0.00    -0.000 C 
ENDBRANCH  17  18
ENDBRANCH  15  17
ENDBRANCH   8  15
TORSDOF 3
ENDMDL
MODEL 7
REMARK VINA RESULT:      -9.6     10.478     14.068
REMARK  Name = 1933
REMARK  3 active torsions:
REMARK  status: ('A' for Active; 'I' for Inactive)
REMARK    1  A    between atoms: C_8  and  N_15
REMARK    2  A    between atoms: N_15  and  C_17
REMARK    3  A    between atoms: C_17  and  C_18
REMARK                            x       y       z     vdW  Elec       q    Type
REMARK                         _______ _______ _______ _____ _____    ______ ____
ROOT
ATOM      1  N   UNL     1      33.288  -8.885 -22.576  0.00  0.00    -0.410 NA
ATOM      2  C   UNL     1      31.410 -11.723 -20.887  0.00  0.00    +0.030 C 
ATOM      3  C   UNL     1      32.239 -10.946 -21.872  0.00  0.00    +0.013 C 
ATOM      4  C   UNL     1      30.573 -10.830 -19.971  0.00  0.00    +0.005 C 
ATOM      5  C   UNL     1      31.414  -9.680 -19.431  0.00  0.00    +0.008 C 
ATOM      6  C   UNL     1      31.910  -8.803 -20.580  0.00  0.00    +0.059 C 
ATOM      7  C   UNL     1      32.515  -9.591 -21.711  0.00  0.00    +0.105 C 
ATOM      8  C   UNL     1      32.820 -11.593 -22.963  0.00  0.00    +0.030 C 
ATOM      9  C   UNL     1      33.628 -10.888 -23.865  0.00  0.00    +0.109 C 
ATOM     10  C   UNL     1      33.836  -9.516 -23.630  0.00  0.00    +0.118 C 
ATOM     11  C   UNL     1      34.218 -11.517 -24.973  0.00  0.00    -0.014 C 
ATOM     12  C   UNL     1      34.637  -8.812 -24.525  0.00  0.00    +0.028 C 
ATOM     13  C   UNL     1      35.015 -10.791 -25.854  0.00  0.00    -0.004 C 
ATOM     14  C   UNL     1      35.224  -9.436 -25.629  0.00  0.00    +0.002 C 
ENDROOT
BRANCH   8  15
ATOM     15  N   UNL     1      32.579 -12.978 -23.156  0.00  0.00    -0.332 N 
ATOM     16  H   UNL     1      31.870 -13.253 -23.780  0.00  0.00    +0.147 HD
BRANCH  15  17
ATOM     17  C   UNL     1      33.326 -13.988 -22.482  0.00  0.00    +0.114 C 
BRANCH  17  18
ATOM     18  C   UNL     1      33.779 -15.073 -23.422  0.00  0.00    -0.003 C 
ATOM     19  C   UNL     1      34.535 -16.129 -22.933  0.00  0.00    -0.003 C 
ATOM     20  C   UNL     1      33.434 -15.001 -24.764  0.00  0.00    -0.003 C 
ATOM     21  C   UNL     1      34.953 -17.135 -23.804  0.00  0.00    -0.000 C 
ATOM     22  C   UNL     1      33.853 -16.007 -25.636  0.00  0.00    -0.000 C 
ATOM     23  C   UNL     1      34.614 -17.074 -25.156  0.00  0.00    -0.000 C 
ENDBRANCH  17  18
ENDBRANCH  15  17
ENDBRANCH   8  15
TORSDOF 3
ENDMDL
MODEL 8
REMARK VINA RESULT:      -9.5      6.498     11.210
REMARK  Name = 1933
REMARK  3 active torsions:
REMARK  status: ('A' for Active; 'I' for Inactive)
REMARK    1  A    between atoms: C_8  and  N_15
REMARK    2  A    between atoms: N_15  and  C_17
REMARK    3  A    between atoms: C_17  and  C_18
REMARK                            x       y       z     vdW  Elec       q    Type
REMARK                         _______ _______ _______ _____ _____    ______ ____
ROOT
ATOM      1  N   UNL     1      32.410 -12.968 -23.919  0.00  0.00    -0.410 NA
ATOM      2  C   UNL     1      33.976 -16.428 -24.031  0.00  0.00    +0.030 C 
ATOM      3  C   UNL     1      33.398 -15.137 -23.518  0.00  0.00    +0.013 C 
ATOM      4  C   UNL     1      34.424 -16.347 -25.490  0.00  0.00    +0.005 C 
ATOM      5  C   UNL     1      33.359 -15.665 -26.340  0.00  0.00    +0.008 C 
ATOM      6  C   UNL     1      33.137 -14.232 -25.860  0.00  0.00    +0.059 C 
ATOM      7  C   UNL     1      32.962 -14.125 -24.368  0.00  0.00    +0.105 C 
ATOM      8  C   UNL     1      33.221 -14.945 -22.147  0.00  0.00    +0.030 C 
ATOM      9  C   UNL     1      32.647 -13.763 -21.661  0.00  0.00    +0.109 C 
ATOM     10  C   UNL     1      32.252 -12.788 -22.595  0.00  0.00    +0.118 C 
ATOM     11  C   UNL     1      32.464 -13.545 -20.285  0.00  0.00    -0.014 C 
ATOM     12  C   UNL     1      31.683 -11.612 -22.114  0.00  0.00    +0.028 C 
ATOM     13  C   UNL     1      31.893 -12.360 -19.830  0.00  0.00    -0.004 C 
ATOM     14  C   UNL     1      31.501 -11.392 -20.746  0.00  0.00    +0.002 C 
ENDROOT
BRANCH   8  15
ATOM     15  N   UNL     1      33.637 -15.959 -21.246  0.00  0.00    -0.332 N 
ATOM     16  H   UNL     1      32.998 -16.282 -20.570  0.00  0.00    +0.147 HD
BRANCH  15  17
ATOM     17  C   UNL     1      34.943 -16.529 -21.282  0.00  0.00    +0.114 C 
BRANCH  17  18
ATOM     18  C   UNL     1      34.915 -18.012 -21.022  0.00  0.00    -0.003 C 
ATOM     19  C   UNL     1      36.110 -18.704 -20.887  0.00  0.00    -0.003 C 
ATOM     20  C   UNL     1      33.694 -18.664 -20.921  0.00  0.00    -0.003 C 
ATOM     21  C   UNL     1      36.084 -20.078 -20.646  0.00  0.00    -0.000 C 
ATOM     22  C   UNL     1      33.668 -20.038 -20.679  0.00  0.00    -0.000 C 
ATOM     23  C   UNL     1      34.864 -20.746 -20.542  0.00  0.00    -0.000 C 
ENDBRANCH  17  18
ENDBRANCH  15  17
ENDBRANCH   8  15
TORSDOF 3
ENDMDL
MODEL 9
REMARK VINA RESULT:      -9.5     12.380     15.229
REMARK  Name = 1933
REMARK  3 active torsions:
REMARK  status: ('A' for Active; 'I' for Inactive)
REMARK    1  A    between atoms: C_8  and  N_15
REMARK    2  A    between atoms: N_15  and  C_17
REMARK    3  A    between atoms: C_17  and  C_18
REMARK                            x       y       z     vdW  Elec       q    Type
REMARK                         _______ _______ _______ _____ _____    ______ ____
ROOT
ATOM      1  N   UNL     1      31.752  -7.944 -20.566  0.00  0.00    -0.410 NA
ATOM      2  C   UNL     1      32.490  -7.383 -24.251  0.00  0.00    +0.030 C 
ATOM      3  C   UNL     1      32.265  -8.058 -22.926  0.00  0.00    +0.013 C 
ATOM      4  C   UNL     1      32.809  -5.893 -24.119  0.00  0.00    +0.005 C 
ATOM      5  C   UNL     1      31.849  -5.226 -23.142  0.00  0.00    +0.008 C 
ATOM      6  C   UNL     1      31.998  -5.840 -21.751  0.00  0.00    +0.059 C 
ATOM      7  C   UNL     1      31.989  -7.346 -21.762  0.00  0.00    +0.105 C 
ATOM      8  C   UNL     1      32.263  -9.451 -22.841  0.00  0.00    +0.030 C 
ATOM      9  C   UNL     1      32.014 -10.091 -21.620  0.00  0.00    +0.109 C 
ATOM     10  C   UNL     1      31.762  -9.287 -20.493  0.00  0.00    +0.118 C 
ATOM     11  C   UNL     1      32.012 -11.492 -21.509  0.00  0.00    -0.014 C 
ATOM     12  C   UNL     1      31.516  -9.921 -19.278  0.00  0.00    +0.028 C 
ATOM     13  C   UNL     1      31.763 -12.101 -20.282  0.00  0.00    -0.004 C 
ATOM     14  C   UNL     1      31.515 -11.314 -19.165  0.00  0.00    +0.002 C 
ENDROOT
BRANCH   8  15
ATOM     15  N   UNL     1      32.522 -10.217 -24.007  0.00  0.00    -0.332 N 
ATOM     16  H   UNL     1      31.818 -10.294 -24.689  0.00  0.00    +0.147 HD
BRANCH  15  17
ATOM     17  C   UNL     1      33.766 -10.878 -24.229  0.00  0.00    +0.114 C 
BRANCH  17  18
ATOM     18  C   UNL     1      33.583 -12.197 -24.931  0.00  0.00    -0.003 C 
ATOM     19  C   UNL     1      33.497 -12.228 -26.316  0.00  0.00    -0.003 C 
ATOM     20  C   UNL     1      33.501 -13.362 -24.182  0.00  0.00    -0.003 C 
ATOM     21  C   UNL     1      33.327 -13.451 -26.965  0.00  0.00    -0.000 C 
ATOM     22  C   UNL     1      33.332 -14.586 -24.832  0.00  0.00    -0.000 C 
ATOM     23  C   UNL     1      33.244 -14.630 -26.224  0.00  0.00    -0.000 C 
ENDBRANCH  17  18
ENDBRANCH  15  17
ENDBRANCH   8  15
TORSDOF 3
ENDMDL
