MODEL 1
REMARK VINA RESULT:      -3.5      0.000      0.000
REMARK  Name = 446627
REMARK  2 active torsions:
REMARK  status: ('A' for Active; 'I' for Inactive)
REMARK    1  A    between atoms: C_1  and  C_3
REMARK    2  A    between atoms: C_1  and  O_5
REMARK                            x       y       z     vdW  Elec       q    Type
REMARK                         _______ _______ _______ _____ _____    ______ ____
ROOT
ATOM      1  C   UNL     1      33.831 -22.421 -18.794  0.00  0.00    +0.170 C 
ENDROOT
BRANCH   1   3
ATOM      2 BR   UNL     1      33.097 -20.235 -20.479  0.00  0.00    -0.051 Br
ATOM      3  C   UNL     1      34.377 -21.326 -19.659  0.00  0.00    +0.042 C 
ATOM      4  C   UNL     1      35.687 -21.149 -19.873  0.00  0.00    +0.005 C 
ENDBRANCH   1   3
BRANCH   1   5
ATOM      5  O   UNL     1      33.967 -23.670 -19.460  0.00  0.00    -0.377 OA
ATOM      6  H   UNL     1      33.764 -24.390 -18.842  0.00  0.00    +0.211 HD
ENDBRANCH   1   5
TORSDOF 2
ENDMDL
MODEL 2
REMARK VINA RESULT:      -3.5      1.511      1.776
REMARK  Name = 446627
REMARK  2 active torsions:
REMARK  status: ('A' for Active; 'I' for Inactive)
REMARK    1  A    between atoms: C_1  and  C_3
REMARK    2  A    between atoms: C_1  and  O_5
REMARK                            x       y       z     vdW  Elec       q    Type
REMARK                         _______ _______ _______ _____ _____    ______ ____
ROOT
ATOM      1  C   UNL     1      33.814 -22.446 -18.743  0.00  0.00    +0.170 C 
ENDROOT
BRANCH   1   3
ATOM      2 BR   UNL     1      35.924 -20.998 -20.014  0.00  0.00    -0.051 Br
ATOM      3  C   UNL     1      34.110 -21.301 -19.664  0.00  0.00    +0.042 C 
ATOM      4  C   UNL     1      33.158 -20.512 -20.179  0.00  0.00    +0.005 C 
ENDBRANCH   1   3
BRANCH   1   5
ATOM      5  O   UNL     1      33.925 -23.672 -19.455  0.00  0.00    -0.377 OA
ATOM      6  H   UNL     1      34.739 -23.668 -19.982  0.00  0.00    +0.211 HD
ENDBRANCH   1   5
TORSDOF 2
ENDMDL
MODEL 3
REMARK VINA RESULT:      -3.5     10.381     10.849
REMARK  Name = 446627
REMARK  2 active torsions:
REMARK  status: ('A' for Active; 'I' for Inactive)
REMARK    1  A    between atoms: C_1  and  C_3
REMARK    2  A    between atoms: C_1  and  O_5
REMARK                            x       y       z     vdW  Elec       q    Type
REMARK                         _______ _______ _______ _____ _____    ______ ____
ROOT
ATOM      1  C   UNL     1      41.290 -13.770 -15.182  0.00  0.00    +0.170 C 
ENDROOT
BRANCH   1   3
ATOM      2 BR   UNL     1      41.329 -14.342 -17.981  0.00  0.00    -0.051 Br
ATOM      3  C   UNL     1      41.371 -14.879 -16.188  0.00  0.00    +0.042 C 
ATOM      4  C   UNL     1      41.430 -16.173 -15.847  0.00  0.00    +0.005 C 
ENDBRANCH   1   3
BRANCH   1   5
ATOM      5  O   UNL     1      40.316 -14.090 -14.197  0.00  0.00    -0.377 OA
ATOM      6  H   UNL     1      40.648 -13.838 -13.321  0.00  0.00    +0.211 HD
ENDBRANCH   1   5
TORSDOF 2
ENDMDL
MODEL 4
REMARK VINA RESULT:      -3.4     10.599     10.785
REMARK  Name = 446627
REMARK  2 active torsions:
REMARK  status: ('A' for Active; 'I' for Inactive)
REMARK    1  A    between atoms: C_1  and  C_3
REMARK    2  A    between atoms: C_1  and  O_5
REMARK                            x       y       z     vdW  Elec       q    Type
REMARK                         _______ _______ _______ _____ _____    ______ ____
ROOT
ATOM      1  C   UNL     1      41.223 -13.830 -15.400  0.00  0.00    +0.170 C 
ENDROOT
BRANCH   1   3
ATOM      2 BR   UNL     1      41.717 -16.480 -16.345  0.00  0.00    -0.051 Br
ATOM      3  C   UNL     1      41.331 -14.672 -16.636  0.00  0.00    +0.042 C 
ATOM      4  C   UNL     1      41.201 -14.175 -17.873  0.00  0.00    +0.005 C 
ENDBRANCH   1   3
BRANCH   1   5
ATOM      5  O   UNL     1      40.453 -14.515 -14.420  0.00  0.00    -0.377 OA
ATOM      6  H   UNL     1      39.516 -14.487 -14.667  0.00  0.00    +0.211 HD
ENDBRANCH   1   5
TORSDOF 2
ENDMDL
MODEL 5
REMARK VINA RESULT:      -3.4      3.348      3.809
REMARK  Name = 446627
REMARK  2 active torsions:
REMARK  status: ('A' for Active; 'I' for Inactive)
REMARK    1  A    between atoms: C_1  and  C_3
REMARK    2  A    between atoms: C_1  and  O_5
REMARK                            x       y       z     vdW  Elec       q    Type
REMARK                         _______ _______ _______ _____ _____    ______ ____
ROOT
ATOM      1  C   UNL     1      34.879 -19.026 -21.415  0.00  0.00    +0.170 C 
ENDROOT
BRANCH   1   3
ATOM      2 BR   UNL     1      35.745 -21.253 -19.849  0.00  0.00    -0.051 Br
ATOM      3  C   UNL     1      34.402 -20.149 -20.544  0.00  0.00    +0.042 C 
ATOM      4  C   UNL     1      33.107 -20.385 -20.299  0.00  0.00    +0.005 C 
ENDBRANCH   1   3
BRANCH   1   5
ATOM      5  O   UNL     1      35.682 -18.136 -20.652  0.00  0.00    -0.377 OA
ATOM      6  H   UNL     1      36.577 -18.499 -20.568  0.00  0.00    +0.211 HD
ENDBRANCH   1   5
TORSDOF 2
ENDMDL
MODEL 6
REMARK VINA RESULT:      -3.4     10.334     10.387
REMARK  Name = 446627
REMARK  2 active torsions:
REMARK  status: ('A' for Active; 'I' for Inactive)
REMARK    1  A    between atoms: C_1  and  C_3
REMARK    2  A    between atoms: C_1  and  O_5
REMARK                            x       y       z     vdW  Elec       q    Type
REMARK                         _______ _______ _______ _____ _____    ______ ____
ROOT
ATOM      1  C   UNL     1      41.563 -15.655 -16.062  0.00  0.00    +0.170 C 
ENDROOT
BRANCH   1   3
ATOM      2 BR   UNL     1      42.816 -16.405 -18.518  0.00  0.00    -0.051 Br
ATOM      3  C   UNL     1      41.728 -15.271 -17.502  0.00  0.00    +0.042 C 
ATOM      4  C   UNL     1      41.173 -14.173 -18.033  0.00  0.00    +0.005 C 
ENDBRANCH   1   3
BRANCH   1   5
ATOM      5  O   UNL     1      42.505 -16.666 -15.727  0.00  0.00    -0.377 OA
ATOM      6  H   UNL     1      42.177 -17.174 -14.968  0.00  0.00    +0.211 HD
ENDBRANCH   1   5
TORSDOF 2
ENDMDL
MODEL 7
REMARK VINA RESULT:      -3.3      2.484      2.601
REMARK  Name = 446627
REMARK  2 active torsions:
REMARK  status: ('A' for Active; 'I' for Inactive)
REMARK    1  A    between atoms: C_1  and  C_3
REMARK    2  A    between atoms: C_1  and  O_5
REMARK                            x       y       z     vdW  Elec       q    Type
REMARK                         _______ _______ _______ _____ _____    ______ ____
ROOT
ATOM      1  C   UNL     1      32.999 -20.152 -20.518  0.00  0.00    +0.170 C 
ENDROOT
BRANCH   1   3
ATOM      2 BR   UNL     1      35.301 -21.524 -19.527  0.00  0.00    -0.051 Br
ATOM      3  C   UNL     1      34.497 -20.179 -20.551  0.00  0.00    +0.042 C 
ATOM      4  C   UNL     1      35.229 -19.285 -21.230  0.00  0.00    +0.005 C 
ENDBRANCH   1   3
BRANCH   1   5
ATOM      5  O   UNL     1      32.533 -20.866 -19.379  0.00  0.00    -0.377 OA
ATOM      6  H   UNL     1      32.577 -21.819 -19.555  0.00  0.00    +0.211 HD
ENDBRANCH   1   5
TORSDOF 2
ENDMDL
MODEL 8
REMARK VINA RESULT:      -3.3      5.375      5.694
REMARK  Name = 446627
REMARK  2 active torsions:
REMARK  status: ('A' for Active; 'I' for Inactive)
REMARK    1  A    between atoms: C_1  and  C_3
REMARK    2  A    between atoms: C_1  and  O_5
REMARK                            x       y       z     vdW  Elec       q    Type
REMARK                         _______ _______ _______ _____ _____    ______ ____
ROOT
ATOM      1  C   UNL     1      35.284 -17.004 -22.392  0.00  0.00    +0.170 C 
ENDROOT
BRANCH   1   3
ATOM      2 BR   UNL     1      34.214 -19.427 -21.320  0.00  0.00    -0.051 Br
ATOM      3  C   UNL     1      34.830 -18.387 -22.750  0.00  0.00    +0.042 C 
ATOM      4  C   UNL     1      34.889 -18.876 -23.995  0.00  0.00    +0.005 C 
ENDBRANCH   1   3
BRANCH   1   5
ATOM      5  O   UNL     1      35.709 -16.322 -23.564  0.00  0.00    -0.377 OA
ATOM      6  H   UNL     1      36.547 -15.866 -23.387  0.00  0.00    +0.211 HD
ENDBRANCH   1   5
TORSDOF 2
ENDMDL
MODEL 9
REMARK VINA RESULT:      -3.3      3.649      3.967
REMARK  Name = 446627
REMARK  2 active torsions:
REMARK  status: ('A' for Active; 'I' for Inactive)
REMARK    1  A    between atoms: C_1  and  C_3
REMARK    2  A    between atoms: C_1  and  O_5
REMARK                            x       y       z     vdW  Elec       q    Type
REMARK                         _______ _______ _______ _____ _____    ______ ____
ROOT
ATOM      1  C   UNL     1      36.159 -18.650 -21.346  0.00  0.00    +0.170 C 
ENDROOT
BRANCH   1   3
ATOM      2 BR   UNL     1      33.607 -19.844 -20.877  0.00  0.00    -0.051 Br
ATOM      3  C   UNL     1      34.926 -19.169 -22.021  0.00  0.00    +0.042 C 
ATOM      4  C   UNL     1      34.775 -19.193 -23.352  0.00  0.00    +0.005 C 
ENDBRANCH   1   3
BRANCH   1   5
ATOM      5  O   UNL     1      36.419 -19.410 -20.173  0.00  0.00    -0.377 OA
ATOM      6  H   UNL     1      36.621 -20.326 -20.419  0.00  0.00    +0.211 HD
ENDBRANCH   1   5
TORSDOF 2
ENDMDL
