MODEL 1
REMARK VINA RESULT:      -6.2      0.000      0.000
REMARK  Name = 6102806
REMARK  12 active torsions:
REMARK  status: ('A' for Active; 'I' for Inactive)
REMARK    1  A    between atoms: P_1  and  O_3
REMARK    2  A    between atoms: P_1  and  O_5
REMARK    3  A    between atoms: P_1  and  O_15
REMARK    4  A    between atoms: O_5  and  C_6
REMARK    5  A    between atoms: C_6  and  C_7
REMARK    6  A    between atoms: C_7  and  O_8
REMARK    7  A    between atoms: C_7  and  C_10
REMARK    8  A    between atoms: C_10  and  O_11
REMARK    9  A    between atoms: O_11  and  C_13
REMARK   10  A    between atoms: O_15  and  C_16
REMARK   11  A    between atoms: C_16  and  C_17
REMARK   12  A    between atoms: C_17  and  N_18
REMARK                            x       y       z     vdW  Elec       q    Type
REMARK                         _______ _______ _______ _____ _____    ______ ____
ROOT
ATOM      1  P   UNL     1      37.462 -23.623 -12.236  0.00  0.00    +0.476 P 
ATOM      2  O   UNL     1      37.314 -24.617 -11.120  0.00  0.00    -0.227 OA
ENDROOT
BRANCH   1   3
ATOM      3  O   UNL     1      38.134 -22.221 -11.788  0.00  0.00    -0.302 OA
ATOM      4  H   UNL     1      38.307 -21.679 -12.573  0.00  0.00    +0.222 HD
ENDBRANCH   1   3
BRANCH   1   5
ATOM      5  O   UNL     1      36.066 -23.160 -12.915  0.00  0.00    -0.271 OA
BRANCH   5   6
ATOM      6  C   UNL     1      35.509 -23.971 -13.935  0.00  0.00    +0.187 C 
BRANCH   6   7
ATOM      7  C   UNL     1      35.583 -23.243 -15.273  0.00  0.00    +0.184 C 
BRANCH   7   8
ATOM      8  O   UNL     1      36.729 -23.711 -15.986  0.00  0.00    -0.378 OA
ATOM      9  H   UNL     1      36.643 -23.482 -16.924  0.00  0.00    +0.211 HD
ENDBRANCH   7   8
BRANCH   7  10
ATOM     10  C   UNL     1      34.352 -23.521 -16.126  0.00  0.00    +0.240 C 
BRANCH  10  11
ATOM     11  O   UNL     1      34.633 -23.158 -17.474  0.00  0.00    -0.446 OA
BRANCH  11  13
ATOM     12  O   UNL     1      32.398 -22.753 -17.899  0.00  0.00    -0.250 OA
ATOM     13  C   UNL     1      33.585 -22.637 -18.178  0.00  0.00    +0.318 C 
ATOM     14  C   UNL     1      34.096 -21.884 -19.369  0.00  0.00    +0.121 C 
ENDBRANCH  11  13
ENDBRANCH  10  11
ENDBRANCH   7  10
ENDBRANCH   6   7
ENDBRANCH   5   6
ENDBRANCH   1   5
BRANCH   1  15
ATOM     15  O   UNL     1      38.378 -24.126 -13.472  0.00  0.00    -0.276 OA
BRANCH  15  16
ATOM     16  C   UNL     1      38.850 -25.463 -13.508  0.00  0.00    +0.130 C 
BRANCH  16  17
ATOM     17  C   UNL     1      40.014 -25.564 -14.475  0.00  0.00    -0.053 C 
BRANCH  17  18
ATOM     18  N   UNL     1      40.879 -26.705 -14.082  0.00  0.00    +0.382 N 
ATOM     19  H   UNL     1      41.718 -26.712 -14.663  0.00  0.00    -0.089 HD
ATOM     20  H   UNL     1      40.369 -27.579 -14.211  0.00  0.00    -0.089 HD
ATOM     21  H   UNL     1      41.146 -26.608 -13.102  0.00  0.00    -0.089 HD
ENDBRANCH  17  18
ENDBRANCH  16  17
ENDBRANCH  15  16
ENDBRANCH   1  15
TORSDOF 12
ENDMDL
MODEL 2
REMARK VINA RESULT:      -6.2      2.374      2.951
REMARK  Name = 6102806
REMARK  12 active torsions:
REMARK  status: ('A' for Active; 'I' for Inactive)
REMARK    1  A    between atoms: P_1  and  O_3
REMARK    2  A    between atoms: P_1  and  O_5
REMARK    3  A    between atoms: P_1  and  O_15
REMARK    4  A    between atoms: O_5  and  C_6
REMARK    5  A    between atoms: C_6  and  C_7
REMARK    6  A    between atoms: C_7  and  O_8
REMARK    7  A    between atoms: C_7  and  C_10
REMARK    8  A    between atoms: C_10  and  O_11
REMARK    9  A    between atoms: O_11  and  C_13
REMARK   10  A    between atoms: O_15  and  C_16
REMARK   11  A    between atoms: C_16  and  C_17
REMARK   12  A    between atoms: C_17  and  N_18
REMARK                            x       y       z     vdW  Elec       q    Type
REMARK                         _______ _______ _______ _____ _____    ______ ____
ROOT
ATOM      1  P   UNL     1      37.572 -25.855 -14.256  0.00  0.00    +0.476 P 
ATOM      2  O   UNL     1      38.573 -26.886 -14.689  0.00  0.00    -0.227 OA
ENDROOT
BRANCH   1   3
ATOM      3  O   UNL     1      36.593 -26.344 -13.062  0.00  0.00    -0.302 OA
ATOM      4  H   UNL     1      36.632 -25.708 -12.331  0.00  0.00    +0.222 HD
ENDBRANCH   1   3
BRANCH   1   5
ATOM      5  O   UNL     1      36.535 -25.394 -15.412  0.00  0.00    -0.271 OA
BRANCH   5   6
ATOM      6  C   UNL     1      36.124 -24.038 -15.448  0.00  0.00    +0.187 C 
BRANCH   6   7
ATOM      7  C   UNL     1      34.643 -23.937 -15.096  0.00  0.00    +0.184 C 
BRANCH   7   8
ATOM      8  O   UNL     1      34.483 -22.963 -14.062  0.00  0.00    -0.378 OA
ATOM      9  H   UNL     1      33.623 -23.085 -13.633  0.00  0.00    +0.211 HD
ENDBRANCH   7   8
BRANCH   7  10
ATOM     10  C   UNL     1      33.816 -23.491 -16.295  0.00  0.00    +0.240 C 
BRANCH  10  11
ATOM     11  O   UNL     1      34.694 -23.031 -17.317  0.00  0.00    -0.446 OA
BRANCH  11  13
ATOM     12  O   UNL     1      32.890 -22.470 -18.648  0.00  0.00    -0.250 OA
ATOM     13  C   UNL     1      34.091 -22.478 -18.411  0.00  0.00    +0.318 C 
ATOM     14  C   UNL     1      35.127 -21.867 -19.307  0.00  0.00    +0.121 C 
ENDBRANCH  11  13
ENDBRANCH  10  11
ENDBRANCH   7  10
ENDBRANCH   6   7
ENDBRANCH   5   6
ENDBRANCH   1   5
BRANCH   1  15
ATOM     15  O   UNL     1      38.216 -24.477 -13.701  0.00  0.00    -0.276 OA
BRANCH  15  16
ATOM     16  C   UNL     1      38.285 -24.237 -12.305  0.00  0.00    +0.130 C 
BRANCH  16  17
ATOM     17  C   UNL     1      37.386 -23.069 -11.947  0.00  0.00    -0.053 C 
BRANCH  17  18
ATOM     18  N   UNL     1      36.034 -23.579 -11.606  0.00  0.00    +0.382 N 
ATOM     19  H   UNL     1      35.401 -22.792 -11.461  0.00  0.00    -0.089 HD
ATOM     20  H   UNL     1      36.085 -24.135 -10.752  0.00  0.00    -0.089 HD
ATOM     21  H   UNL     1      35.686 -24.159 -12.370  0.00  0.00    -0.089 HD
ENDBRANCH  17  18
ENDBRANCH  16  17
ENDBRANCH  15  16
ENDBRANCH   1  15
TORSDOF 12
ENDMDL
MODEL 3
REMARK VINA RESULT:      -6.2      2.355      3.096
REMARK  Name = 6102806
REMARK  12 active torsions:
REMARK  status: ('A' for Active; 'I' for Inactive)
REMARK    1  A    between atoms: P_1  and  O_3
REMARK    2  A    between atoms: P_1  and  O_5
REMARK    3  A    between atoms: P_1  and  O_15
REMARK    4  A    between atoms: O_5  and  C_6
REMARK    5  A    between atoms: C_6  and  C_7
REMARK    6  A    between atoms: C_7  and  O_8
REMARK    7  A    between atoms: C_7  and  C_10
REMARK    8  A    between atoms: C_10  and  O_11
REMARK    9  A    between atoms: O_11  and  C_13
REMARK   10  A    between atoms: O_15  and  C_16
REMARK   11  A    between atoms: C_16  and  C_17
REMARK   12  A    between atoms: C_17  and  N_18
REMARK                            x       y       z     vdW  Elec       q    Type
REMARK                         _______ _______ _______ _____ _____    ______ ____
ROOT
ATOM      1  P   UNL     1      36.223 -24.291 -11.287  0.00  0.00    +0.476 P 
ATOM      2  O   UNL     1      35.396 -24.377 -10.037  0.00  0.00    -0.227 OA
ENDROOT
BRANCH   1   3
ATOM      3  O   UNL     1      37.548 -23.373 -11.141  0.00  0.00    -0.302 OA
ATOM      4  H   UNL     1      37.953 -23.526 -10.273  0.00  0.00    +0.222 HD
ENDBRANCH   1   3
BRANCH   1   5
ATOM      5  O   UNL     1      35.460 -23.631 -12.555  0.00  0.00    -0.271 OA
BRANCH   5   6
ATOM      6  C   UNL     1      34.513 -24.418 -13.257  0.00  0.00    +0.187 C 
BRANCH   6   7
ATOM      7  C   UNL     1      34.104 -23.710 -14.544  0.00  0.00    +0.184 C 
BRANCH   7   8
ATOM      8  O   UNL     1      32.943 -22.918 -14.282  0.00  0.00    -0.378 OA
ATOM      9  H   UNL     1      32.291 -23.057 -14.985  0.00  0.00    +0.211 HD
ENDBRANCH   7   8
BRANCH   7  10
ATOM     10  C   UNL     1      35.203 -22.781 -15.043  0.00  0.00    +0.240 C 
BRANCH  10  11
ATOM     11  O   UNL     1      36.180 -23.552 -15.735  0.00  0.00    -0.446 OA
BRANCH  11  13
ATOM     12  O   UNL     1      38.476 -23.386 -15.531  0.00  0.00    -0.250 OA
ATOM     13  C   UNL     1      37.395 -22.952 -15.909  0.00  0.00    +0.318 C 
ATOM     14  C   UNL     1      37.221 -21.657 -16.643  0.00  0.00    +0.121 C 
ENDBRANCH  11  13
ENDBRANCH  10  11
ENDBRANCH   7  10
ENDBRANCH   6   7
ENDBRANCH   5   6
ENDBRANCH   1   5
BRANCH   1  15
ATOM     15  O   UNL     1      36.780 -25.710 -11.829  0.00  0.00    -0.276 OA
BRANCH  15  16
ATOM     16  C   UNL     1      37.711 -25.746 -12.898  0.00  0.00    +0.130 C 
BRANCH  16  17
ATOM     17  C   UNL     1      37.266 -26.771 -13.924  0.00  0.00    -0.053 C 
BRANCH  17  18
ATOM     18  N   UNL     1      37.449 -26.210 -15.286  0.00  0.00    +0.382 N 
ATOM     19  H   UNL     1      38.402 -25.859 -15.384  0.00  0.00    -0.089 HD
ATOM     20  H   UNL     1      36.789 -25.446 -15.432  0.00  0.00    -0.089 HD
ATOM     21  H   UNL     1      37.283 -26.940 -15.980  0.00  0.00    -0.089 HD
ENDBRANCH  17  18
ENDBRANCH  16  17
ENDBRANCH  15  16
ENDBRANCH   1  15
TORSDOF 12
ENDMDL
MODEL 4
REMARK VINA RESULT:      -6.2      3.476      5.818
REMARK  Name = 6102806
REMARK  12 active torsions:
REMARK  status: ('A' for Active; 'I' for Inactive)
REMARK    1  A    between atoms: P_1  and  O_3
REMARK    2  A    between atoms: P_1  and  O_5
REMARK    3  A    between atoms: P_1  and  O_15
REMARK    4  A    between atoms: O_5  and  C_6
REMARK    5  A    between atoms: C_6  and  C_7
REMARK    6  A    between atoms: C_7  and  O_8
REMARK    7  A    between atoms: C_7  and  C_10
REMARK    8  A    between atoms: C_10  and  O_11
REMARK    9  A    between atoms: O_11  and  C_13
REMARK   10  A    between atoms: O_15  and  C_16
REMARK   11  A    between atoms: C_16  and  C_17
REMARK   12  A    between atoms: C_17  and  N_18
REMARK                            x       y       z     vdW  Elec       q    Type
REMARK                         _______ _______ _______ _____ _____    ______ ____
ROOT
ATOM      1  P   UNL     1      36.292 -22.914 -15.612  0.00  0.00    +0.476 P 
ATOM      2  O   UNL     1      37.517 -22.168 -15.168  0.00  0.00    -0.227 OA
ENDROOT
BRANCH   1   3
ATOM      3  O   UNL     1      34.971 -22.599 -14.732  0.00  0.00    -0.302 OA
ATOM      4  H   UNL     1      34.244 -22.343 -15.320  0.00  0.00    +0.222 HD
ENDBRANCH   1   3
BRANCH   1   5
ATOM      5  O   UNL     1      36.416 -24.527 -15.521  0.00  0.00    -0.271 OA
BRANCH   5   6
ATOM      6  C   UNL     1      37.627 -25.085 -15.043  0.00  0.00    +0.187 C 
BRANCH   6   7
ATOM      7  C   UNL     1      37.326 -26.231 -14.083  0.00  0.00    +0.184 C 
BRANCH   7   8
ATOM      8  O   UNL     1      38.103 -27.367 -14.470  0.00  0.00    -0.378 OA
ATOM      9  H   UNL     1      39.045 -27.140 -14.441  0.00  0.00    +0.211 HD
ENDBRANCH   7   8
BRANCH   7  10
ATOM     10  C   UNL     1      37.699 -25.871 -12.651  0.00  0.00    +0.240 C 
BRANCH  10  11
ATOM     11  O   UNL     1      36.511 -25.790 -11.871  0.00  0.00    -0.446 OA
BRANCH  11  13
ATOM     12  O   UNL     1      34.652 -24.475 -12.262  0.00  0.00    -0.250 OA
ATOM     13  C   UNL     1      35.828 -24.610 -11.951  0.00  0.00    +0.318 C 
ATOM     14  C   UNL     1      36.738 -23.472 -11.597  0.00  0.00    +0.121 C 
ENDBRANCH  11  13
ENDBRANCH  10  11
ENDBRANCH   7  10
ENDBRANCH   6   7
ENDBRANCH   5   6
ENDBRANCH   1   5
BRANCH   1  15
ATOM     15  O   UNL     1      35.834 -22.617 -17.136  0.00  0.00    -0.276 OA
BRANCH  15  16
ATOM     16  C   UNL     1      36.626 -21.782 -17.965  0.00  0.00    +0.130 C 
BRANCH  16  17
ATOM     17  C   UNL     1      35.899 -21.530 -19.272  0.00  0.00    -0.053 C 
BRANCH  17  18
ATOM     18  N   UNL     1      36.347 -20.232 -19.838  0.00  0.00    +0.382 N 
ATOM     19  H   UNL     1      35.961 -20.119 -20.776  0.00  0.00    -0.089 HD
ATOM     20  H   UNL     1      37.366 -20.215 -19.887  0.00  0.00    -0.089 HD
ATOM     21  H   UNL     1      36.022 -19.471 -19.243  0.00  0.00    -0.089 HD
ENDBRANCH  17  18
ENDBRANCH  16  17
ENDBRANCH  15  16
ENDBRANCH   1  15
TORSDOF 12
ENDMDL
MODEL 5
REMARK VINA RESULT:      -6.0      7.555     10.107
REMARK  Name = 6102806
REMARK  12 active torsions:
REMARK  status: ('A' for Active; 'I' for Inactive)
REMARK    1  A    between atoms: P_1  and  O_3
REMARK    2  A    between atoms: P_1  and  O_5
REMARK    3  A    between atoms: P_1  and  O_15
REMARK    4  A    between atoms: O_5  and  C_6
REMARK    5  A    between atoms: C_6  and  C_7
REMARK    6  A    between atoms: C_7  and  O_8
REMARK    7  A    between atoms: C_7  and  C_10
REMARK    8  A    between atoms: C_10  and  O_11
REMARK    9  A    between atoms: O_11  and  C_13
REMARK   10  A    between atoms: O_15  and  C_16
REMARK   11  A    between atoms: C_16  and  C_17
REMARK   12  A    between atoms: C_17  and  N_18
REMARK                            x       y       z     vdW  Elec       q    Type
REMARK                         _______ _______ _______ _____ _____    ______ ____
ROOT
ATOM      1  P   UNL     1      34.927 -19.011 -21.422  0.00  0.00    +0.476 P 
ATOM      2  O   UNL     1      33.481 -18.652 -21.236  0.00  0.00    -0.227 OA
ENDROOT
BRANCH   1   3
ATOM      3  O   UNL     1      35.949 -18.118 -20.540  0.00  0.00    -0.302 OA
ATOM      4  H   UNL     1      35.680 -18.144 -19.608  0.00  0.00    +0.222 HD
ENDBRANCH   1   3
BRANCH   1   5
ATOM      5  O   UNL     1      35.482 -18.816 -22.931  0.00  0.00    -0.271 OA
BRANCH   5   6
ATOM      6  C   UNL     1      34.581 -18.365 -23.928  0.00  0.00    +0.187 C 
BRANCH   6   7
ATOM      7  C   UNL     1      34.987 -16.973 -24.401  0.00  0.00    +0.184 C 
BRANCH   7   8
ATOM      8  O   UNL     1      34.720 -16.870 -25.802  0.00  0.00    -0.378 OA
ATOM      9  H   UNL     1      35.458 -16.418 -26.239  0.00  0.00    +0.211 HD
ENDBRANCH   7   8
BRANCH   7  10
ATOM     10  C   UNL     1      34.189 -15.889 -23.690  0.00  0.00    +0.240 C 
BRANCH  10  11
ATOM     11  O   UNL     1      34.984 -15.343 -22.642  0.00  0.00    -0.446 OA
BRANCH  11  13
ATOM     12  O   UNL     1      34.884 -15.236 -20.336  0.00  0.00    -0.250 OA
ATOM     13  C   UNL     1      34.355 -15.190 -21.439  0.00  0.00    +0.318 C 
ATOM     14  C   UNL     1      32.891 -14.951 -21.658  0.00  0.00    +0.121 C 
ENDBRANCH  11  13
ENDBRANCH  10  11
ENDBRANCH   7  10
ENDBRANCH   6   7
ENDBRANCH   5   6
ENDBRANCH   1   5
BRANCH   1  15
ATOM     15  O   UNL     1      35.300 -20.538 -21.036  0.00  0.00    -0.276 OA
BRANCH  15  16
ATOM     16  C   UNL     1      35.137 -20.993 -19.703  0.00  0.00    +0.130 C 
BRANCH  16  17
ATOM     17  C   UNL     1      33.907 -21.875 -19.614  0.00  0.00    -0.053 C 
BRANCH  17  18
ATOM     18  N   UNL     1      32.709 -21.025 -19.396  0.00  0.00    +0.382 N 
ATOM     19  H   UNL     1      31.994 -21.261 -20.085  0.00  0.00    -0.089 HD
ATOM     20  H   UNL     1      32.966 -20.043 -19.497  0.00  0.00    -0.089 HD
ATOM     21  H   UNL     1      32.343 -21.187 -18.458  0.00  0.00    -0.089 HD
ENDBRANCH  17  18
ENDBRANCH  16  17
ENDBRANCH  15  16
ENDBRANCH   1  15
TORSDOF 12
ENDMDL
MODEL 6
REMARK VINA RESULT:      -6.0     10.150     12.403
REMARK  Name = 6102806
REMARK  12 active torsions:
REMARK  status: ('A' for Active; 'I' for Inactive)
REMARK    1  A    between atoms: P_1  and  O_3
REMARK    2  A    between atoms: P_1  and  O_5
REMARK    3  A    between atoms: P_1  and  O_15
REMARK    4  A    between atoms: O_5  and  C_6
REMARK    5  A    between atoms: C_6  and  C_7
REMARK    6  A    between atoms: C_7  and  O_8
REMARK    7  A    between atoms: C_7  and  C_10
REMARK    8  A    between atoms: C_10  and  O_11
REMARK    9  A    between atoms: O_11  and  C_13
REMARK   10  A    between atoms: O_15  and  C_16
REMARK   11  A    between atoms: C_16  and  C_17
REMARK   12  A    between atoms: C_17  and  N_18
REMARK                            x       y       z     vdW  Elec       q    Type
REMARK                         _______ _______ _______ _____ _____    ______ ____
ROOT
ATOM      1  P   UNL     1      34.553 -16.557 -24.499  0.00  0.00    +0.476 P 
ATOM      2  O   UNL     1      34.873 -16.783 -25.948  0.00  0.00    -0.227 OA
ENDROOT
BRANCH   1   3
ATOM      3  O   UNL     1      35.814 -16.060 -23.614  0.00  0.00    -0.302 OA
ATOM      4  H   UNL     1      35.741 -15.106 -23.455  0.00  0.00    +0.222 HD
ENDBRANCH   1   3
BRANCH   1   5
ATOM      5  O   UNL     1      34.049 -17.877 -23.706  0.00  0.00    -0.271 OA
BRANCH   5   6
ATOM      6  C   UNL     1      34.973 -18.931 -23.494  0.00  0.00    +0.187 C 
BRANCH   6   7
ATOM      7  C   UNL     1      35.340 -19.007 -22.015  0.00  0.00    +0.184 C 
BRANCH   7   8
ATOM      8  O   UNL     1      36.662 -18.492 -21.845  0.00  0.00    -0.378 OA
ATOM      9  H   UNL     1      37.049 -18.854 -21.034  0.00  0.00    +0.211 HD
ENDBRANCH   7   8
BRANCH   7  10
ATOM     10  C   UNL     1      34.395 -18.170 -21.163  0.00  0.00    +0.240 C 
BRANCH  10  11
ATOM     11  O   UNL     1      35.106 -17.047 -20.653  0.00  0.00    -0.446 OA
BRANCH  11  13
ATOM     12  O   UNL     1      34.971 -14.741 -20.729  0.00  0.00    -0.250 OA
ATOM     13  C   UNL     1      34.451 -15.850 -20.721  0.00  0.00    +0.318 C 
ATOM     14  C   UNL     1      32.972 -16.083 -20.787  0.00  0.00    +0.121 C 
ENDBRANCH  11  13
ENDBRANCH  10  11
ENDBRANCH   7  10
ENDBRANCH   6   7
ENDBRANCH   5   6
ENDBRANCH   1   5
BRANCH   1  15
ATOM     15  O   UNL     1      33.410 -15.445 -24.223  0.00  0.00    -0.276 OA
BRANCH  15  16
ATOM     16  C   UNL     1      33.215 -14.385 -25.144  0.00  0.00    +0.130 C 
BRANCH  16  17
ATOM     17  C   UNL     1      33.595 -13.069 -24.493  0.00  0.00    -0.053 C 
BRANCH  17  18
ATOM     18  N   UNL     1      33.450 -13.192 -23.020  0.00  0.00    +0.382 N 
ATOM     19  H   UNL     1      33.676 -12.300 -22.581  0.00  0.00    -0.089 HD
ATOM     20  H   UNL     1      34.086 -13.911 -22.675  0.00  0.00    -0.089 HD
ATOM     21  H   UNL     1      32.490 -13.449 -22.793  0.00  0.00    -0.089 HD
ENDBRANCH  17  18
ENDBRANCH  16  17
ENDBRANCH  15  16
ENDBRANCH   1  15
TORSDOF 12
ENDMDL
MODEL 7
REMARK VINA RESULT:      -6.0      2.047      2.288
REMARK  Name = 6102806
REMARK  12 active torsions:
REMARK  status: ('A' for Active; 'I' for Inactive)
REMARK    1  A    between atoms: P_1  and  O_3
REMARK    2  A    between atoms: P_1  and  O_5
REMARK    3  A    between atoms: P_1  and  O_15
REMARK    4  A    between atoms: O_5  and  C_6
REMARK    5  A    between atoms: C_6  and  C_7
REMARK    6  A    between atoms: C_7  and  O_8
REMARK    7  A    between atoms: C_7  and  C_10
REMARK    8  A    between atoms: C_10  and  O_11
REMARK    9  A    between atoms: O_11  and  C_13
REMARK   10  A    between atoms: O_15  and  C_16
REMARK   11  A    between atoms: C_16  and  C_17
REMARK   12  A    between atoms: C_17  and  N_18
REMARK                            x       y       z     vdW  Elec       q    Type
REMARK                         _______ _______ _______ _____ _____    ______ ____
ROOT
ATOM      1  P   UNL     1      37.173 -23.895 -11.650  0.00  0.00    +0.476 P 
ATOM      2  O   UNL     1      36.429 -23.950 -10.347  0.00  0.00    -0.227 OA
ENDROOT
BRANCH   1   3
ATOM      3  O   UNL     1      38.425 -22.869 -11.654  0.00  0.00    -0.302 OA
ATOM      4  H   UNL     1      39.253 -23.369 -11.717  0.00  0.00    +0.222 HD
ENDBRANCH   1   3
BRANCH   1   5
ATOM      5  O   UNL     1      36.289 -23.397 -12.912  0.00  0.00    -0.271 OA
BRANCH   5   6
ATOM      6  C   UNL     1      35.126 -24.133 -13.254  0.00  0.00    +0.187 C 
BRANCH   6   7
ATOM      7  C   UNL     1      34.611 -23.682 -14.616  0.00  0.00    +0.184 C 
BRANCH   7   8
ATOM      8  O   UNL     1      35.109 -24.578 -15.613  0.00  0.00    -0.378 OA
ATOM      9  H   UNL     1      35.011 -25.492 -15.305  0.00  0.00    +0.211 HD
ENDBRANCH   7   8
BRANCH   7  10
ATOM     10  C   UNL     1      33.089 -23.714 -14.674  0.00  0.00    +0.240 C 
BRANCH  10  11
ATOM     11  O   UNL     1      32.673 -23.506 -16.020  0.00  0.00    -0.446 OA
BRANCH  11  13
ATOM     12  O   UNL     1      30.974 -22.477 -17.200  0.00  0.00    -0.250 OA
ATOM     13  C   UNL     1      31.420 -22.986 -16.180  0.00  0.00    +0.318 C 
ATOM     14  C   UNL     1      30.645 -23.126 -14.904  0.00  0.00    +0.121 C 
ENDBRANCH  11  13
ENDBRANCH  10  11
ENDBRANCH   7  10
ENDBRANCH   6   7
ENDBRANCH   5   6
ENDBRANCH   1   5
BRANCH   1  15
ATOM     15  O   UNL     1      37.814 -25.305 -12.122  0.00  0.00    -0.276 OA
BRANCH  15  16
ATOM     16  C   UNL     1      38.852 -25.324 -13.089  0.00  0.00    +0.130 C 
BRANCH  16  17
ATOM     17  C   UNL     1      38.290 -25.766 -14.427  0.00  0.00    -0.053 C 
BRANCH  17  18
ATOM     18  N   UNL     1      38.102 -24.576 -15.295  0.00  0.00    +0.382 N 
ATOM     19  H   UNL     1      37.431 -23.942 -14.862  0.00  0.00    -0.089 HD
ATOM     20  H   UNL     1      37.750 -24.872 -16.206  0.00  0.00    -0.089 HD
ATOM     21  H   UNL     1      38.995 -24.097 -15.414  0.00  0.00    -0.089 HD
ENDBRANCH  17  18
ENDBRANCH  16  17
ENDBRANCH  15  16
ENDBRANCH   1  15
TORSDOF 12
ENDMDL
MODEL 8
REMARK VINA RESULT:      -6.0      8.914     12.179
REMARK  Name = 6102806
REMARK  12 active torsions:
REMARK  status: ('A' for Active; 'I' for Inactive)
REMARK    1  A    between atoms: P_1  and  O_3
REMARK    2  A    between atoms: P_1  and  O_5
REMARK    3  A    between atoms: P_1  and  O_15
REMARK    4  A    between atoms: O_5  and  C_6
REMARK    5  A    between atoms: C_6  and  C_7
REMARK    6  A    between atoms: C_7  and  O_8
REMARK    7  A    between atoms: C_7  and  C_10
REMARK    8  A    between atoms: C_10  and  O_11
REMARK    9  A    between atoms: O_11  and  C_13
REMARK   10  A    between atoms: O_15  and  C_16
REMARK   11  A    between atoms: C_16  and  C_17
REMARK   12  A    between atoms: C_17  and  N_18
REMARK                            x       y       z     vdW  Elec       q    Type
REMARK                         _______ _______ _______ _____ _____    ______ ____
ROOT
ATOM      1  P   UNL     1      33.377 -14.251 -24.028  0.00  0.00    +0.476 P 
ATOM      2  O   UNL     1      32.710 -14.197 -25.372  0.00  0.00    -0.227 OA
ENDROOT
BRANCH   1   3
ATOM      3  O   UNL     1      34.173 -12.899 -23.630  0.00  0.00    -0.302 OA
ATOM      4  H   UNL     1      35.078 -12.942 -23.978  0.00  0.00    +0.222 HD
ENDBRANCH   1   3
BRANCH   1   5
ATOM      5  O   UNL     1      34.511 -15.399 -23.884  0.00  0.00    -0.271 OA
BRANCH   5   6
ATOM      6  C   UNL     1      34.252 -16.677 -24.437  0.00  0.00    +0.187 C 
BRANCH   6   7
ATOM      7  C   UNL     1      35.267 -17.686 -23.910  0.00  0.00    +0.184 C 
BRANCH   7   8
ATOM      8  O   UNL     1      36.103 -17.035 -22.950  0.00  0.00    -0.378 OA
ATOM      9  H   UNL     1      36.903 -16.706 -23.389  0.00  0.00    +0.211 HD
ENDBRANCH   7   8
BRANCH   7  10
ATOM     10  C   UNL     1      34.581 -18.857 -23.218  0.00  0.00    +0.240 C 
BRANCH  10  11
ATOM     11  O   UNL     1      34.201 -18.460 -21.905  0.00  0.00    -0.446 OA
BRANCH  11  13
ATOM     12  O   UNL     1      35.481 -19.641 -20.387  0.00  0.00    -0.250 OA
ATOM     13  C   UNL     1      34.410 -19.385 -20.922  0.00  0.00    +0.318 C 
ATOM     14  C   UNL     1      33.118 -20.062 -20.578  0.00  0.00    +0.121 C 
ENDBRANCH  11  13
ENDBRANCH  10  11
ENDBRANCH   7  10
ENDBRANCH   6   7
ENDBRANCH   5   6
ENDBRANCH   1   5
BRANCH   1  15
ATOM     15  O   UNL     1      32.373 -14.501 -22.783  0.00  0.00    -0.276 OA
BRANCH  15  16
ATOM     16  C   UNL     1      32.753 -14.111 -21.474  0.00  0.00    +0.130 C 
BRANCH  16  17
ATOM     17  C   UNL     1      33.052 -15.344 -20.644  0.00  0.00    -0.053 C 
BRANCH  17  18
ATOM     18  N   UNL     1      34.500 -15.657 -20.736  0.00  0.00    +0.382 N 
ATOM     19  H   UNL     1      34.996 -14.859 -21.135  0.00  0.00    -0.089 HD
ATOM     20  H   UNL     1      34.635 -16.473 -21.333  0.00  0.00    -0.089 HD
ATOM     21  H   UNL     1      34.866 -15.852 -19.804  0.00  0.00    -0.089 HD
ENDBRANCH  17  18
ENDBRANCH  16  17
ENDBRANCH  15  16
ENDBRANCH   1  15
TORSDOF 12
ENDMDL
MODEL 9
REMARK VINA RESULT:      -5.9      7.746     10.254
REMARK  Name = 6102806
REMARK  12 active torsions:
REMARK  status: ('A' for Active; 'I' for Inactive)
REMARK    1  A    between atoms: P_1  and  O_3
REMARK    2  A    between atoms: P_1  and  O_5
REMARK    3  A    between atoms: P_1  and  O_15
REMARK    4  A    between atoms: O_5  and  C_6
REMARK    5  A    between atoms: C_6  and  C_7
REMARK    6  A    between atoms: C_7  and  O_8
REMARK    7  A    between atoms: C_7  and  C_10
REMARK    8  A    between atoms: C_10  and  O_11
REMARK    9  A    between atoms: O_11  and  C_13
REMARK   10  A    between atoms: O_15  and  C_16
REMARK   11  A    between atoms: C_16  and  C_17
REMARK   12  A    between atoms: C_17  and  N_18
REMARK                            x       y       z     vdW  Elec       q    Type
REMARK                         _______ _______ _______ _____ _____    ______ ____
ROOT
ATOM      1  P   UNL     1      34.623 -19.513 -21.158  0.00  0.00    +0.476 P 
ATOM      2  O   UNL     1      33.217 -19.306 -20.673  0.00  0.00    -0.227 OA
ENDROOT
BRANCH   1   3
ATOM      3  O   UNL     1      35.675 -18.403 -20.626  0.00  0.00    -0.302 OA
ATOM      4  H   UNL     1      36.035 -17.911 -21.380  0.00  0.00    +0.222 HD
ENDBRANCH   1   3
BRANCH   1   5
ATOM      5  O   UNL     1      34.798 -19.441 -22.767  0.00  0.00    -0.271 OA
BRANCH   5   6
ATOM      6  C   UNL     1      35.671 -18.464 -23.308  0.00  0.00    +0.187 C 
BRANCH   6   7
ATOM      7  C   UNL     1      34.866 -17.264 -23.795  0.00  0.00    +0.184 C 
BRANCH   7   8
ATOM      8  O   UNL     1      35.658 -16.086 -23.633  0.00  0.00    -0.378 OA
ATOM      9  H   UNL     1      35.362 -15.602 -22.847  0.00  0.00    +0.211 HD
ENDBRANCH   7   8
BRANCH   7  10
ATOM     10  C   UNL     1      34.510 -17.394 -25.270  0.00  0.00    +0.240 C 
BRANCH  10  11
ATOM     11  O   UNL     1      34.500 -16.097 -25.858  0.00  0.00    -0.446 OA
BRANCH  11  13
ATOM     12  O   UNL     1      32.392 -16.025 -26.801  0.00  0.00    -0.250 OA
ATOM     13  C   UNL     1      33.265 -15.557 -26.082  0.00  0.00    +0.318 C 
ATOM     14  C   UNL     1      33.121 -14.281 -25.309  0.00  0.00    +0.121 C 
ENDBRANCH  11  13
ENDBRANCH  10  11
ENDBRANCH   7  10
ENDBRANCH   6   7
ENDBRANCH   5   6
ENDBRANCH   1   5
BRANCH   1  15
ATOM     15  O   UNL     1      35.286 -20.926 -20.729  0.00  0.00    -0.276 OA
BRANCH  15  16
ATOM     16  C   UNL     1      35.272 -21.334 -19.371  0.00  0.00    +0.130 C 
BRANCH  16  17
ATOM     17  C   UNL     1      34.343 -22.522 -19.208  0.00  0.00    -0.053 C 
BRANCH  17  18
ATOM     18  N   UNL     1      32.937 -22.066 -19.346  0.00  0.00    +0.382 N 
ATOM     19  H   UNL     1      32.410 -22.751 -19.888  0.00  0.00    -0.089 HD
ATOM     20  H   UNL     1      32.916 -21.165 -19.824  0.00  0.00    -0.089 HD
ATOM     21  H   UNL     1      32.518 -21.971 -18.421  0.00  0.00    -0.089 HD
ENDBRANCH  17  18
ENDBRANCH  16  17
ENDBRANCH  15  16
ENDBRANCH   1  15
TORSDOF 12
ENDMDL
