MODEL 1
REMARK VINA RESULT:      -5.2      0.000      0.000
REMARK  Name = 439524
REMARK  5 active torsions:
REMARK  status: ('A' for Active; 'I' for Inactive)
REMARK    1  A    between atoms: CA_1  and  N_2
REMARK    2  A    between atoms: CA_1  and  C_7
REMARK    3  A    between atoms: CA_1  and  CB_10
REMARK    4  A    between atoms: C_7  and  O_8
REMARK    5  A    between atoms: CB_10  and  CG_11
REMARK                            x       y       z     vdW  Elec       q    Type
REMARK                         _______ _______ _______ _____ _____    ______ ____
ROOT
ATOM      1  CA  LEU A   1      38.798 -25.819 -14.328  0.00  0.00    +0.036 C 
ENDROOT
BRANCH   1   2
ATOM      2  N   LEU A   1      37.806 -25.331 -15.287  0.00  0.00    +0.389 N 
ATOM      3  H1  LEU A   1      37.641 -26.045 -15.996  0.00  0.00    -0.088 HD
ATOM      4  H2  LEU A   1      38.152 -24.481 -15.732  0.00  0.00    -0.088 HD
ATOM      5  H3  LEU A   1      36.934 -25.128 -14.798  0.00  0.00    -0.088 HD
ENDBRANCH   1   2
BRANCH   1   7
ATOM      6  OXT LEU A   1      40.958 -24.676 -14.272  0.00  0.00    -0.253 OA
ATOM      7  C   LEU A   1      40.169 -25.413 -14.847  0.00  0.00    +0.293 C 
BRANCH   7   8
ATOM      8  O   LEU A   1      40.432 -25.964 -16.062  0.00  0.00    -0.482 OA
ATOM      9  H   LEU A   1      39.812 -26.546 -16.458  0.00  0.00    +0.295 HD
ENDBRANCH   7   8
ENDBRANCH   1   7
BRANCH   1  10
ATOM     10  CB  LEU A   1      38.579 -25.219 -12.931  0.00  0.00    -0.011 C 
BRANCH  10  11
ATOM     11  CG  LEU A   1      37.356 -24.288 -12.784  0.00  0.00    -0.002 C 
ATOM     12  CD1 LEU A   1      37.679 -23.026 -11.984  0.00  0.00    -0.000 C 
ATOM     13  CD2 LEU A   1      36.208 -25.047 -12.111  0.00  0.00    -0.000 C 
ENDBRANCH  10  11
ENDBRANCH   1  10
TORSDOF 5
ENDMDL
MODEL 2
REMARK VINA RESULT:      -5.1     10.986     11.214
REMARK  Name = 439524
REMARK  5 active torsions:
REMARK  status: ('A' for Active; 'I' for Inactive)
REMARK    1  A    between atoms: CA_1  and  N_2
REMARK    2  A    between atoms: CA_1  and  C_7
REMARK    3  A    between atoms: CA_1  and  CB_10
REMARK    4  A    between atoms: C_7  and  O_8
REMARK    5  A    between atoms: CB_10  and  CG_11
REMARK                            x       y       z     vdW  Elec       q    Type
REMARK                         _______ _______ _______ _____ _____    ______ ____
ROOT
ATOM      1  CA  LEU A   1      35.580 -17.923 -22.124  0.00  0.00    +0.036 C 
ENDROOT
BRANCH   1   2
ATOM      2  N   LEU A   1      35.729 -17.433 -23.495  0.00  0.00    +0.389 N 
ATOM      3  H1  LEU A   1      36.260 -16.563 -23.488  0.00  0.00    -0.088 HD
ATOM      4  H2  LEU A   1      34.807 -17.267 -23.898  0.00  0.00    -0.088 HD
ATOM      5  H3  LEU A   1      36.223 -18.130 -24.052  0.00  0.00    -0.088 HD
ENDBRANCH   1   2
BRANCH   1   7
ATOM      6  OXT LEU A   1      35.200 -16.449 -20.213  0.00  0.00    -0.253 OA
ATOM      7  C   LEU A   1      34.876 -16.836 -21.327  0.00  0.00    +0.293 C 
BRANCH   7   8
ATOM      8  O   LEU A   1      33.808 -16.329 -21.999  0.00  0.00    -0.482 OA
ATOM      9  H   LEU A   1      33.315 -16.876 -22.577  0.00  0.00    +0.295 HD
ENDBRANCH   7   8
ENDBRANCH   1   7
BRANCH   1  10
ATOM     10  CB  LEU A   1      34.754 -19.217 -22.071  0.00  0.00    -0.011 C 
BRANCH  10  11
ATOM     11  CG  LEU A   1      34.338 -19.691 -20.662  0.00  0.00    -0.002 C 
ATOM     12  CD1 LEU A   1      35.224 -20.824 -20.144  0.00  0.00    -0.000 C 
ATOM     13  CD2 LEU A   1      32.875 -20.147 -20.683  0.00  0.00    -0.000 C 
ENDBRANCH  10  11
ENDBRANCH   1  10
TORSDOF 5
ENDMDL
MODEL 3
REMARK VINA RESULT:      -5.1      8.855      9.812
REMARK  Name = 439524
REMARK  5 active torsions:
REMARK  status: ('A' for Active; 'I' for Inactive)
REMARK    1  A    between atoms: CA_1  and  N_2
REMARK    2  A    between atoms: CA_1  and  C_7
REMARK    3  A    between atoms: CA_1  and  CB_10
REMARK    4  A    between atoms: C_7  and  O_8
REMARK    5  A    between atoms: CB_10  and  CG_11
REMARK                            x       y       z     vdW  Elec       q    Type
REMARK                         _______ _______ _______ _____ _____    ______ ____
ROOT
ATOM      1  CA  LEU A   1      29.413 -23.956 -15.922  0.00  0.00    +0.036 C 
ENDROOT
BRANCH   1   2
ATOM      2  N   LEU A   1      28.695 -24.908 -15.075  0.00  0.00    +0.389 N 
ATOM      3  H1  LEU A   1      29.326 -25.659 -14.797  0.00  0.00    -0.088 HD
ATOM      4  H2  LEU A   1      27.908 -25.299 -15.594  0.00  0.00    -0.088 HD
ATOM      5  H3  LEU A   1      28.349 -24.428 -14.244  0.00  0.00    -0.088 HD
ENDBRANCH   1   2
BRANCH   1   7
ATOM      6  OXT LEU A   1      27.634 -24.059 -17.594  0.00  0.00    -0.253 OA
ATOM      7  C   LEU A   1      28.415 -23.397 -16.924  0.00  0.00    +0.293 C 
BRANCH   7   8
ATOM      8  O   LEU A   1      28.489 -22.042 -17.010  0.00  0.00    -0.482 OA
ATOM      9  H   LEU A   1      27.710 -21.536 -17.134  0.00  0.00    +0.295 HD
ENDBRANCH   7   8
ENDBRANCH   1   7
BRANCH   1  10
ATOM     10  CB  LEU A   1      30.014 -22.806 -15.099  0.00  0.00    -0.011 C 
BRANCH  10  11
ATOM     11  CG  LEU A   1      31.552 -22.811 -14.962  0.00  0.00    -0.002 C 
ATOM     12  CD1 LEU A   1      32.247 -23.332 -16.220  0.00  0.00    -0.000 C 
ATOM     13  CD2 LEU A   1      31.959 -23.664 -13.755  0.00  0.00    -0.000 C 
ENDBRANCH  10  11
ENDBRANCH   1  10
TORSDOF 5
ENDMDL
MODEL 4
REMARK VINA RESULT:      -5.0     11.144     11.433
REMARK  Name = 439524
REMARK  5 active torsions:
REMARK  status: ('A' for Active; 'I' for Inactive)
REMARK    1  A    between atoms: CA_1  and  N_2
REMARK    2  A    between atoms: CA_1  and  C_7
REMARK    3  A    between atoms: CA_1  and  CB_10
REMARK    4  A    between atoms: C_7  and  O_8
REMARK    5  A    between atoms: CB_10  and  CG_11
REMARK                            x       y       z     vdW  Elec       q    Type
REMARK                         _______ _______ _______ _____ _____    ______ ____
ROOT
ATOM      1  CA  LEU A   1      34.465 -17.815 -22.204  0.00  0.00    +0.036 C 
ENDROOT
BRANCH   1   2
ATOM      2  N   LEU A   1      35.205 -17.091 -21.170  0.00  0.00    +0.389 N 
ATOM      3  H1  LEU A   1      35.006 -16.093 -21.245  0.00  0.00    -0.088 HD
ATOM      4  H2  LEU A   1      36.205 -17.249 -21.293  0.00  0.00    -0.088 HD
ATOM      5  H3  LEU A   1      34.918 -17.427 -20.250  0.00  0.00    -0.088 HD
ENDBRANCH   1   2
BRANCH   1   7
ATOM      6  OXT LEU A   1      34.960 -18.047 -24.586  0.00  0.00    -0.253 OA
ATOM      7  C   LEU A   1      35.045 -17.404 -23.548  0.00  0.00    +0.293 C 
BRANCH   7   8
ATOM      8  O   LEU A   1      35.700 -16.215 -23.474  0.00  0.00    -0.482 OA
ATOM      9  H   LEU A   1      35.217 -15.411 -23.496  0.00  0.00    +0.295 HD
ENDBRANCH   7   8
ENDBRANCH   1   7
BRANCH   1  10
ATOM     10  CB  LEU A   1      34.592 -19.336 -22.031  0.00  0.00    -0.011 C 
BRANCH  10  11
ATOM     11  CG  LEU A   1      34.499 -19.858 -20.582  0.00  0.00    -0.002 C 
ATOM     12  CD1 LEU A   1      35.590 -20.879 -20.259  0.00  0.00    -0.000 C 
ATOM     13  CD2 LEU A   1      33.120 -20.482 -20.346  0.00  0.00    -0.000 C 
ENDBRANCH  10  11
ENDBRANCH   1  10
TORSDOF 5
ENDMDL
MODEL 5
REMARK VINA RESULT:      -5.0     11.186     11.425
REMARK  Name = 439524
REMARK  5 active torsions:
REMARK  status: ('A' for Active; 'I' for Inactive)
REMARK    1  A    between atoms: CA_1  and  N_2
REMARK    2  A    between atoms: CA_1  and  C_7
REMARK    3  A    between atoms: CA_1  and  CB_10
REMARK    4  A    between atoms: C_7  and  O_8
REMARK    5  A    between atoms: CB_10  and  CG_11
REMARK                            x       y       z     vdW  Elec       q    Type
REMARK                         _______ _______ _______ _____ _____    ______ ____
ROOT
ATOM      1  CA  LEU A   1      35.491 -18.157 -22.412  0.00  0.00    +0.036 C 
ENDROOT
BRANCH   1   2
ATOM      2  N   LEU A   1      34.944 -18.984 -23.487  0.00  0.00    +0.389 N 
ATOM      3  H1  LEU A   1      35.655 -19.120 -24.206  0.00  0.00    -0.088 HD
ATOM      4  H2  LEU A   1      34.133 -18.520 -23.895  0.00  0.00    -0.088 HD
ATOM      5  H3  LEU A   1      34.664 -19.890 -23.110  0.00  0.00    -0.088 HD
ENDBRANCH   1   2
BRANCH   1   7
ATOM      6  OXT LEU A   1      34.222 -16.101 -22.044  0.00  0.00    -0.253 OA
ATOM      7  C   LEU A   1      35.062 -16.723 -22.680  0.00  0.00    +0.293 C 
BRANCH   7   8
ATOM      8  O   LEU A   1      35.724 -16.188 -23.740  0.00  0.00    -0.482 OA
ATOM      9  H   LEU A   1      35.259 -15.679 -24.375  0.00  0.00    +0.295 HD
ENDBRANCH   7   8
ENDBRANCH   1   7
BRANCH   1  10
ATOM     10  CB  LEU A   1      34.971 -18.601 -21.035  0.00  0.00    -0.011 C 
BRANCH  10  11
ATOM     11  CG  LEU A   1      34.318 -19.998 -20.983  0.00  0.00    -0.002 C 
ATOM     12  CD1 LEU A   1      32.842 -19.936 -20.593  0.00  0.00    -0.000 C 
ATOM     13  CD2 LEU A   1      35.078 -20.885 -19.992  0.00  0.00    -0.000 C 
ENDBRANCH  10  11
ENDBRANCH   1  10
TORSDOF 5
ENDMDL
MODEL 6
REMARK VINA RESULT:      -5.0      8.993      9.326
REMARK  Name = 439524
REMARK  5 active torsions:
REMARK  status: ('A' for Active; 'I' for Inactive)
REMARK    1  A    between atoms: CA_1  and  N_2
REMARK    2  A    between atoms: CA_1  and  C_7
REMARK    3  A    between atoms: CA_1  and  CB_10
REMARK    4  A    between atoms: C_7  and  O_8
REMARK    5  A    between atoms: CB_10  and  CG_11
REMARK                            x       y       z     vdW  Elec       q    Type
REMARK                         _______ _______ _______ _____ _____    ______ ____
ROOT
ATOM      1  CA  LEU A   1      35.276 -21.279 -19.985  0.00  0.00    +0.036 C 
ENDROOT
BRANCH   1   2
ATOM      2  N   LEU A   1      36.358 -20.794 -19.128  0.00  0.00    +0.389 N 
ATOM      3  H1  LEU A   1      36.057 -19.946 -18.648  0.00  0.00    -0.088 HD
ATOM      4  H2  LEU A   1      37.179 -20.590 -19.698  0.00  0.00    -0.088 HD
ATOM      5  H3  LEU A   1      36.592 -21.510 -18.439  0.00  0.00    -0.088 HD
ENDBRANCH   1   2
BRANCH   1   7
ATOM      6  OXT LEU A   1      34.687 -22.750 -18.123  0.00  0.00    -0.253 OA
ATOM      7  C   LEU A   1      34.353 -22.120 -19.118  0.00  0.00    +0.293 C 
BRANCH   7   8
ATOM      8  O   LEU A   1      33.075 -22.109 -19.582  0.00  0.00    -0.482 OA
ATOM      9  H   LEU A   1      32.774 -21.395 -20.111  0.00  0.00    +0.295 HD
ENDBRANCH   7   8
ENDBRANCH   1   7
BRANCH   1  10
ATOM     10  CB  LEU A   1      34.484 -20.120 -20.609  0.00  0.00    -0.011 C 
BRANCH  10  11
ATOM     11  CG  LEU A   1      35.287 -19.174 -21.526  0.00  0.00    -0.002 C 
ATOM     12  CD1 LEU A   1      35.218 -17.718 -21.064  0.00  0.00    -0.000 C 
ATOM     13  CD2 LEU A   1      34.769 -19.286 -22.963  0.00  0.00    -0.000 C 
ENDBRANCH  10  11
ENDBRANCH   1  10
TORSDOF 5
ENDMDL
MODEL 7
REMARK VINA RESULT:      -5.0      3.706      4.687
REMARK  Name = 439524
REMARK  5 active torsions:
REMARK  status: ('A' for Active; 'I' for Inactive)
REMARK    1  A    between atoms: CA_1  and  N_2
REMARK    2  A    between atoms: CA_1  and  C_7
REMARK    3  A    between atoms: CA_1  and  CB_10
REMARK    4  A    between atoms: C_7  and  O_8
REMARK    5  A    between atoms: CB_10  and  CG_11
REMARK                            x       y       z     vdW  Elec       q    Type
REMARK                         _______ _______ _______ _____ _____    ______ ____
ROOT
ATOM      1  CA  LEU A   1      37.072 -24.234 -11.574  0.00  0.00    +0.036 C 
ENDROOT
BRANCH   1   2
ATOM      2  N   LEU A   1      37.268 -22.794 -11.410  0.00  0.00    +0.389 N 
ATOM      3  H1  LEU A   1      37.449 -22.586 -10.428  0.00  0.00    -0.088 HD
ATOM      4  H2  LEU A   1      36.429 -22.300 -11.714  0.00  0.00    -0.088 HD
ATOM      5  H3  LEU A   1      38.063 -22.493 -11.974  0.00  0.00    -0.088 HD
ENDBRANCH   1   2
BRANCH   1   7
ATOM      6  OXT LEU A   1      35.370 -24.519  -9.844  0.00  0.00    -0.253 OA
ATOM      7  C   LEU A   1      35.697 -24.572 -11.022  0.00  0.00    +0.293 C 
BRANCH   7   8
ATOM      8  O   LEU A   1      34.840 -24.961 -12.004  0.00  0.00    -0.482 OA
ATOM      9  H   LEU A   1      34.692 -25.873 -12.163  0.00  0.00    +0.295 HD
ENDBRANCH   7   8
ENDBRANCH   1   7
BRANCH   1  10
ATOM     10  CB  LEU A   1      37.152 -24.653 -13.051  0.00  0.00    -0.011 C 
BRANCH  10  11
ATOM     11  CG  LEU A   1      37.994 -25.911 -13.348  0.00  0.00    -0.002 C 
ATOM     12  CD1 LEU A   1      39.398 -25.568 -13.847  0.00  0.00    -0.000 C 
ATOM     13  CD2 LEU A   1      37.274 -26.779 -14.386  0.00  0.00    -0.000 C 
ENDBRANCH  10  11
ENDBRANCH   1  10
TORSDOF 5
ENDMDL
MODEL 8
REMARK VINA RESULT:      -5.0      9.415      9.851
REMARK  Name = 439524
REMARK  5 active torsions:
REMARK  status: ('A' for Active; 'I' for Inactive)
REMARK    1  A    between atoms: CA_1  and  N_2
REMARK    2  A    between atoms: CA_1  and  C_7
REMARK    3  A    between atoms: CA_1  and  CB_10
REMARK    4  A    between atoms: C_7  and  O_8
REMARK    5  A    between atoms: CB_10  and  CG_11
REMARK                            x       y       z     vdW  Elec       q    Type
REMARK                         _______ _______ _______ _____ _____    ______ ____
ROOT
ATOM      1  CA  LEU A   1      33.698 -20.616 -19.877  0.00  0.00    +0.036 C 
ENDROOT
BRANCH   1   2
ATOM      2  N   LEU A   1      32.434 -20.710 -20.607  0.00  0.00    +0.389 N 
ATOM      3  H1  LEU A   1      32.619 -20.699 -21.610  0.00  0.00    -0.088 HD
ATOM      4  H2  LEU A   1      31.839 -19.918 -20.361  0.00  0.00    -0.088 HD
ATOM      5  H3  LEU A   1      31.962 -21.580 -20.357  0.00  0.00    -0.088 HD
ENDBRANCH   1   2
BRANCH   1   7
ATOM      6  OXT LEU A   1      35.090 -22.557 -19.358  0.00  0.00    -0.253 OA
ATOM      7  C   LEU A   1      34.003 -21.996 -19.317  0.00  0.00    +0.293 C 
BRANCH   7   8
ATOM      8  O   LEU A   1      32.904 -22.567 -18.755  0.00  0.00    -0.482 OA
ATOM      9  H   LEU A   1      32.250 -22.030 -18.351  0.00  0.00    +0.295 HD
ENDBRANCH   7   8
ENDBRANCH   1   7
BRANCH   1  10
ATOM     10  CB  LEU A   1      34.849 -20.166 -20.791  0.00  0.00    -0.011 C 
BRANCH  10  11
ATOM     11  CG  LEU A   1      34.554 -18.947 -21.691  0.00  0.00    -0.002 C 
ATOM     12  CD1 LEU A   1      34.863 -19.221 -23.162  0.00  0.00    -0.000 C 
ATOM     13  CD2 LEU A   1      35.366 -17.741 -21.207  0.00  0.00    -0.000 C 
ENDBRANCH  10  11
ENDBRANCH   1  10
TORSDOF 5
ENDMDL
MODEL 9
REMARK VINA RESULT:      -4.9     13.968     14.259
REMARK  Name = 439524
REMARK  5 active torsions:
REMARK  status: ('A' for Active; 'I' for Inactive)
REMARK    1  A    between atoms: CA_1  and  N_2
REMARK    2  A    between atoms: CA_1  and  C_7
REMARK    3  A    between atoms: CA_1  and  CB_10
REMARK    4  A    between atoms: C_7  and  O_8
REMARK    5  A    between atoms: CB_10  and  CG_11
REMARK                            x       y       z     vdW  Elec       q    Type
REMARK                         _______ _______ _______ _____ _____    ______ ____
ROOT
ATOM      1  CA  LEU A   1      33.720 -15.440 -24.087  0.00  0.00    +0.036 C 
ENDROOT
BRANCH   1   2
ATOM      2  N   LEU A   1      33.699 -13.979 -24.160  0.00  0.00    +0.389 N 
ATOM      3  H1  LEU A   1      33.195 -13.688 -24.997  0.00  0.00    -0.088 HD
ATOM      4  H2  LEU A   1      34.656 -13.626 -24.198  0.00  0.00    -0.088 HD
ATOM      5  H3  LEU A   1      33.232 -13.604 -23.334  0.00  0.00    -0.088 HD
ENDBRANCH   1   2
BRANCH   1   7
ATOM      6  OXT LEU A   1      33.591 -15.399 -26.527  0.00  0.00    -0.253 OA
ATOM      7  C   LEU A   1      33.939 -15.962 -25.498  0.00  0.00    +0.293 C 
BRANCH   7   8
ATOM      8  O   LEU A   1      34.574 -17.165 -25.498  0.00  0.00    -0.482 OA
ATOM      9  H   LEU A   1      34.108 -17.941 -25.742  0.00  0.00    +0.295 HD
ENDBRANCH   7   8
ENDBRANCH   1   7
BRANCH   1  10
ATOM     10  CB  LEU A   1      34.845 -15.945 -23.170  0.00  0.00    -0.011 C 
BRANCH  10  11
ATOM     11  CG  LEU A   1      34.408 -16.407 -21.763  0.00  0.00    -0.002 C 
ATOM     12  CD1 LEU A   1      34.500 -15.286 -20.728  0.00  0.00    -0.000 C 
ATOM     13  CD2 LEU A   1      35.270 -17.594 -21.319  0.00  0.00    -0.000 C 
ENDBRANCH  10  11
ENDBRANCH   1  10
TORSDOF 5
ENDMDL
