MODEL 1
REMARK VINA RESULT:      -8.2      0.000      0.000
REMARK  Name = 46936944
REMARK  8 active torsions:
REMARK  status: ('A' for Active; 'I' for Inactive)
REMARK    1  A    between atoms: C_1  and  C_14
REMARK    2  A    between atoms: C_2  and  C_7
REMARK    3  A    between atoms: C_7  and  N_8
REMARK    4  A    between atoms: N_8  and  C_11
REMARK    5  A    between atoms: C_14  and  CA_15
REMARK    6  A    between atoms: CA_15  and  N_16
REMARK    7  A    between atoms: CA_15  and  C_21
REMARK    8  A    between atoms: C_21  and  O_22
REMARK                            x       y       z     vdW  Elec       q    Type
REMARK                         _______ _______ _______ _____ _____    ______ ____
ROOT
ATOM      1  C   UNL     1      34.960 -19.200 -21.283  0.00  0.00    -0.024 C 
ATOM      2  C   UNL     1      34.374 -21.330 -19.581  0.00  0.00    -0.044 C 
ATOM      3  C   UNL     1      33.632 -19.522 -21.000  0.00  0.00    -0.005 C 
ATOM      4  C   UNL     1      35.995 -19.944 -20.715  0.00  0.00    -0.005 C 
ATOM      5  C   UNL     1      33.339 -20.587 -20.149  0.00  0.00    -0.007 C 
ATOM      6  C   UNL     1      35.701 -21.009 -19.865  0.00  0.00    -0.007 C 
ENDROOT
BRANCH   2   7
ATOM      7  C   UNL     1      34.060 -22.472 -18.673  0.00  0.00    -0.054 C 
BRANCH   7   8
ATOM      8  N   UNL     1      32.660 -22.476 -18.247  0.00  0.00    +0.388 N 
ATOM      9  H   UNL     1      32.384 -21.528 -17.993  0.00  0.00    -0.084 HD
ATOM     10  H   UNL     1      32.083 -22.818 -19.015  0.00  0.00    -0.084 HD
BRANCH   8  11
ATOM     11  C   UNL     1      32.475 -23.350 -17.099  0.00  0.00    -0.062 C 
ATOM     12  C   UNL     1      31.251 -22.918 -16.296  0.00  0.00    -0.023 C 
ATOM     13  C   UNL     1      33.733 -23.327 -16.236  0.00  0.00    -0.023 C 
ENDBRANCH   8  11
ENDBRANCH   7   8
ENDBRANCH   2   7
BRANCH   1  14
ATOM     14  C   UNL     1      35.278 -18.045 -22.206  0.00  0.00    +0.015 C 
BRANCH  14  15
ATOM     15  CA  UNL     1      34.585 -18.166 -23.572  0.00  0.00    +0.040 C 
BRANCH  15  16
ATOM     16  N   UNL     1      35.003 -19.401 -24.231  0.00  0.00    +0.389 N 
ATOM     17  H1  UNL     1      36.013 -19.383 -24.377  0.00  0.00    -0.088 HD
ATOM     18  H2  UNL     1      34.530 -19.484 -25.131  0.00  0.00    -0.088 HD
ATOM     19  H3  UNL     1      34.759 -20.199 -23.643  0.00  0.00    -0.088 HD
ENDBRANCH  15  16
BRANCH  15  21
ATOM     20  OXT UNL     1      34.706 -16.993 -25.704  0.00  0.00    -0.253 OA
ATOM     21  C   UNL     1      34.960 -17.027 -24.506  0.00  0.00    +0.293 C 
BRANCH  21  22
ATOM     22  O   UNL     1      35.589 -16.013 -23.857  0.00  0.00    -0.482 OA
ATOM     23  H   UNL     1      35.091 -15.302 -23.507  0.00  0.00    +0.295 HD
ENDBRANCH  21  22
ENDBRANCH  15  21
ENDBRANCH  14  15
ENDBRANCH   1  14
TORSDOF 8
ENDMDL
MODEL 2
REMARK VINA RESULT:      -8.1      1.401      2.142
REMARK  Name = 46936944
REMARK  8 active torsions:
REMARK  status: ('A' for Active; 'I' for Inactive)
REMARK    1  A    between atoms: C_1  and  C_14
REMARK    2  A    between atoms: C_2  and  C_7
REMARK    3  A    between atoms: C_7  and  N_8
REMARK    4  A    between atoms: N_8  and  C_11
REMARK    5  A    between atoms: C_14  and  CA_15
REMARK    6  A    between atoms: CA_15  and  N_16
REMARK    7  A    between atoms: CA_15  and  C_21
REMARK    8  A    between atoms: C_21  and  O_22
REMARK                            x       y       z     vdW  Elec       q    Type
REMARK                         _______ _______ _______ _____ _____    ______ ____
ROOT
ATOM      1  C   UNL     1      35.487 -19.753 -20.783  0.00  0.00    -0.024 C 
ATOM      2  C   UNL     1      34.330 -21.803 -19.288  0.00  0.00    -0.044 C 
ATOM      3  C   UNL     1      36.297 -20.646 -20.080  0.00  0.00    -0.005 C 
ATOM      4  C   UNL     1      34.099 -19.885 -20.738  0.00  0.00    -0.005 C 
ATOM      5  C   UNL     1      35.718 -21.671 -19.333  0.00  0.00    -0.007 C 
ATOM      6  C   UNL     1      33.521 -20.910 -19.990  0.00  0.00    -0.007 C 
ENDROOT
BRANCH   2   7
ATOM      7  C   UNL     1      33.711 -22.898 -18.484  0.00  0.00    -0.054 C 
BRANCH   7   8
ATOM      8  N   UNL     1      32.402 -22.523 -17.947  0.00  0.00    +0.388 N 
ATOM      9  H   UNL     1      32.420 -21.541 -17.675  0.00  0.00    -0.084 HD
ATOM     10  H   UNL     1      31.696 -22.678 -18.667  0.00  0.00    -0.084 HD
BRANCH   8  11
ATOM     11  C   UNL     1      32.072 -23.335 -16.787  0.00  0.00    -0.062 C 
ATOM     12  C   UNL     1      30.779 -22.840 -16.144  0.00  0.00    -0.023 C 
ATOM     13  C   UNL     1      33.229 -23.294 -15.793  0.00  0.00    -0.023 C 
ENDBRANCH   8  11
ENDBRANCH   7   8
ENDBRANCH   2   7
BRANCH   1  14
ATOM     14  C   UNL     1      36.115 -18.642 -21.594  0.00  0.00    +0.015 C 
BRANCH  14  15
ATOM     15  CA  UNL     1      35.074 -17.709 -22.232  0.00  0.00    +0.040 C 
BRANCH  15  16
ATOM     16  N   UNL     1      35.447 -17.426 -23.616  0.00  0.00    +0.389 N 
ATOM     17  H1  UNL     1      34.653 -17.617 -24.228  0.00  0.00    -0.088 HD
ATOM     18  H2  UNL     1      36.233 -18.017 -23.885  0.00  0.00    -0.088 HD
ATOM     19  H3  UNL     1      35.713 -16.445 -23.703  0.00  0.00    -0.088 HD
ENDBRANCH  15  16
BRANCH  15  21
ATOM     20  OXT UNL     1      34.991 -16.220 -20.306  0.00  0.00    -0.253 OA
ATOM     21  C   UNL     1      34.995 -16.368 -21.521  0.00  0.00    +0.293 C 
BRANCH  21  22
ATOM     22  O   UNL     1      34.963 -15.324 -22.390  0.00  0.00    -0.482 OA
ATOM     23  H   UNL     1      35.728 -15.101 -22.883  0.00  0.00    +0.295 HD
ENDBRANCH  21  22
ENDBRANCH  15  21
ENDBRANCH  14  15
ENDBRANCH   1  14
TORSDOF 8
ENDMDL
MODEL 3
REMARK VINA RESULT:      -7.8      4.247      7.465
REMARK  Name = 46936944
REMARK  8 active torsions:
REMARK  status: ('A' for Active; 'I' for Inactive)
REMARK    1  A    between atoms: C_1  and  C_14
REMARK    2  A    between atoms: C_2  and  C_7
REMARK    3  A    between atoms: C_7  and  N_8
REMARK    4  A    between atoms: N_8  and  C_11
REMARK    5  A    between atoms: C_14  and  CA_15
REMARK    6  A    between atoms: CA_15  and  N_16
REMARK    7  A    between atoms: CA_15  and  C_21
REMARK    8  A    between atoms: C_21  and  O_22
REMARK                            x       y       z     vdW  Elec       q    Type
REMARK                         _______ _______ _______ _____ _____    ______ ____
ROOT
ATOM      1  C   UNL     1      34.118 -22.073 -19.227  0.00  0.00    -0.024 C 
ATOM      2  C   UNL     1      34.993 -19.878 -20.708  0.00  0.00    -0.044 C 
ATOM      3  C   UNL     1      35.484 -21.850 -19.402  0.00  0.00    -0.005 C 
ATOM      4  C   UNL     1      33.190 -21.199 -19.792  0.00  0.00    -0.005 C 
ATOM      5  C   UNL     1      35.922 -20.753 -20.143  0.00  0.00    -0.007 C 
ATOM      6  C   UNL     1      33.628 -20.102 -20.533  0.00  0.00    -0.007 C 
ENDROOT
BRANCH   2   7
ATOM      7  C   UNL     1      35.462 -18.706 -21.504  0.00  0.00    -0.054 C 
BRANCH   7   8
ATOM      8  N   UNL     1      35.363 -17.451 -20.758  0.00  0.00    +0.388 N 
ATOM      9  H   UNL     1      34.968 -17.638 -19.838  0.00  0.00    -0.084 HD
ATOM     10  H   UNL     1      36.297 -17.049 -20.668  0.00  0.00    -0.084 HD
BRANCH   8  11
ATOM     11  C   UNL     1      34.512 -16.503 -21.460  0.00  0.00    -0.062 C 
ATOM     12  C   UNL     1      35.034 -16.269 -22.875  0.00  0.00    -0.023 C 
ATOM     13  C   UNL     1      34.453 -15.196 -20.675  0.00  0.00    -0.023 C 
ENDBRANCH   8  11
ENDBRANCH   7   8
ENDBRANCH   2   7
BRANCH   1  14
ATOM     14  C   UNL     1      33.644 -23.263 -18.423  0.00  0.00    +0.015 C 
BRANCH  14  15
ATOM     15  CA  UNL     1      33.430 -22.933 -16.939  0.00  0.00    +0.040 C 
BRANCH  15  16
ATOM     16  N   UNL     1      34.220 -23.842 -16.111  0.00  0.00    +0.389 N 
ATOM     17  H1  UNL     1      33.804 -24.773 -16.137  0.00  0.00    -0.088 HD
ATOM     18  H2  UNL     1      34.232 -23.503 -15.149  0.00  0.00    -0.088 HD
ATOM     19  H3  UNL     1      35.174 -23.885 -16.470  0.00  0.00    -0.088 HD
ENDBRANCH  15  16
BRANCH  15  21
ATOM     20  OXT UNL     1      31.020 -22.609 -17.086  0.00  0.00    -0.253 OA
ATOM     21  C   UNL     1      31.981 -23.110 -16.516  0.00  0.00    +0.293 C 
BRANCH  21  22
ATOM     22  O   UNL     1      31.854 -23.927 -15.438  0.00  0.00    -0.482 OA
ATOM     23  H   UNL     1      31.109 -23.847 -14.876  0.00  0.00    +0.295 HD
ENDBRANCH  21  22
ENDBRANCH  15  21
ENDBRANCH  14  15
ENDBRANCH   1  14
TORSDOF 8
ENDMDL
MODEL 4
REMARK VINA RESULT:      -7.5      1.339      1.832
REMARK  Name = 46936944
REMARK  8 active torsions:
REMARK  status: ('A' for Active; 'I' for Inactive)
REMARK    1  A    between atoms: C_1  and  C_14
REMARK    2  A    between atoms: C_2  and  C_7
REMARK    3  A    between atoms: C_7  and  N_8
REMARK    4  A    between atoms: N_8  and  C_11
REMARK    5  A    between atoms: C_14  and  CA_15
REMARK    6  A    between atoms: CA_15  and  N_16
REMARK    7  A    between atoms: CA_15  and  C_21
REMARK    8  A    between atoms: C_21  and  O_22
REMARK                            x       y       z     vdW  Elec       q    Type
REMARK                         _______ _______ _______ _____ _____    ______ ____
ROOT
ATOM      1  C   UNL     1      34.427 -19.472 -21.454  0.00  0.00    -0.024 C 
ATOM      2  C   UNL     1      34.516 -21.405 -19.445  0.00  0.00    -0.044 C 
ATOM      3  C   UNL     1      35.655 -19.974 -21.024  0.00  0.00    -0.005 C 
ATOM      4  C   UNL     1      33.243 -19.936 -20.880  0.00  0.00    -0.005 C 
ATOM      5  C   UNL     1      35.700 -20.941 -20.020  0.00  0.00    -0.007 C 
ATOM      6  C   UNL     1      33.288 -20.902 -19.875  0.00  0.00    -0.007 C 
ENDROOT
BRANCH   2   7
ATOM      7  C   UNL     1      34.565 -22.436 -18.368  0.00  0.00    -0.054 C 
BRANCH   7   8
ATOM      8  N   UNL     1      33.330 -23.217 -18.288  0.00  0.00    +0.388 N 
ATOM      9  H   UNL     1      32.555 -22.656 -18.639  0.00  0.00    -0.084 HD
ATOM     10  H   UNL     1      33.439 -24.061 -18.849  0.00  0.00    -0.084 HD
BRANCH   8  11
ATOM     11  C   UNL     1      33.055 -23.602 -16.912  0.00  0.00    -0.062 C 
ATOM     12  C   UNL     1      31.717 -23.026 -16.458  0.00  0.00    -0.023 C 
ATOM     13  C   UNL     1      34.191 -23.124 -16.014  0.00  0.00    -0.023 C 
ENDBRANCH   8  11
ENDBRANCH   7   8
ENDBRANCH   2   7
BRANCH   1  14
ATOM     14  C   UNL     1      34.378 -18.424 -22.544  0.00  0.00    +0.015 C 
BRANCH  14  15
ATOM     15  CA  UNL     1      35.200 -17.172 -22.203  0.00  0.00    +0.040 C 
BRANCH  15  16
ATOM     16  N   UNL     1      34.731 -16.602 -20.942  0.00  0.00    +0.389 N 
ATOM     17  H1  UNL     1      34.749 -15.583 -21.002  0.00  0.00    -0.088 HD
ATOM     18  H2  UNL     1      35.340 -16.908 -20.183  0.00  0.00    -0.088 HD
ATOM     19  H3  UNL     1      33.777 -16.914 -20.761  0.00  0.00    -0.088 HD
ENDBRANCH  15  16
BRANCH  15  21
ATOM     20  OXT UNL     1      35.034 -16.277 -24.462  0.00  0.00    -0.253 OA
ATOM     21  C   UNL     1      35.048 -16.085 -23.253  0.00  0.00    +0.293 C 
BRANCH  21  22
ATOM     22  O   UNL     1      34.891 -14.853 -22.702  0.00  0.00    -0.482 OA
ATOM     23  H   UNL     1      34.873 -14.094 -23.251  0.00  0.00    +0.295 HD
ENDBRANCH  21  22
ENDBRANCH  15  21
ENDBRANCH  14  15
ENDBRANCH   1  14
TORSDOF 8
ENDMDL
MODEL 5
REMARK VINA RESULT:      -7.5      5.180      8.144
REMARK  Name = 46936944
REMARK  8 active torsions:
REMARK  status: ('A' for Active; 'I' for Inactive)
REMARK    1  A    between atoms: C_1  and  C_14
REMARK    2  A    between atoms: C_2  and  C_7
REMARK    3  A    between atoms: C_7  and  N_8
REMARK    4  A    between atoms: N_8  and  C_11
REMARK    5  A    between atoms: C_14  and  CA_15
REMARK    6  A    between atoms: CA_15  and  N_16
REMARK    7  A    between atoms: CA_15  and  C_21
REMARK    8  A    between atoms: C_21  and  O_22
REMARK                            x       y       z     vdW  Elec       q    Type
REMARK                         _______ _______ _______ _____ _____    ______ ____
ROOT
ATOM      1  C   UNL     1      35.682 -22.764 -16.440  0.00  0.00    -0.024 C 
ATOM      2  C   UNL     1      35.513 -21.689 -19.008  0.00  0.00    -0.044 C 
ATOM      3  C   UNL     1      34.517 -22.929 -17.190  0.00  0.00    -0.005 C 
ATOM      4  C   UNL     1      36.762 -22.061 -16.974  0.00  0.00    -0.005 C 
ATOM      5  C   UNL     1      34.433 -22.392 -18.474  0.00  0.00    -0.007 C 
ATOM      6  C   UNL     1      36.677 -21.523 -18.258  0.00  0.00    -0.007 C 
ENDROOT
BRANCH   2   7
ATOM      7  C   UNL     1      35.420 -21.110 -20.380  0.00  0.00    -0.054 C 
BRANCH   7   8
ATOM      8  N   UNL     1      35.425 -19.647 -20.369  0.00  0.00    +0.388 N 
ATOM      9  H   UNL     1      35.332 -19.318 -19.409  0.00  0.00    -0.084 HD
ATOM     10  H   UNL     1      36.303 -19.319 -20.772  0.00  0.00    -0.084 HD
BRANCH   8  11
ATOM     11  C   UNL     1      34.323 -19.124 -21.162  0.00  0.00    -0.062 C 
ATOM     12  C   UNL     1      33.024 -19.837 -20.798  0.00  0.00    -0.023 C 
ATOM     13  C   UNL     1      34.642 -19.289 -22.645  0.00  0.00    -0.023 C 
ENDBRANCH   8  11
ENDBRANCH   7   8
ENDBRANCH   2   7
BRANCH   1  14
ATOM     14  C   UNL     1      35.773 -23.346 -15.048  0.00  0.00    +0.015 C 
BRANCH  14  15
ATOM     15  CA  UNL     1      36.659 -24.600 -14.984  0.00  0.00    +0.040 C 
BRANCH  15  16
ATOM     16  N   UNL     1      36.050 -25.590 -14.098  0.00  0.00    +0.389 N 
ATOM     17  H1  UNL     1      36.666 -26.400 -14.020  0.00  0.00    -0.088 HD
ATOM     18  H2  UNL     1      35.152 -25.883 -14.481  0.00  0.00    -0.088 HD
ATOM     19  H3  UNL     1      35.910 -25.180 -13.175  0.00  0.00    -0.088 HD
ENDBRANCH  15  16
BRANCH  15  21
ATOM     20  OXT UNL     1      38.278 -24.110 -13.231  0.00  0.00    -0.253 OA
ATOM     21  C   UNL     1      38.036 -24.299 -14.416  0.00  0.00    +0.293 C 
BRANCH  21  22
ATOM     22  O   UNL     1      39.000 -24.295 -15.374  0.00  0.00    -0.482 OA
ATOM     23  H   UNL     1      38.765 -24.173 -16.272  0.00  0.00    +0.295 HD
ENDBRANCH  21  22
ENDBRANCH  15  21
ENDBRANCH  14  15
ENDBRANCH   1  14
TORSDOF 8
ENDMDL
MODEL 6
REMARK VINA RESULT:      -7.5      2.000      2.543
REMARK  Name = 46936944
REMARK  8 active torsions:
REMARK  status: ('A' for Active; 'I' for Inactive)
REMARK    1  A    between atoms: C_1  and  C_14
REMARK    2  A    between atoms: C_2  and  C_7
REMARK    3  A    between atoms: C_7  and  N_8
REMARK    4  A    between atoms: N_8  and  C_11
REMARK    5  A    between atoms: C_14  and  CA_15
REMARK    6  A    between atoms: CA_15  and  N_16
REMARK    7  A    between atoms: CA_15  and  C_21
REMARK    8  A    between atoms: C_21  and  O_22
REMARK                            x       y       z     vdW  Elec       q    Type
REMARK                         _______ _______ _______ _____ _____    ______ ____
ROOT
ATOM      1  C   UNL     1      34.539 -18.793 -21.412  0.00  0.00    -0.024 C 
ATOM      2  C   UNL     1      35.069 -20.960 -19.738  0.00  0.00    -0.044 C 
ATOM      3  C   UNL     1      33.486 -19.541 -20.885  0.00  0.00    -0.005 C 
ATOM      4  C   UNL     1      35.857 -19.128 -21.102  0.00  0.00    -0.005 C 
ATOM      5  C   UNL     1      33.751 -20.624 -20.048  0.00  0.00    -0.007 C 
ATOM      6  C   UNL     1      36.122 -20.212 -20.266  0.00  0.00    -0.007 C 
ENDROOT
BRANCH   2   7
ATOM      7  C   UNL     1      35.352 -22.122 -18.846  0.00  0.00    -0.054 C 
BRANCH   7   8
ATOM      8  N   UNL     1      36.605 -21.964 -18.107  0.00  0.00    +0.388 N 
ATOM      9  H   UNL     1      37.263 -22.683 -18.405  0.00  0.00    -0.084 HD
ATOM     10  H   UNL     1      36.984 -21.036 -18.298  0.00  0.00    -0.084 HD
BRANCH   8  11
ATOM     11  C   UNL     1      36.376 -22.090 -16.676  0.00  0.00    -0.062 C 
ATOM     12  C   UNL     1      37.604 -22.688 -15.994  0.00  0.00    -0.023 C 
ATOM     13  C   UNL     1      35.140 -22.951 -16.434  0.00  0.00    -0.023 C 
ENDBRANCH   8  11
ENDBRANCH   7   8
ENDBRANCH   2   7
BRANCH   1  14
ATOM     14  C   UNL     1      34.251 -17.618 -22.320  0.00  0.00    +0.015 C 
BRANCH  14  15
ATOM     15  CA  UNL     1      35.183 -17.566 -23.540  0.00  0.00    +0.040 C 
BRANCH  15  16
ATOM     16  N   UNL     1      35.340 -16.182 -23.983  0.00  0.00    +0.389 N 
ATOM     17  H1  UNL     1      35.829 -16.165 -24.879  0.00  0.00    -0.088 HD
ATOM     18  H2  UNL     1      35.879 -15.662 -23.292  0.00  0.00    -0.088 HD
ATOM     19  H3  UNL     1      34.420 -15.753 -24.091  0.00  0.00    -0.088 HD
ENDBRANCH  15  16
BRANCH  15  21
ATOM     20  OXT UNL     1      34.646 -19.557 -24.836  0.00  0.00    -0.253 OA
ATOM     21  C   UNL     1      34.621 -18.338 -24.722  0.00  0.00    +0.293 C 
BRANCH  21  22
ATOM     22  O   UNL     1      34.044 -17.524 -25.644  0.00  0.00    -0.482 OA
ATOM     23  H   UNL     1      33.165 -17.227 -25.521  0.00  0.00    +0.295 HD
ENDBRANCH  21  22
ENDBRANCH  15  21
ENDBRANCH  14  15
ENDBRANCH   1  14
TORSDOF 8
ENDMDL
MODEL 7
REMARK VINA RESULT:      -7.5      3.702      7.670
REMARK  Name = 46936944
REMARK  8 active torsions:
REMARK  status: ('A' for Active; 'I' for Inactive)
REMARK    1  A    between atoms: C_1  and  C_14
REMARK    2  A    between atoms: C_2  and  C_7
REMARK    3  A    between atoms: C_7  and  N_8
REMARK    4  A    between atoms: N_8  and  C_11
REMARK    5  A    between atoms: C_14  and  CA_15
REMARK    6  A    between atoms: CA_15  and  N_16
REMARK    7  A    between atoms: CA_15  and  C_21
REMARK    8  A    between atoms: C_21  and  O_22
REMARK                            x       y       z     vdW  Elec       q    Type
REMARK                         _______ _______ _______ _____ _____    ______ ____
ROOT
ATOM      1  C   UNL     1      35.002 -19.133 -21.420  0.00  0.00    -0.024 C 
ATOM      2  C   UNL     1      34.776 -17.046 -23.256  0.00  0.00    -0.044 C 
ATOM      3  C   UNL     1      34.822 -19.413 -22.775  0.00  0.00    -0.005 C 
ATOM      4  C   UNL     1      35.069 -17.810 -20.983  0.00  0.00    -0.005 C 
ATOM      5  C   UNL     1      34.709 -18.369 -23.693  0.00  0.00    -0.007 C 
ATOM      6  C   UNL     1      34.955 -16.767 -21.901  0.00  0.00    -0.007 C 
ENDROOT
BRANCH   2   7
ATOM      7  C   UNL     1      34.650 -15.929 -24.238  0.00  0.00    -0.054 C 
BRANCH   7   8
ATOM      8  N   UNL     1      34.314 -14.657 -23.596  0.00  0.00    +0.388 N 
ATOM      9  H   UNL     1      33.982 -14.837 -22.649  0.00  0.00    -0.084 HD
ATOM     10  H   UNL     1      35.149 -14.072 -23.572  0.00  0.00    -0.084 HD
BRANCH   8  11
ATOM     11  C   UNL     1      33.277 -13.964 -24.343  0.00  0.00    -0.062 C 
ATOM     12  C   UNL     1      33.027 -14.664 -25.676  0.00  0.00    -0.023 C 
ATOM     13  C   UNL     1      33.691 -12.511 -24.556  0.00  0.00    -0.023 C 
ENDBRANCH   8  11
ENDBRANCH   7   8
ENDBRANCH   2   7
BRANCH   1  14
ATOM     14  C   UNL     1      35.125 -20.265 -20.425  0.00  0.00    +0.015 C 
BRANCH  14  15
ATOM     15  CA  UNL     1      33.841 -21.101 -20.311  0.00  0.00    +0.040 C 
BRANCH  15  16
ATOM     16  N   UNL     1      32.706 -20.227 -20.025  0.00  0.00    +0.389 N 
ATOM     17  H1  UNL     1      31.925 -20.472 -20.634  0.00  0.00    -0.088 HD
ATOM     18  H2  UNL     1      32.973 -19.256 -20.189  0.00  0.00    -0.088 HD
ATOM     19  H3  UNL     1      32.425 -20.343 -19.051  0.00  0.00    -0.088 HD
ENDBRANCH  15  16
BRANCH  15  21
ATOM     20  OXT UNL     1      34.938 -22.645 -18.780  0.00  0.00    -0.253 OA
ATOM     21  C   UNL     1      33.912 -22.107 -19.175  0.00  0.00    +0.293 C 
BRANCH  21  22
ATOM     22  O   UNL     1      32.698 -22.330 -18.606  0.00  0.00    -0.482 OA
ATOM     23  H   UNL     1      32.629 -22.877 -17.850  0.00  0.00    +0.295 HD
ENDBRANCH  21  22
ENDBRANCH  15  21
ENDBRANCH  14  15
ENDBRANCH   1  14
TORSDOF 8
ENDMDL
MODEL 8
REMARK VINA RESULT:      -7.5      5.630      8.702
REMARK  Name = 46936944
REMARK  8 active torsions:
REMARK  status: ('A' for Active; 'I' for Inactive)
REMARK    1  A    between atoms: C_1  and  C_14
REMARK    2  A    between atoms: C_2  and  C_7
REMARK    3  A    between atoms: C_7  and  N_8
REMARK    4  A    between atoms: N_8  and  C_11
REMARK    5  A    between atoms: C_14  and  CA_15
REMARK    6  A    between atoms: CA_15  and  N_16
REMARK    7  A    between atoms: CA_15  and  C_21
REMARK    8  A    between atoms: C_21  and  O_22
REMARK                            x       y       z     vdW  Elec       q    Type
REMARK                         _______ _______ _______ _____ _____    ______ ____
ROOT
ATOM      1  C   UNL     1      36.360 -23.157 -15.753  0.00  0.00    -0.024 C 
ATOM      2  C   UNL     1      35.416 -22.035 -18.125  0.00  0.00    -0.044 C 
ATOM      3  C   UNL     1      35.035 -23.358 -16.140  0.00  0.00    -0.005 C 
ATOM      4  C   UNL     1      37.213 -22.395 -16.552  0.00  0.00    -0.005 C 
ATOM      5  C   UNL     1      34.563 -22.798 -17.327  0.00  0.00    -0.007 C 
ATOM      6  C   UNL     1      36.740 -21.834 -17.737  0.00  0.00    -0.007 C 
ENDROOT
BRANCH   2   7
ATOM      7  C   UNL     1      34.909 -21.432 -19.392  0.00  0.00    -0.054 C 
BRANCH   7   8
ATOM      8  N   UNL     1      35.791 -20.381 -19.902  0.00  0.00    +0.388 N 
ATOM      9  H   UNL     1      35.947 -19.690 -19.169  0.00  0.00    -0.084 HD
ATOM     10  H   UNL     1      36.676 -20.805 -20.183  0.00  0.00    -0.084 HD
BRANCH   8  11
ATOM     11  C   UNL     1      35.198 -19.728 -21.058  0.00  0.00    -0.062 C 
ATOM     12  C   UNL     1      35.693 -18.288 -21.164  0.00  0.00    -0.023 C 
ATOM     13  C   UNL     1      33.678 -19.778 -20.944  0.00  0.00    -0.023 C 
ENDBRANCH   8  11
ENDBRANCH   7   8
ENDBRANCH   2   7
BRANCH   1  14
ATOM     14  C   UNL     1      36.872 -23.765 -14.467  0.00  0.00    +0.015 C 
BRANCH  14  15
ATOM     15  CA  UNL     1      36.345 -25.189 -14.229  0.00  0.00    +0.040 C 
BRANCH  15  16
ATOM     16  N   UNL     1      36.381 -25.497 -12.802  0.00  0.00    +0.389 N 
ATOM     17  H1  UNL     1      35.485 -25.255 -12.379  0.00  0.00    -0.088 HD
ATOM     18  H2  UNL     1      37.124 -24.959 -12.356  0.00  0.00    -0.088 HD
ATOM     19  H3  UNL     1      36.559 -26.494 -12.674  0.00  0.00    -0.088 HD
ENDBRANCH  15  16
BRANCH  15  21
ATOM     20  OXT UNL     1      38.319 -26.577 -14.563  0.00  0.00    -0.253 OA
ATOM     21  C   UNL     1      37.198 -26.238 -14.922  0.00  0.00    +0.293 C 
BRANCH  21  22
ATOM     22  O   UNL     1      36.565 -26.799 -15.985  0.00  0.00    -0.482 OA
ATOM     23  H   UNL     1      36.312 -26.268 -16.713  0.00  0.00    +0.295 HD
ENDBRANCH  21  22
ENDBRANCH  15  21
ENDBRANCH  14  15
ENDBRANCH   1  14
TORSDOF 8
ENDMDL
MODEL 9
REMARK VINA RESULT:      -7.4      3.608      5.405
REMARK  Name = 46936944
REMARK  8 active torsions:
REMARK  status: ('A' for Active; 'I' for Inactive)
REMARK    1  A    between atoms: C_1  and  C_14
REMARK    2  A    between atoms: C_2  and  C_7
REMARK    3  A    between atoms: C_7  and  N_8
REMARK    4  A    between atoms: N_8  and  C_11
REMARK    5  A    between atoms: C_14  and  CA_15
REMARK    6  A    between atoms: CA_15  and  N_16
REMARK    7  A    between atoms: CA_15  and  C_21
REMARK    8  A    between atoms: C_21  and  O_22
REMARK                            x       y       z     vdW  Elec       q    Type
REMARK                         _______ _______ _______ _____ _____    ______ ____
ROOT
ATOM      1  C   UNL     1      34.044 -15.181 -23.575  0.00  0.00    -0.024 C 
ATOM      2  C   UNL     1      35.276 -17.427 -22.473  0.00  0.00    -0.044 C 
ATOM      3  C   UNL     1      34.371 -16.267 -24.388  0.00  0.00    -0.005 C 
ATOM      4  C   UNL     1      34.333 -15.219 -22.210  0.00  0.00    -0.005 C 
ATOM      5  C   UNL     1      34.987 -17.390 -23.837  0.00  0.00    -0.007 C 
ATOM      6  C   UNL     1      34.950 -16.342 -21.660  0.00  0.00    -0.007 C 
ENDROOT
BRANCH   2   7
ATOM      7  C   UNL     1      35.939 -18.628 -21.885  0.00  0.00    -0.054 C 
BRANCH   7   8
ATOM      8  N   UNL     1      35.349 -19.019 -20.604  0.00  0.00    +0.388 N 
ATOM      9  H   UNL     1      36.094 -19.201 -19.933  0.00  0.00    -0.084 HD
ATOM     10  H   UNL     1      34.751 -18.261 -20.273  0.00  0.00    -0.084 HD
BRANCH   8  11
ATOM     11  C   UNL     1      34.540 -20.219 -20.757  0.00  0.00    -0.062 C 
ATOM     12  C   UNL     1      33.057 -19.873 -20.659  0.00  0.00    -0.023 C 
ATOM     13  C   UNL     1      34.938 -21.237 -19.693  0.00  0.00    -0.023 C 
ENDBRANCH   8  11
ENDBRANCH   7   8
ENDBRANCH   2   7
BRANCH   1  14
ATOM     14  C   UNL     1      33.376 -13.963 -24.172  0.00  0.00    +0.015 C 
BRANCH  14  15
ATOM     15  CA  UNL     1      33.219 -12.815 -23.164  0.00  0.00    +0.040 C 
BRANCH  15  16
ATOM     16  N   UNL     1      31.846 -12.777 -22.667  0.00  0.00    +0.389 N 
ATOM     17  H1  UNL     1      31.481 -11.827 -22.746  0.00  0.00    -0.088 HD
ATOM     18  H2  UNL     1      31.829 -13.067 -21.689  0.00  0.00    -0.088 HD
ATOM     19  H3  UNL     1      31.267 -13.410 -23.219  0.00  0.00    -0.088 HD
ENDBRANCH  15  16
BRANCH  15  21
ATOM     20  OXT UNL     1      32.837 -10.445 -23.581  0.00  0.00    -0.253 OA
ATOM     21  C   UNL     1      33.490 -11.459 -23.794  0.00  0.00    +0.293 C 
BRANCH  21  22
ATOM     22  O   UNL     1      34.575 -11.477 -24.611  0.00  0.00    -0.482 OA
ATOM     23  H   UNL     1      34.664 -12.151 -25.256  0.00  0.00    +0.295 HD
ENDBRANCH  21  22
ENDBRANCH  15  21
ENDBRANCH  14  15
ENDBRANCH   1  14
TORSDOF 8
ENDMDL
