MODEL 1
REMARK VINA RESULT:      -7.7      0.000      0.000
REMARK  Name = 6971029
REMARK  6 active torsions:
REMARK  status: ('A' for Active; 'I' for Inactive)
REMARK    1  A    between atoms: C_2  and  C_3
REMARK    2  A    between atoms: C_2  and  C_12
REMARK    3  A    between atoms: C_4  and  N_9
REMARK    4  A    between atoms: C_12  and  CA_13
REMARK    5  A    between atoms: CA_13  and  N_14
REMARK    6  A    between atoms: CA_13  and  C_20
REMARK                            x       y       z     vdW  Elec       q    Type
REMARK                         _______ _______ _______ _____ _____    ______ ____
ROOT
ATOM      1  O   UNL     1      34.572 -19.365 -22.827  0.00  0.00    -0.291 OA
ATOM      2  C   UNL     1      34.905 -19.101 -21.674  0.00  0.00    +0.173 C 
ENDROOT
BRANCH   2   3
ATOM      3  C   UNL     1      34.852 -20.174 -20.639  0.00  0.00    +0.048 C 
ATOM      4  C   UNL     1      33.637 -20.673 -20.223  0.00  0.00    +0.044 C 
ATOM      5  C   UNL     1      36.051 -20.628 -20.134  0.00  0.00    +0.004 C 
ATOM      6  C   UNL     1      33.620 -21.677 -19.254  0.00  0.00    +0.014 C 
ATOM      7  C   UNL     1      36.034 -21.631 -19.164  0.00  0.00    +0.000 C 
ATOM      8  C   UNL     1      34.819 -22.155 -18.724  0.00  0.00    +0.001 C 
BRANCH   4   9
ATOM      9  N   UNL     1      32.412 -20.202 -20.745  0.00  0.00    -0.357 N 
ATOM     10  H   UNL     1      31.860 -19.578 -20.220  0.00  0.00    +0.142 HD
ATOM     11  H   UNL     1      32.110 -20.497 -21.635  0.00  0.00    +0.142 HD
ENDBRANCH   4   9
ENDBRANCH   2   3
BRANCH   2  12
ATOM     12  C   UNL     1      35.356 -17.706 -21.258  0.00  0.00    +0.058 C 
BRANCH  12  13
ATOM     13  CA  UNL     1      34.742 -16.601 -22.124  0.00  0.00    +0.048 C 
BRANCH  13  14
ATOM     14  N   UNL     1      35.550 -16.552 -23.385  0.00  0.00    +0.389 N 
ATOM     15  H1  UNL     1      36.397 -16.005 -23.225  0.00  0.00    -0.088 HD
ATOM     16  H2  UNL     1      35.000 -16.117 -24.126  0.00  0.00    -0.088 HD
ATOM     17  H3  UNL     1      35.806 -17.499 -23.664  0.00  0.00    -0.088 HD
ENDBRANCH  13  14
BRANCH  13  20
ATOM     18  O   UNL     1      34.858 -15.210 -20.221  0.00  0.00    -0.248 OA
ATOM     19  OXT UNL     1      34.373 -14.245 -22.233  0.00  0.00    -0.248 OA
ATOM     20  C   UNL     1      34.645 -15.211 -21.468  0.00  0.00    +0.345 C 
ENDBRANCH  13  20
ENDBRANCH  12  13
ENDBRANCH   2  12
TORSDOF 6
ENDMDL
MODEL 2
REMARK VINA RESULT:      -7.6      2.723      5.754
REMARK  Name = 6971029
REMARK  6 active torsions:
REMARK  status: ('A' for Active; 'I' for Inactive)
REMARK    1  A    between atoms: C_2  and  C_3
REMARK    2  A    between atoms: C_2  and  C_12
REMARK    3  A    between atoms: C_4  and  N_9
REMARK    4  A    between atoms: C_12  and  CA_13
REMARK    5  A    between atoms: CA_13  and  N_14
REMARK    6  A    between atoms: CA_13  and  C_20
REMARK                            x       y       z     vdW  Elec       q    Type
REMARK                         _______ _______ _______ _____ _____    ______ ____
ROOT
ATOM      1  O   UNL     1      36.109 -18.873 -20.418  0.00  0.00    -0.291 OA
ATOM      2  C   UNL     1      35.114 -19.145 -21.086  0.00  0.00    +0.173 C 
ENDROOT
BRANCH   2   3
ATOM      3  C   UNL     1      34.917 -18.474 -22.403  0.00  0.00    +0.048 C 
ATOM      4  C   UNL     1      34.841 -17.100 -22.473  0.00  0.00    +0.044 C 
ATOM      5  C   UNL     1      34.817 -19.279 -23.517  0.00  0.00    +0.004 C 
ATOM      6  C   UNL     1      34.656 -16.501 -23.720  0.00  0.00    +0.014 C 
ATOM      7  C   UNL     1      34.631 -18.680 -24.763  0.00  0.00    +0.000 C 
ATOM      8  C   UNL     1      34.551 -17.291 -24.865  0.00  0.00    +0.001 C 
BRANCH   4   9
ATOM      9  N   UNL     1      34.944 -16.282 -21.326  0.00  0.00    -0.357 N 
ATOM     10  H   UNL     1      34.377 -16.461 -20.541  0.00  0.00    +0.142 HD
ATOM     11  H   UNL     1      35.582 -15.533 -21.311  0.00  0.00    +0.142 HD
ENDBRANCH   4   9
ENDBRANCH   2   3
BRANCH   2  12
ATOM     12  C   UNL     1      34.061 -20.138 -20.607  0.00  0.00    +0.058 C 
BRANCH  12  13
ATOM     13  CA  UNL     1      34.624 -21.171 -19.625  0.00  0.00    +0.048 C 
BRANCH  13  14
ATOM     14  N   UNL     1      35.909 -21.664 -20.217  0.00  0.00    +0.389 N 
ATOM     15  H1  UNL     1      36.695 -21.286 -19.687  0.00  0.00    -0.088 HD
ATOM     16  H2  UNL     1      35.976 -21.358 -21.189  0.00  0.00    -0.088 HD
ATOM     17  H3  UNL     1      35.934 -22.683 -20.180  0.00  0.00    -0.088 HD
ENDBRANCH  13  14
BRANCH  13  20
ATOM     18  O   UNL     1      32.579 -21.988 -18.773  0.00  0.00    -0.248 OA
ATOM     19  OXT UNL     1      34.115 -23.502 -19.522  0.00  0.00    -0.248 OA
ATOM     20  C   UNL     1      33.686 -22.341 -19.273  0.00  0.00    +0.345 C 
ENDBRANCH  13  20
ENDBRANCH  12  13
ENDBRANCH   2  12
TORSDOF 6
ENDMDL
MODEL 3
REMARK VINA RESULT:      -7.5      2.223      2.831
REMARK  Name = 6971029
REMARK  6 active torsions:
REMARK  status: ('A' for Active; 'I' for Inactive)
REMARK    1  A    between atoms: C_2  and  C_3
REMARK    2  A    between atoms: C_2  and  C_12
REMARK    3  A    between atoms: C_4  and  N_9
REMARK    4  A    between atoms: C_12  and  CA_13
REMARK    5  A    between atoms: CA_13  and  N_14
REMARK    6  A    between atoms: CA_13  and  C_20
REMARK                            x       y       z     vdW  Elec       q    Type
REMARK                         _______ _______ _______ _____ _____    ______ ____
ROOT
ATOM      1  O   UNL     1      35.384 -17.305 -20.733  0.00  0.00    -0.291 OA
ATOM      2  C   UNL     1      35.272 -18.340 -21.386  0.00  0.00    +0.173 C 
ENDROOT
BRANCH   2   3
ATOM      3  C   UNL     1      34.703 -19.554 -20.733  0.00  0.00    +0.048 C 
ATOM      4  C   UNL     1      35.528 -20.426 -20.057  0.00  0.00    +0.044 C 
ATOM      5  C   UNL     1      33.343 -19.753 -20.838  0.00  0.00    +0.004 C 
ATOM      6  C   UNL     1      34.966 -21.552 -19.455  0.00  0.00    +0.014 C 
ATOM      7  C   UNL     1      32.781 -20.880 -20.238  0.00  0.00    +0.000 C 
ATOM      8  C   UNL     1      33.592 -21.779 -19.547  0.00  0.00    +0.001 C 
BRANCH   4   9
ATOM      9  N   UNL     1      36.921 -20.215 -19.953  0.00  0.00    -0.357 N 
ATOM     10  H   UNL     1      37.320 -19.383 -20.297  0.00  0.00    +0.142 HD
ATOM     11  H   UNL     1      37.493 -20.899 -19.537  0.00  0.00    +0.142 HD
ENDBRANCH   4   9
ENDBRANCH   2   3
BRANCH   2  12
ATOM     12  C   UNL     1      35.711 -18.431 -22.843  0.00  0.00    +0.058 C 
BRANCH  12  13
ATOM     13  CA  UNL     1      34.628 -17.959 -23.819  0.00  0.00    +0.048 C 
BRANCH  13  14
ATOM     14  N   UNL     1      34.437 -19.067 -24.810  0.00  0.00    +0.389 N 
ATOM     15  H1  UNL     1      34.307 -19.949 -24.313  0.00  0.00    -0.088 HD
ATOM     16  H2  UNL     1      35.259 -19.132 -25.411  0.00  0.00    -0.088 HD
ATOM     17  H3  UNL     1      33.613 -18.875 -25.381  0.00  0.00    -0.088 HD
ENDBRANCH  13  14
BRANCH  13  20
ATOM     18  O   UNL     1      35.219 -15.674 -23.745  0.00  0.00    -0.248 OA
ATOM     19  OXT UNL     1      34.789 -16.610 -25.782  0.00  0.00    -0.248 OA
ATOM     20  C   UNL     1      34.903 -16.618 -24.525  0.00  0.00    +0.345 C 
ENDBRANCH  13  20
ENDBRANCH  12  13
ENDBRANCH   2  12
TORSDOF 6
ENDMDL
MODEL 4
REMARK VINA RESULT:      -7.4      1.890      2.274
REMARK  Name = 6971029
REMARK  6 active torsions:
REMARK  status: ('A' for Active; 'I' for Inactive)
REMARK    1  A    between atoms: C_2  and  C_3
REMARK    2  A    between atoms: C_2  and  C_12
REMARK    3  A    between atoms: C_4  and  N_9
REMARK    4  A    between atoms: C_12  and  CA_13
REMARK    5  A    between atoms: CA_13  and  N_14
REMARK    6  A    between atoms: CA_13  and  C_20
REMARK                            x       y       z     vdW  Elec       q    Type
REMARK                         _______ _______ _______ _____ _____    ______ ____
ROOT
ATOM      1  O   UNL     1      34.176 -17.626 -21.061  0.00  0.00    -0.291 OA
ATOM      2  C   UNL     1      34.776 -18.605 -21.498  0.00  0.00    +0.173 C 
ENDROOT
BRANCH   2   3
ATOM      3  C   UNL     1      34.877 -19.831 -20.654  0.00  0.00    +0.048 C 
ATOM      4  C   UNL     1      33.736 -20.499 -20.267  0.00  0.00    +0.044 C 
ATOM      5  C   UNL     1      36.139 -20.250 -20.291  0.00  0.00    +0.004 C 
ATOM      6  C   UNL     1      33.863 -21.643 -19.479  0.00  0.00    +0.014 C 
ATOM      7  C   UNL     1      36.266 -21.393 -19.502  0.00  0.00    +0.000 C 
ATOM      8  C   UNL     1      35.128 -22.090 -19.096  0.00  0.00    +0.001 C 
BRANCH   4   9
ATOM      9  N   UNL     1      32.446 -20.063 -20.643  0.00  0.00    -0.357 N 
ATOM     10  H   UNL     1      31.686 -20.688 -20.608  0.00  0.00    +0.142 HD
ATOM     11  H   UNL     1      32.306 -19.135 -20.939  0.00  0.00    +0.142 HD
ENDBRANCH   4   9
ENDBRANCH   2   3
BRANCH   2  12
ATOM     12  C   UNL     1      35.438 -18.606 -22.871  0.00  0.00    +0.058 C 
BRANCH  12  13
ATOM     13  CA  UNL     1      34.520 -18.066 -23.972  0.00  0.00    +0.048 C 
BRANCH  13  14
ATOM     14  N   UNL     1      34.474 -19.116 -25.040  0.00  0.00    +0.389 N 
ATOM     15  H1  UNL     1      35.062 -19.904 -24.768  0.00  0.00    -0.088 HD
ATOM     16  H2  UNL     1      34.817 -18.724 -25.918  0.00  0.00    -0.088 HD
ATOM     17  H3  UNL     1      33.514 -19.436 -25.163  0.00  0.00    -0.088 HD
ENDBRANCH  13  14
BRANCH  13  20
ATOM     18  O   UNL     1      34.790 -16.609 -25.810  0.00  0.00    -0.248 OA
ATOM     19  OXT UNL     1      35.290 -15.819 -23.727  0.00  0.00    -0.248 OA
ATOM     20  C   UNL     1      34.908 -16.693 -24.553  0.00  0.00    +0.345 C 
ENDBRANCH  13  20
ENDBRANCH  12  13
ENDBRANCH   2  12
TORSDOF 6
ENDMDL
MODEL 5
REMARK VINA RESULT:      -7.3      2.152      2.939
REMARK  Name = 6971029
REMARK  6 active torsions:
REMARK  status: ('A' for Active; 'I' for Inactive)
REMARK    1  A    between atoms: C_2  and  C_3
REMARK    2  A    between atoms: C_2  and  C_12
REMARK    3  A    between atoms: C_4  and  N_9
REMARK    4  A    between atoms: C_12  and  CA_13
REMARK    5  A    between atoms: CA_13  and  N_14
REMARK    6  A    between atoms: CA_13  and  C_20
REMARK                            x       y       z     vdW  Elec       q    Type
REMARK                         _______ _______ _______ _____ _____    ______ ____
ROOT
ATOM      1  O   UNL     1      35.613 -17.474 -20.822  0.00  0.00    -0.291 OA
ATOM      2  C   UNL     1      35.077 -18.368 -21.473  0.00  0.00    +0.173 C 
ENDROOT
BRANCH   2   3
ATOM      3  C   UNL     1      34.584 -19.586 -20.767  0.00  0.00    +0.048 C 
ATOM      4  C   UNL     1      35.473 -20.419 -20.125  0.00  0.00    +0.044 C 
ATOM      5  C   UNL     1      33.227 -19.828 -20.790  0.00  0.00    +0.004 C 
ATOM      6  C   UNL     1      34.982 -21.551 -19.473  0.00  0.00    +0.014 C 
ATOM      7  C   UNL     1      32.736 -20.959 -20.139  0.00  0.00    +0.000 C 
ATOM      8  C   UNL     1      33.614 -21.821 -19.481  0.00  0.00    +0.001 C 
BRANCH   4   9
ATOM      9  N   UNL     1      36.863 -20.165 -20.106  0.00  0.00    -0.357 N 
ATOM     10  H   UNL     1      37.219 -19.346 -20.521  0.00  0.00    +0.142 HD
ATOM     11  H   UNL     1      37.475 -20.805 -19.678  0.00  0.00    +0.142 HD
ENDBRANCH   4   9
ENDBRANCH   2   3
BRANCH   2  12
ATOM     12  C   UNL     1      34.910 -18.282 -22.986  0.00  0.00    +0.058 C 
BRANCH  12  13
ATOM     13  CA  UNL     1      34.807 -16.839 -23.490  0.00  0.00    +0.048 C 
BRANCH  13  14
ATOM     14  N   UNL     1      33.875 -16.128 -22.556  0.00  0.00    +0.389 N 
ATOM     15  H1  UNL     1      33.306 -15.465 -23.083  0.00  0.00    -0.088 HD
ATOM     16  H2  UNL     1      34.417 -15.627 -21.851  0.00  0.00    -0.088 HD
ATOM     17  H3  UNL     1      33.269 -16.808 -22.097  0.00  0.00    -0.088 HD
ENDBRANCH  13  14
BRANCH  13  20
ATOM     18  O   UNL     1      34.657 -17.650 -25.703  0.00  0.00    -0.248 OA
ATOM     19  OXT UNL     1      33.763 -15.600 -25.244  0.00  0.00    -0.248 OA
ATOM     20  C   UNL     1      34.363 -16.672 -24.956  0.00  0.00    +0.345 C 
ENDBRANCH  13  20
ENDBRANCH  12  13
ENDBRANCH   2  12
TORSDOF 6
ENDMDL
MODEL 6
REMARK VINA RESULT:      -7.1      2.391      5.731
REMARK  Name = 6971029
REMARK  6 active torsions:
REMARK  status: ('A' for Active; 'I' for Inactive)
REMARK    1  A    between atoms: C_2  and  C_3
REMARK    2  A    between atoms: C_2  and  C_12
REMARK    3  A    between atoms: C_4  and  N_9
REMARK    4  A    between atoms: C_12  and  CA_13
REMARK    5  A    between atoms: CA_13  and  N_14
REMARK    6  A    between atoms: CA_13  and  C_20
REMARK                            x       y       z     vdW  Elec       q    Type
REMARK                         _______ _______ _______ _____ _____    ______ ____
ROOT
ATOM      1  O   UNL     1      36.705 -18.965 -20.675  0.00  0.00    -0.291 OA
ATOM      2  C   UNL     1      35.541 -18.768 -21.014  0.00  0.00    +0.173 C 
ENDROOT
BRANCH   2   3
ATOM      3  C   UNL     1      35.159 -17.434 -21.560  0.00  0.00    +0.048 C 
ATOM      4  C   UNL     1      35.239 -17.192 -22.914  0.00  0.00    +0.044 C 
ATOM      5  C   UNL     1      34.731 -16.479 -20.662  0.00  0.00    +0.004 C 
ATOM      6  C   UNL     1      34.874 -15.934 -23.394  0.00  0.00    +0.014 C 
ATOM      7  C   UNL     1      34.367 -15.221 -21.142  0.00  0.00    +0.000 C 
ATOM      8  C   UNL     1      34.438 -14.949 -22.508  0.00  0.00    +0.001 C 
BRANCH   4   9
ATOM      9  N   UNL     1      35.679 -18.176 -23.828  0.00  0.00    -0.357 N 
ATOM     10  H   UNL     1      35.174 -18.337 -24.658  0.00  0.00    +0.142 HD
ATOM     11  H   UNL     1      36.490 -18.699 -23.635  0.00  0.00    +0.142 HD
ENDBRANCH   4   9
ENDBRANCH   2   3
BRANCH   2  12
ATOM     12  C   UNL     1      34.464 -19.839 -20.881  0.00  0.00    +0.058 C 
BRANCH  12  13
ATOM     13  CA  UNL     1      34.796 -20.883 -19.810  0.00  0.00    +0.048 C 
BRANCH  13  14
ATOM     14  N   UNL     1      35.983 -21.647 -20.314  0.00  0.00    +0.389 N 
ATOM     15  H1  UNL     1      36.837 -21.230 -19.944  0.00  0.00    -0.088 HD
ATOM     16  H2  UNL     1      36.001 -21.613 -21.334  0.00  0.00    -0.088 HD
ATOM     17  H3  UNL     1      35.918 -22.618 -20.007  0.00  0.00    -0.088 HD
ENDBRANCH  13  14
BRANCH  13  20
ATOM     18  O   UNL     1      32.549 -21.247 -19.183  0.00  0.00    -0.248 OA
ATOM     19  OXT UNL     1      33.918 -23.062 -19.384  0.00  0.00    -0.248 OA
ATOM     20  C   UNL     1      33.645 -21.830 -19.420  0.00  0.00    +0.345 C 
ENDBRANCH  13  20
ENDBRANCH  12  13
ENDBRANCH   2  12
TORSDOF 6
ENDMDL
MODEL 7
REMARK VINA RESULT:      -7.0      6.102      8.839
REMARK  Name = 6971029
REMARK  6 active torsions:
REMARK  status: ('A' for Active; 'I' for Inactive)
REMARK    1  A    between atoms: C_2  and  C_3
REMARK    2  A    between atoms: C_2  and  C_12
REMARK    3  A    between atoms: C_4  and  N_9
REMARK    4  A    between atoms: C_12  and  CA_13
REMARK    5  A    between atoms: CA_13  and  N_14
REMARK    6  A    between atoms: CA_13  and  C_20
REMARK                            x       y       z     vdW  Elec       q    Type
REMARK                         _______ _______ _______ _____ _____    ______ ____
ROOT
ATOM      1  O   UNL     1      34.860 -22.880 -14.710  0.00  0.00    -0.291 OA
ATOM      2  C   UNL     1      35.663 -23.215 -15.577  0.00  0.00    +0.173 C 
ENDROOT
BRANCH   2   3
ATOM      3  C   UNL     1      35.543 -22.631 -16.944  0.00  0.00    +0.048 C 
ATOM      4  C   UNL     1      34.363 -22.747 -17.644  0.00  0.00    +0.044 C 
ATOM      5  C   UNL     1      36.647 -21.984 -17.457  0.00  0.00    +0.004 C 
ATOM      6  C   UNL     1      34.281 -22.189 -18.920  0.00  0.00    +0.014 C 
ATOM      7  C   UNL     1      36.566 -21.427 -18.733  0.00  0.00    +0.000 C 
ATOM      8  C   UNL     1      35.383 -21.529 -19.465  0.00  0.00    +0.001 C 
BRANCH   4   9
ATOM      9  N   UNL     1      33.235 -23.412 -17.111  0.00  0.00    -0.357 N 
ATOM     10  H   UNL     1      32.394 -22.919 -16.971  0.00  0.00    +0.142 HD
ATOM     11  H   UNL     1      33.290 -24.367 -16.881  0.00  0.00    +0.142 HD
ENDBRANCH   4   9
ENDBRANCH   2   3
BRANCH   2  12
ATOM     12  C   UNL     1      36.774 -24.224 -15.309  0.00  0.00    +0.058 C 
BRANCH  12  13
ATOM     13  CA  UNL     1      36.240 -25.593 -14.876  0.00  0.00    +0.048 C 
BRANCH  13  14
ATOM     14  N   UNL     1      36.096 -25.540 -13.385  0.00  0.00    +0.389 N 
ATOM     15  H1  UNL     1      35.905 -24.581 -13.095  0.00  0.00    -0.088 HD
ATOM     16  H2  UNL     1      36.960 -25.862 -12.947  0.00  0.00    -0.088 HD
ATOM     17  H3  UNL     1      35.324 -26.142 -13.095  0.00  0.00    -0.088 HD
ENDBRANCH  13  14
BRANCH  13  20
ATOM     18  O   UNL     1      38.079 -27.043 -14.576  0.00  0.00    -0.248 OA
ATOM     19  OXT UNL     1      36.679 -27.428 -16.339  0.00  0.00    -0.248 OA
ATOM     20  C   UNL     1      37.078 -26.809 -15.314  0.00  0.00    +0.345 C 
ENDBRANCH  13  20
ENDBRANCH  12  13
ENDBRANCH   2  12
TORSDOF 6
ENDMDL
MODEL 8
REMARK VINA RESULT:      -7.0      4.126      6.418
REMARK  Name = 6971029
REMARK  6 active torsions:
REMARK  status: ('A' for Active; 'I' for Inactive)
REMARK    1  A    between atoms: C_2  and  C_3
REMARK    2  A    between atoms: C_2  and  C_12
REMARK    3  A    between atoms: C_4  and  N_9
REMARK    4  A    between atoms: C_12  and  CA_13
REMARK    5  A    between atoms: CA_13  and  N_14
REMARK    6  A    between atoms: CA_13  and  C_20
REMARK                            x       y       z     vdW  Elec       q    Type
REMARK                         _______ _______ _______ _____ _____    ______ ____
ROOT
ATOM      1  O   UNL     1      34.044 -23.494 -19.766  0.00  0.00    -0.291 OA
ATOM      2  C   UNL     1      34.450 -22.558 -19.082  0.00  0.00    +0.173 C 
ENDROOT
BRANCH   2   3
ATOM      3  C   UNL     1      34.929 -21.318 -19.759  0.00  0.00    +0.048 C 
ATOM      4  C   UNL     1      34.026 -20.456 -20.342  0.00  0.00    +0.044 C 
ATOM      5  C   UNL     1      36.287 -21.085 -19.770  0.00  0.00    +0.004 C 
ATOM      6  C   UNL     1      34.505 -19.304 -20.966  0.00  0.00    +0.014 C 
ATOM      7  C   UNL     1      36.766 -19.933 -20.395  0.00  0.00    +0.000 C 
ATOM      8  C   UNL     1      35.875 -19.043 -20.993  0.00  0.00    +0.001 C 
BRANCH   4   9
ATOM      9  N   UNL     1      32.635 -20.702 -20.327  0.00  0.00    -0.357 N 
ATOM     10  H   UNL     1      32.002 -19.948 -20.343  0.00  0.00    +0.142 HD
ATOM     11  H   UNL     1      32.298 -21.627 -20.301  0.00  0.00    +0.142 HD
ENDBRANCH   4   9
ENDBRANCH   2   3
BRANCH   2  12
ATOM     12  C   UNL     1      34.496 -22.624 -17.560  0.00  0.00    +0.058 C 
BRANCH  12  13
ATOM     13  CA  UNL     1      33.294 -23.363 -16.963  0.00  0.00    +0.048 C 
BRANCH  13  14
ATOM     14  N   UNL     1      32.073 -22.771 -17.598  0.00  0.00    +0.389 N 
ATOM     15  H1  UNL     1      32.323 -21.904 -18.073  0.00  0.00    -0.088 HD
ATOM     16  H2  UNL     1      31.376 -22.575 -16.878  0.00  0.00    -0.088 HD
ATOM     17  H3  UNL     1      31.686 -23.430 -18.274  0.00  0.00    -0.088 HD
ENDBRANCH  13  14
BRANCH  13  20
ATOM     18  O   UNL     1      34.296 -23.170 -14.833  0.00  0.00    -0.248 OA
ATOM     19  OXT UNL     1      32.038 -23.492 -14.936  0.00  0.00    -0.248 OA
ATOM     20  C   UNL     1      33.192 -23.342 -15.426  0.00  0.00    +0.345 C 
ENDBRANCH  13  20
ENDBRANCH  12  13
ENDBRANCH   2  12
TORSDOF 6
ENDMDL
MODEL 9
REMARK VINA RESULT:      -7.0      7.392      8.919
REMARK  Name = 6971029
REMARK  6 active torsions:
REMARK  status: ('A' for Active; 'I' for Inactive)
REMARK    1  A    between atoms: C_2  and  C_3
REMARK    2  A    between atoms: C_2  and  C_12
REMARK    3  A    between atoms: C_4  and  N_9
REMARK    4  A    between atoms: C_12  and  CA_13
REMARK    5  A    between atoms: CA_13  and  N_14
REMARK    6  A    between atoms: CA_13  and  C_20
REMARK                            x       y       z     vdW  Elec       q    Type
REMARK                         _______ _______ _______ _____ _____    ______ ____
ROOT
ATOM      1  O   UNL     1      30.824 -24.225 -13.711  0.00  0.00    -0.291 OA
ATOM      2  C   UNL     1      30.859 -23.437 -14.652  0.00  0.00    +0.173 C 
ENDROOT
BRANCH   2   3
ATOM      3  C   UNL     1      32.114 -23.308 -15.446  0.00  0.00    +0.048 C 
ATOM      4  C   UNL     1      33.338 -23.323 -14.813  0.00  0.00    +0.044 C 
ATOM      5  C   UNL     1      31.991 -23.176 -16.813  0.00  0.00    +0.004 C 
ATOM      6  C   UNL     1      34.495 -23.201 -15.583  0.00  0.00    +0.014 C 
ATOM      7  C   UNL     1      33.147 -23.053 -17.583  0.00  0.00    +0.000 C 
ATOM      8  C   UNL     1      34.399 -23.065 -16.968  0.00  0.00    +0.001 C 
BRANCH   4   9
ATOM      9  N   UNL     1      33.456 -23.458 -13.411  0.00  0.00    -0.357 N 
ATOM     10  H   UNL     1      33.521 -22.656 -12.843  0.00  0.00    +0.142 HD
ATOM     11  H   UNL     1      33.473 -24.354 -13.003  0.00  0.00    +0.142 HD
ENDBRANCH   4   9
ENDBRANCH   2   3
BRANCH   2  12
ATOM     12  C   UNL     1      29.663 -22.571 -15.030  0.00  0.00    +0.058 C 
BRANCH  12  13
ATOM     13  CA  UNL     1      28.495 -23.386 -15.595  0.00  0.00    +0.048 C 
BRANCH  13  14
ATOM     14  N   UNL     1      28.993 -24.791 -15.748  0.00  0.00    +0.389 N 
ATOM     15  H1  UNL     1      29.790 -24.939 -15.128  0.00  0.00    -0.088 HD
ATOM     16  H2  UNL     1      29.281 -24.947 -16.714  0.00  0.00    -0.088 HD
ATOM     17  H3  UNL     1      28.249 -25.445 -15.505  0.00  0.00    -0.088 HD
ENDBRANCH  13  14
BRANCH  13  20
ATOM     18  O   UNL     1      27.610 -23.766 -17.750  0.00  0.00    -0.248 OA
ATOM     19  OXT UNL     1      27.732 -21.613 -17.000  0.00  0.00    -0.248 OA
ATOM     20  C   UNL     1      27.887 -22.862 -16.910  0.00  0.00    +0.345 C 
ENDBRANCH  13  20
ENDBRANCH  12  13
ENDBRANCH   2  12
TORSDOF 6
ENDMDL
