MODEL 1
REMARK VINA RESULT:      -7.6      0.000      0.000
REMARK  Name = 1493
REMARK  3 active torsions:
REMARK  status: ('A' for Active; 'I' for Inactive)
REMARK    1  A    between atoms: C_1  and  N_9
REMARK    2  A    between atoms: C_2  and  N_12
REMARK    3  A    between atoms: C_4  and  O_13
REMARK                            x       y       z     vdW  Elec       q    Type
REMARK                         _______ _______ _______ _____ _____    ______ ____
ROOT
ATOM      1  C   UNL     1      37.729 -24.716 -12.604  0.00  0.00    +0.178 C 
ATOM      2  C   UNL     1      39.115 -25.904 -14.187  0.00  0.00    +0.145 C 
ATOM      3  C   UNL     1      38.986 -24.984 -13.146  0.00  0.00    +0.051 C 
ATOM      4  C   UNL     1      36.601 -25.369 -13.101  0.00  0.00    +0.156 C 
ATOM      5  C   UNL     1      37.987 -26.556 -14.685  0.00  0.00    +0.027 C 
ATOM      6  C   UNL     1      36.730 -26.289 -14.142  0.00  0.00    +0.040 C 
ENDROOT
BRANCH   1   9
ATOM      7  O   UNL     1      38.274 -22.710 -11.604  0.00  0.00    -0.126 OA
ATOM      8  O   UNL     1      36.861 -24.041 -10.577  0.00  0.00    -0.126 OA
ATOM      9  N   UNL     1      37.616 -23.776 -11.543  0.00  0.00    +0.061 N 
ENDBRANCH   1   9
BRANCH   2  12
ATOM     10  O   UNL     1      41.289 -26.648 -13.994  0.00  0.00    -0.126 OA
ATOM     11  O   UNL     1      40.596 -25.941 -15.954  0.00  0.00    -0.126 OA
ATOM     12  N   UNL     1      40.394 -26.178 -14.739  0.00  0.00    +0.058 N 
ENDBRANCH   2  12
BRANCH   4  13
ATOM     13  O   UNL     1      35.363 -25.124 -12.587  0.00  0.00    -0.504 OA
ATOM     14  H   UNL     1      34.955 -25.755 -12.027  0.00  0.00    +0.292 HD
ENDBRANCH   4  13
TORSDOF 3
ENDMDL
MODEL 2
REMARK VINA RESULT:      -7.5      2.189      2.718
REMARK  Name = 1493
REMARK  3 active torsions:
REMARK  status: ('A' for Active; 'I' for Inactive)
REMARK    1  A    between atoms: C_1  and  N_9
REMARK    2  A    between atoms: C_2  and  N_12
REMARK    3  A    between atoms: C_4  and  O_13
REMARK                            x       y       z     vdW  Elec       q    Type
REMARK                         _______ _______ _______ _____ _____    ______ ____
ROOT
ATOM      1  C   UNL     1      35.804 -24.765 -12.390  0.00  0.00    +0.178 C 
ATOM      2  C   UNL     1      36.455 -25.838 -14.455  0.00  0.00    +0.145 C 
ATOM      3  C   UNL     1      36.667 -25.603 -13.096  0.00  0.00    +0.051 C 
ATOM      4  C   UNL     1      34.728 -24.162 -13.042  0.00  0.00    +0.156 C 
ATOM      5  C   UNL     1      35.380 -25.234 -15.107  0.00  0.00    +0.027 C 
ATOM      6  C   UNL     1      34.516 -24.397 -14.400  0.00  0.00    +0.040 C 
ENDROOT
BRANCH   1   9
ATOM      7  O   UNL     1      37.032 -23.861 -10.659  0.00  0.00    -0.126 OA
ATOM      8  O   UNL     1      35.233 -25.021 -10.170  0.00  0.00    -0.126 OA
ATOM      9  N   UNL     1      36.034 -24.538 -11.005  0.00  0.00    +0.061 N 
ENDBRANCH   1   9
BRANCH   2  12
ATOM     10  O   UNL     1      36.896 -27.307 -16.177  0.00  0.00    -0.126 OA
ATOM     11  O   UNL     1      38.520 -26.808 -14.786  0.00  0.00    -0.126 OA
ATOM     12  N   UNL     1      37.333 -26.691 -15.173  0.00  0.00    +0.058 N 
ENDBRANCH   2  12
BRANCH   4  13
ATOM     13  O   UNL     1      33.871 -23.341 -12.372  0.00  0.00    -0.504 OA
ATOM     14  H   UNL     1      34.123 -22.461 -12.176  0.00  0.00    +0.292 HD
ENDBRANCH   4  13
TORSDOF 3
ENDMDL
MODEL 3
REMARK VINA RESULT:      -7.5      1.308      4.365
REMARK  Name = 1493
REMARK  3 active torsions:
REMARK  status: ('A' for Active; 'I' for Inactive)
REMARK    1  A    between atoms: C_1  and  N_9
REMARK    2  A    between atoms: C_2  and  N_12
REMARK    3  A    between atoms: C_4  and  O_13
REMARK                            x       y       z     vdW  Elec       q    Type
REMARK                         _______ _______ _______ _____ _____    ______ ____
ROOT
ATOM      1  C   UNL     1      38.596 -25.347 -13.850  0.00  0.00    +0.178 C 
ATOM      2  C   UNL     1      37.069 -24.322 -12.282  0.00  0.00    +0.145 C 
ATOM      3  C   UNL     1      38.373 -24.632 -12.674  0.00  0.00    +0.051 C 
ATOM      4  C   UNL     1      37.517 -25.753 -14.636  0.00  0.00    +0.156 C 
ATOM      5  C   UNL     1      35.991 -24.729 -13.067  0.00  0.00    +0.027 C 
ATOM      6  C   UNL     1      36.215 -25.443 -14.245  0.00  0.00    +0.040 C 
ENDROOT
BRANCH   1   9
ATOM      7  O   UNL     1      40.203 -26.820 -14.603  0.00  0.00    -0.126 OA
ATOM      8  O   UNL     1      40.796 -24.746 -14.194  0.00  0.00    -0.126 OA
ATOM      9  N   UNL     1      39.931 -25.653 -14.235  0.00  0.00    +0.061 N 
ENDBRANCH   1   9
BRANCH   2  12
ATOM     10  O   UNL     1      36.266 -24.164 -10.127  0.00  0.00    -0.126 OA
ATOM     11  O   UNL     1      37.221 -22.400 -11.019  0.00  0.00    -0.126 OA
ATOM     12  N   UNL     1      36.842 -23.593 -11.085  0.00  0.00    +0.058 N 
ENDBRANCH   2  12
BRANCH   4  13
ATOM     13  O   UNL     1      37.711 -26.452 -15.790  0.00  0.00    -0.504 OA
ATOM     14  H   UNL     1      38.248 -27.219 -15.788  0.00  0.00    +0.292 HD
ENDBRANCH   4  13
TORSDOF 3
ENDMDL
MODEL 4
REMARK VINA RESULT:      -7.0      2.065      4.802
REMARK  Name = 1493
REMARK  3 active torsions:
REMARK  status: ('A' for Active; 'I' for Inactive)
REMARK    1  A    between atoms: C_1  and  N_9
REMARK    2  A    between atoms: C_2  and  N_12
REMARK    3  A    between atoms: C_4  and  O_13
REMARK                            x       y       z     vdW  Elec       q    Type
REMARK                         _______ _______ _______ _____ _____    ______ ____
ROOT
ATOM      1  C   UNL     1      37.065 -25.652 -14.365  0.00  0.00    +0.178 C 
ATOM      2  C   UNL     1      37.116 -24.701 -12.144  0.00  0.00    +0.145 C 
ATOM      3  C   UNL     1      36.393 -25.191 -13.233  0.00  0.00    +0.051 C 
ATOM      4  C   UNL     1      38.459 -25.623 -14.410  0.00  0.00    +0.156 C 
ATOM      5  C   UNL     1      38.509 -24.672 -12.189  0.00  0.00    +0.027 C 
ATOM      6  C   UNL     1      39.180 -25.134 -13.322  0.00  0.00    +0.040 C 
ENDROOT
BRANCH   1   9
ATOM      7  O   UNL     1      36.675 -27.216 -16.015  0.00  0.00    -0.126 OA
ATOM      8  O   UNL     1      35.308 -25.505 -15.852  0.00  0.00    -0.126 OA
ATOM      9  N   UNL     1      36.312 -26.149 -15.465  0.00  0.00    +0.061 N 
ENDBRANCH   1   9
BRANCH   2  12
ATOM     10  O   UNL     1      36.869 -23.217 -10.396  0.00  0.00    -0.126 OA
ATOM     11  O   UNL     1      35.413 -24.849 -10.596  0.00  0.00    -0.126 OA
ATOM     12  N   UNL     1      36.432 -24.234 -10.991  0.00  0.00    +0.058 N 
ENDBRANCH   2  12
BRANCH   4  13
ATOM     13  O   UNL     1      39.137 -26.069 -15.505  0.00  0.00    -0.504 OA
ATOM     14  H   UNL     1      39.982 -25.721 -15.706  0.00  0.00    +0.292 HD
ENDBRANCH   4  13
TORSDOF 3
ENDMDL
MODEL 5
REMARK VINA RESULT:      -7.0     11.779     12.316
REMARK  Name = 1493
REMARK  3 active torsions:
REMARK  status: ('A' for Active; 'I' for Inactive)
REMARK    1  A    between atoms: C_1  and  N_9
REMARK    2  A    between atoms: C_2  and  N_12
REMARK    3  A    between atoms: C_4  and  O_13
REMARK                            x       y       z     vdW  Elec       q    Type
REMARK                         _______ _______ _______ _____ _____    ______ ____
ROOT
ATOM      1  C   UNL     1      34.709 -16.799 -21.821  0.00  0.00    +0.178 C 
ATOM      2  C   UNL     1      34.244 -19.147 -21.488  0.00  0.00    +0.145 C 
ATOM      3  C   UNL     1      34.207 -17.830 -21.027  0.00  0.00    +0.051 C 
ATOM      4  C   UNL     1      35.247 -17.083 -23.076  0.00  0.00    +0.156 C 
ATOM      5  C   UNL     1      34.783 -19.431 -22.743  0.00  0.00    +0.027 C 
ATOM      6  C   UNL     1      35.284 -18.398 -23.537  0.00  0.00    +0.040 C 
ENDROOT
BRANCH   1   9
ATOM      7  O   UNL     1      34.921 -15.247 -20.128  0.00  0.00    -0.126 OA
ATOM      8  O   UNL     1      34.363 -14.540 -22.130  0.00  0.00    -0.126 OA
ATOM      9  N   UNL     1      34.662 -15.462 -21.336  0.00  0.00    +0.061 N 
ENDBRANCH   1   9
BRANCH   2  12
ATOM     10  O   UNL     1      32.512 -20.483 -20.758  0.00  0.00    -0.126 OA
ATOM     11  O   UNL     1      34.512 -20.808 -19.913  0.00  0.00    -0.126 OA
ATOM     12  N   UNL     1      33.732 -20.196 -20.681  0.00  0.00    +0.058 N 
ENDBRANCH   2  12
BRANCH   4  13
ATOM     13  O   UNL     1      35.742 -16.091 -23.870  0.00  0.00    -0.504 OA
ATOM     14  H   UNL     1      35.765 -15.209 -23.558  0.00  0.00    +0.292 HD
ENDBRANCH   4  13
TORSDOF 3
ENDMDL
MODEL 6
REMARK VINA RESULT:      -7.0      7.193      9.144
REMARK  Name = 1493
REMARK  3 active torsions:
REMARK  status: ('A' for Active; 'I' for Inactive)
REMARK    1  A    between atoms: C_1  and  N_9
REMARK    2  A    between atoms: C_2  and  N_12
REMARK    3  A    between atoms: C_4  and  O_13
REMARK                            x       y       z     vdW  Elec       q    Type
REMARK                         _______ _______ _______ _____ _____    ______ ____
ROOT
ATOM      1  C   UNL     1      31.554 -23.825 -15.515  0.00  0.00    +0.178 C 
ATOM      2  C   UNL     1      29.235 -23.623 -16.164  0.00  0.00    +0.145 C 
ATOM      3  C   UNL     1      30.563 -23.211 -16.281  0.00  0.00    +0.051 C 
ATOM      4  C   UNL     1      31.218 -24.853 -14.634  0.00  0.00    +0.156 C 
ATOM      5  C   UNL     1      28.899 -24.650 -15.282  0.00  0.00    +0.027 C 
ATOM      6  C   UNL     1      29.892 -25.265 -14.518  0.00  0.00    +0.040 C 
ENDROOT
BRANCH   1   9
ATOM      7  O   UNL     1      33.582 -23.198 -14.611  0.00  0.00    -0.126 OA
ATOM      8  O   UNL     1      33.373 -23.219 -16.797  0.00  0.00    -0.126 OA
ATOM      9  N   UNL     1      32.903 -23.393 -15.648  0.00  0.00    +0.061 N 
ENDBRANCH   1   9
BRANCH   2  12
ATOM     10  O   UNL     1      28.048 -21.761 -16.828  0.00  0.00    -0.126 OA
ATOM     11  O   UNL     1      27.541 -23.700 -17.726  0.00  0.00    -0.126 OA
ATOM     12  N   UNL     1      28.226 -22.999 -16.944  0.00  0.00    +0.058 N 
ENDBRANCH   2  12
BRANCH   4  13
ATOM     13  O   UNL     1      32.170 -25.469 -13.877  0.00  0.00    -0.504 OA
ATOM     14  H   UNL     1      33.053 -25.159 -13.891  0.00  0.00    +0.292 HD
ENDBRANCH   4  13
TORSDOF 3
ENDMDL
MODEL 7
REMARK VINA RESULT:      -7.0     14.111     14.556
REMARK  Name = 1493
REMARK  3 active torsions:
REMARK  status: ('A' for Active; 'I' for Inactive)
REMARK    1  A    between atoms: C_1  and  N_9
REMARK    2  A    between atoms: C_2  and  N_12
REMARK    3  A    between atoms: C_4  and  O_13
REMARK                            x       y       z     vdW  Elec       q    Type
REMARK                         _______ _______ _______ _____ _____    ______ ____
ROOT
ATOM      1  C   UNL     1      34.052 -15.341 -24.002  0.00  0.00    +0.178 C 
ATOM      2  C   UNL     1      34.900 -16.852 -22.318  0.00  0.00    +0.145 C 
ATOM      3  C   UNL     1      34.379 -15.606 -22.672  0.00  0.00    +0.051 C 
ATOM      4  C   UNL     1      34.245 -16.319 -24.977  0.00  0.00    +0.156 C 
ATOM      5  C   UNL     1      35.094 -17.830 -23.293  0.00  0.00    +0.027 C 
ATOM      6  C   UNL     1      34.766 -17.563 -24.623  0.00  0.00    +0.040 C 
ENDROOT
BRANCH   1   9
ATOM      7  O   UNL     1      32.591 -14.003 -25.184  0.00  0.00    -0.126 OA
ATOM      8  O   UNL     1      34.000 -13.044 -23.800  0.00  0.00    -0.126 OA
ATOM      9  N   UNL     1      33.522 -14.067 -24.346  0.00  0.00    +0.061 N 
ENDBRANCH   1   9
BRANCH   2  12
ATOM     10  O   UNL     1      35.078 -16.218 -20.107  0.00  0.00    -0.126 OA
ATOM     11  O   UNL     1      35.671 -18.258 -20.661  0.00  0.00    -0.126 OA
ATOM     12  N   UNL     1      35.232 -17.123 -20.964  0.00  0.00    +0.058 N 
ENDBRANCH   2  12
BRANCH   4  13
ATOM     13  O   UNL     1      33.932 -16.082 -26.283  0.00  0.00    -0.504 OA
ATOM     14  H   UNL     1      33.809 -16.799 -26.872  0.00  0.00    +0.292 HD
ENDBRANCH   4  13
TORSDOF 3
ENDMDL
MODEL 8
REMARK VINA RESULT:      -6.9     13.017     13.455
REMARK  Name = 1493
REMARK  3 active torsions:
REMARK  status: ('A' for Active; 'I' for Inactive)
REMARK    1  A    between atoms: C_1  and  N_9
REMARK    2  A    between atoms: C_2  and  N_12
REMARK    3  A    between atoms: C_4  and  O_13
REMARK                            x       y       z     vdW  Elec       q    Type
REMARK                         _______ _______ _______ _____ _____    ______ ____
ROOT
ATOM      1  C   UNL     1      34.857 -17.398 -21.802  0.00  0.00    +0.178 C 
ATOM      2  C   UNL     1      34.487 -16.469 -24.002  0.00  0.00    +0.145 C 
ATOM      3  C   UNL     1      34.708 -17.573 -23.177  0.00  0.00    +0.051 C 
ATOM      4  C   UNL     1      34.783 -16.120 -21.249  0.00  0.00    +0.156 C 
ATOM      5  C   UNL     1      34.414 -15.191 -23.449  0.00  0.00    +0.027 C 
ATOM      6  C   UNL     1      34.561 -15.016 -22.072  0.00  0.00    +0.040 C 
ENDROOT
BRANCH   1   9
ATOM      7  O   UNL     1      36.215 -18.700 -20.467  0.00  0.00    -0.126 OA
ATOM      8  O   UNL     1      34.138 -19.338 -20.783  0.00  0.00    -0.126 OA
ATOM      9  N   UNL     1      35.081 -18.535 -20.976  0.00  0.00    +0.061 N 
ENDBRANCH   1   9
BRANCH   2  12
ATOM     10  O   UNL     1      33.930 -15.683 -26.097  0.00  0.00    -0.126 OA
ATOM     11  O   UNL     1      34.608 -17.762 -25.906  0.00  0.00    -0.126 OA
ATOM     12  N   UNL     1      34.335 -16.647 -25.402  0.00  0.00    +0.058 N 
ENDBRANCH   2  12
BRANCH   4  13
ATOM     13  O   UNL     1      34.923 -15.924 -19.907  0.00  0.00    -0.504 OA
ATOM     14  H   UNL     1      34.241 -15.508 -19.420  0.00  0.00    +0.292 HD
ENDBRANCH   4  13
TORSDOF 3
ENDMDL
MODEL 9
REMARK VINA RESULT:      -6.8      2.509      4.210
REMARK  Name = 1493
REMARK  3 active torsions:
REMARK  status: ('A' for Active; 'I' for Inactive)
REMARK    1  A    between atoms: C_1  and  N_9
REMARK    2  A    between atoms: C_2  and  N_12
REMARK    3  A    between atoms: C_4  and  O_13
REMARK                            x       y       z     vdW  Elec       q    Type
REMARK                         _______ _______ _______ _____ _____    ______ ____
ROOT
ATOM      1  C   UNL     1      35.902 -24.707 -14.548  0.00  0.00    +0.178 C 
ATOM      2  C   UNL     1      37.509 -24.237 -12.805  0.00  0.00    +0.145 C 
ATOM      3  C   UNL     1      36.360 -23.887 -13.516  0.00  0.00    +0.051 C 
ATOM      4  C   UNL     1      36.590 -25.877 -14.868  0.00  0.00    +0.156 C 
ATOM      5  C   UNL     1      38.198 -25.406 -13.126  0.00  0.00    +0.027 C 
ATOM      6  C   UNL     1      37.738 -26.226 -14.158  0.00  0.00    +0.040 C 
ENDROOT
BRANCH   1   9
ATOM      7  O   UNL     1      33.630 -24.318 -14.656  0.00  0.00    -0.126 OA
ATOM      8  O   UNL     1      34.827 -24.035 -16.475  0.00  0.00    -0.126 OA
ATOM      9  N   UNL     1      34.729 -24.335 -15.261  0.00  0.00    +0.061 N 
ENDBRANCH   1   9
BRANCH   2  12
ATOM     10  O   UNL     1      37.144 -22.927 -10.943  0.00  0.00    -0.126 OA
ATOM     11  O   UNL     1      39.203 -23.166 -11.667  0.00  0.00    -0.126 OA
ATOM     12  N   UNL     1      37.975 -23.404 -11.755  0.00  0.00    +0.058 N 
ENDBRANCH   2  12
BRANCH   4  13
ATOM     13  O   UNL     1      36.160 -26.693 -15.871  0.00  0.00    -0.504 OA
ATOM     14  H   UNL     1      36.782 -27.120 -16.426  0.00  0.00    +0.292 HD
ENDBRANCH   4  13
TORSDOF 3
ENDMDL
