MODEL 1
REMARK VINA RESULT:      -6.8      0.000      0.000
REMARK  Name = 162636
REMARK  2 active torsions:
REMARK  status: ('A' for Active; 'I' for Inactive)
REMARK    1  A    between atoms: N_3  and  C_7
REMARK    2  A    between atoms: C_9  and  O_15
REMARK                            x       y       z     vdW  Elec       q    Type
REMARK                         _______ _______ _______ _____ _____    ______ ____
ROOT
ATOM      1  N   UNL     1      35.018 -22.230 -18.891  0.00  0.00    -0.305 N 
ATOM      2  N   UNL     1      32.826 -21.925 -19.089  0.00  0.00    -0.305 N 
ATOM      3  C   UNL     1      34.872 -21.160 -19.736  0.00  0.00    +0.063 C 
ATOM      4  C   UNL     1      33.495 -20.989 -19.844  0.00  0.00    +0.060 C 
ATOM      5  C   UNL     1      35.799 -20.352 -20.395  0.00  0.00    +0.052 C 
ATOM      6  C   UNL     1      33.768 -22.652 -18.532  0.00  0.00    +0.204 C 
ATOM      7  C   UNL     1      32.994 -19.956 -20.653  0.00  0.00    +0.019 C 
ATOM      8  C   UNL     1      35.283 -19.327 -21.196  0.00  0.00    +0.135 C 
ATOM      9  C   UNL     1      33.906 -19.131 -21.325  0.00  0.00    +0.038 C 
ATOM     10  H   UNL     1      35.871 -22.625 -18.596  0.00  0.00    +0.150 HD
ATOM     11  H   UNL     1      31.852 -22.028 -18.988  0.00  0.00    +0.150 HD
ENDROOT
BRANCH   6  12
ATOM     12  N   UNL     1      33.664 -23.706 -17.694  0.00  0.00    -0.291 NA
ATOM     13  H   UNL     1      33.719 -24.624 -18.047  0.00  0.00    +0.122 HD
ATOM     14  H   UNL     1      33.532 -23.557 -16.729  0.00  0.00    +0.122 HD
ENDBRANCH   6  12
BRANCH   8  15
ATOM     15  O   UNL     1      36.142 -18.506 -21.865  0.00  0.00    -0.505 OA
ATOM     16  H   UNL     1      36.626 -18.832 -22.599  0.00  0.00    +0.292 HD
ENDBRANCH   8  15
TORSDOF 2
ENDMDL
MODEL 2
REMARK VINA RESULT:      -6.7      3.434      4.805
REMARK  Name = 162636
REMARK  2 active torsions:
REMARK  status: ('A' for Active; 'I' for Inactive)
REMARK    1  A    between atoms: N_3  and  C_7
REMARK    2  A    between atoms: C_9  and  O_15
REMARK                            x       y       z     vdW  Elec       q    Type
REMARK                         _______ _______ _______ _____ _____    ______ ____
ROOT
ATOM      1  N   UNL     1      34.194 -18.304 -22.045  0.00  0.00    -0.305 N 
ATOM      2  N   UNL     1      36.349 -18.682 -21.660  0.00  0.00    -0.305 N 
ATOM      3  C   UNL     1      34.231 -19.381 -21.197  0.00  0.00    +0.063 C 
ATOM      4  C   UNL     1      35.587 -19.598 -20.972  0.00  0.00    +0.060 C 
ATOM      5  C   UNL     1      33.224 -20.160 -20.625  0.00  0.00    +0.052 C 
ATOM      6  C   UNL     1      35.484 -17.923 -22.292  0.00  0.00    +0.204 C 
ATOM      7  C   UNL     1      35.981 -20.650 -20.129  0.00  0.00    +0.019 C 
ATOM      8  C   UNL     1      33.635 -21.203 -19.788  0.00  0.00    +0.135 C 
ATOM      9  C   UNL     1      34.988 -21.446 -19.544  0.00  0.00    +0.038 C 
ATOM     10  H   UNL     1      33.383 -17.880 -22.411  0.00  0.00    +0.150 HD
ATOM     11  H   UNL     1      37.331 -18.612 -21.676  0.00  0.00    +0.150 HD
ENDROOT
BRANCH   6  12
ATOM     12  N   UNL     1      35.694 -16.869 -23.110  0.00  0.00    -0.291 NA
ATOM     13  H   UNL     1      35.104 -16.081 -23.061  0.00  0.00    +0.122 HD
ATOM     14  H   UNL     1      36.437 -16.887 -23.756  0.00  0.00    +0.122 HD
ENDBRANCH   6  12
BRANCH   8  15
ATOM     15  O   UNL     1      32.695 -21.999 -19.203  0.00  0.00    -0.505 OA
ATOM     16  H   UNL     1      32.357 -21.780 -18.356  0.00  0.00    +0.292 HD
ENDBRANCH   8  15
TORSDOF 2
ENDMDL
MODEL 3
REMARK VINA RESULT:      -6.7      7.922      9.052
REMARK  Name = 162636
REMARK  2 active torsions:
REMARK  status: ('A' for Active; 'I' for Inactive)
REMARK    1  A    between atoms: N_3  and  C_7
REMARK    2  A    between atoms: C_9  and  O_15
REMARK                            x       y       z     vdW  Elec       q    Type
REMARK                         _______ _______ _______ _____ _____    ______ ____
ROOT
ATOM      1  N   UNL     1      39.047 -26.159 -13.927  0.00  0.00    -0.305 N 
ATOM      2  N   UNL     1      38.653 -24.408 -15.237  0.00  0.00    -0.305 N 
ATOM      3  C   UNL     1      37.980 -25.510 -13.360  0.00  0.00    +0.063 C 
ATOM      4  C   UNL     1      37.753 -24.421 -14.196  0.00  0.00    +0.060 C 
ATOM      5  C   UNL     1      37.217 -25.775 -12.222  0.00  0.00    +0.052 C 
ATOM      6  C   UNL     1      39.412 -25.463 -15.045  0.00  0.00    +0.204 C 
ATOM      7  C   UNL     1      36.708 -23.532 -13.894  0.00  0.00    +0.019 C 
ATOM      8  C   UNL     1      36.180 -24.880 -11.937  0.00  0.00    +0.135 C 
ATOM      9  C   UNL     1      35.929 -23.778 -12.757  0.00  0.00    +0.038 C 
ATOM     10  H   UNL     1      39.474 -26.980 -13.588  0.00  0.00    +0.150 HD
ATOM     11  H   UNL     1      38.714 -23.751 -15.967  0.00  0.00    +0.150 HD
ENDROOT
BRANCH   6  12
ATOM     12  N   UNL     1      40.453 -25.923 -15.773  0.00  0.00    -0.291 NA
ATOM     13  H   UNL     1      41.053 -25.289 -16.230  0.00  0.00    +0.122 HD
ATOM     14  H   UNL     1      40.611 -26.892 -15.849  0.00  0.00    +0.122 HD
ENDBRANCH   6  12
BRANCH   8  15
ATOM     15  O   UNL     1      35.402 -25.089 -10.837  0.00  0.00    -0.505 OA
ATOM     16  H   UNL     1      34.470 -25.008 -10.900  0.00  0.00    +0.292 HD
ENDBRANCH   8  15
TORSDOF 2
ENDMDL
MODEL 4
REMARK VINA RESULT:      -6.6      3.265      4.310
REMARK  Name = 162636
REMARK  2 active torsions:
REMARK  status: ('A' for Active; 'I' for Inactive)
REMARK    1  A    between atoms: N_3  and  C_7
REMARK    2  A    between atoms: C_9  and  O_15
REMARK                            x       y       z     vdW  Elec       q    Type
REMARK                         _______ _______ _______ _____ _____    ______ ____
ROOT
ATOM      1  N   UNL     1      36.217 -19.019 -21.438  0.00  0.00    -0.305 N 
ATOM      2  N   UNL     1      34.102 -18.495 -21.871  0.00  0.00    -0.305 N 
ATOM      3  C   UNL     1      35.465 -19.909 -20.716  0.00  0.00    +0.063 C 
ATOM      4  C   UNL     1      34.148 -19.562 -21.002  0.00  0.00    +0.060 C 
ATOM      5  C   UNL     1      35.813 -20.956 -19.862  0.00  0.00    +0.052 C 
ATOM      6  C   UNL     1      35.358 -18.195 -22.111  0.00  0.00    +0.204 C 
ATOM      7  C   UNL     1      33.103 -20.291 -20.411  0.00  0.00    +0.019 C 
ATOM      8  C   UNL     1      34.761 -21.673 -19.283  0.00  0.00    +0.135 C 
ATOM      9  C   UNL     1      33.429 -21.348 -19.550  0.00  0.00    +0.038 C 
ATOM     10  H   UNL     1      37.201 -18.978 -21.466  0.00  0.00    +0.150 HD
ATOM     11  H   UNL     1      33.300 -18.053 -22.233  0.00  0.00    +0.150 HD
ENDROOT
BRANCH   6  12
ATOM     12  N   UNL     1      35.880 -17.229 -22.897  0.00  0.00    -0.291 NA
ATOM     13  H   UNL     1      35.285 -16.632 -23.406  0.00  0.00    +0.122 HD
ATOM     14  H   UNL     1      36.857 -17.123 -22.963  0.00  0.00    +0.122 HD
ENDBRANCH   6  12
BRANCH   8  15
ATOM     15  O   UNL     1      35.042 -22.706 -18.439  0.00  0.00    -0.505 OA
ATOM     16  H   UNL     1      35.182 -23.567 -18.783  0.00  0.00    +0.292 HD
ENDBRANCH   8  15
TORSDOF 2
ENDMDL
MODEL 5
REMARK VINA RESULT:      -6.6      6.885      7.734
REMARK  Name = 162636
REMARK  2 active torsions:
REMARK  status: ('A' for Active; 'I' for Inactive)
REMARK    1  A    between atoms: N_3  and  C_7
REMARK    2  A    between atoms: C_9  and  O_15
REMARK                            x       y       z     vdW  Elec       q    Type
REMARK                         _______ _______ _______ _____ _____    ______ ____
ROOT
ATOM      1  N   UNL     1      29.307 -22.529 -16.562  0.00  0.00    -0.305 N 
ATOM      2  N   UNL     1      28.496 -24.592 -16.418  0.00  0.00    -0.305 N 
ATOM      3  C   UNL     1      30.059 -23.151 -15.598  0.00  0.00    +0.063 C 
ATOM      4  C   UNL     1      29.533 -24.438 -15.527  0.00  0.00    +0.060 C 
ATOM      5  C   UNL     1      31.121 -22.712 -14.807  0.00  0.00    +0.052 C 
ATOM      6  C   UNL     1      28.388 -23.430 -17.021  0.00  0.00    +0.204 C 
ATOM      7  C   UNL     1      30.087 -25.355 -14.618  0.00  0.00    +0.019 C 
ATOM      8  C   UNL     1      31.661 -23.638 -13.908  0.00  0.00    +0.135 C 
ATOM      9  C   UNL     1      31.154 -24.936 -13.813  0.00  0.00    +0.038 C 
ATOM     10  H   UNL     1      29.411 -21.598 -16.868  0.00  0.00    +0.150 HD
ATOM     11  H   UNL     1      27.953 -25.399 -16.571  0.00  0.00    +0.150 HD
ENDROOT
BRANCH   6  12
ATOM     12  N   UNL     1      27.530 -23.034 -17.987  0.00  0.00    -0.291 NA
ATOM     13  H   UNL     1      26.589 -23.324 -17.959  0.00  0.00    +0.122 HD
ATOM     14  H   UNL     1      27.846 -22.457 -18.719  0.00  0.00    +0.122 HD
ENDBRANCH   6  12
BRANCH   8  15
ATOM     15  O   UNL     1      32.700 -23.264 -13.108  0.00  0.00    -0.505 OA
ATOM     16  H   UNL     1      32.575 -22.603 -12.456  0.00  0.00    +0.292 HD
ENDBRANCH   8  15
TORSDOF 2
ENDMDL
MODEL 6
REMARK VINA RESULT:      -6.5      7.891      8.221
REMARK  Name = 162636
REMARK  2 active torsions:
REMARK  status: ('A' for Active; 'I' for Inactive)
REMARK    1  A    between atoms: N_3  and  C_7
REMARK    2  A    between atoms: C_9  and  O_15
REMARK                            x       y       z     vdW  Elec       q    Type
REMARK                         _______ _______ _______ _____ _____    ______ ____
ROOT
ATOM      1  N   UNL     1      37.830 -26.094 -15.045  0.00  0.00    -0.305 N 
ATOM      2  N   UNL     1      35.609 -26.100 -14.971  0.00  0.00    -0.305 N 
ATOM      3  C   UNL     1      37.494 -25.184 -14.076  0.00  0.00    +0.063 C 
ATOM      4  C   UNL     1      36.102 -25.206 -14.049  0.00  0.00    +0.060 C 
ATOM      5  C   UNL     1      38.264 -24.369 -13.246  0.00  0.00    +0.052 C 
ATOM      6  C   UNL     1      36.670 -26.614 -15.550  0.00  0.00    +0.204 C 
ATOM      7  C   UNL     1      35.422 -24.372 -13.146  0.00  0.00    +0.019 C 
ATOM      8  C   UNL     1      37.570 -23.545 -12.354  0.00  0.00    +0.135 C 
ATOM      9  C   UNL     1      36.175 -23.544 -12.303  0.00  0.00    +0.038 C 
ATOM     10  H   UNL     1      38.744 -26.330 -15.328  0.00  0.00    +0.150 HD
ATOM     11  H   UNL     1      34.665 -26.310 -15.157  0.00  0.00    +0.150 HD
ENDROOT
BRANCH   6  12
ATOM     12  N   UNL     1      36.757 -27.542 -16.528  0.00  0.00    -0.291 NA
ATOM     13  H   UNL     1      36.193 -28.348 -16.494  0.00  0.00    +0.122 HD
ATOM     14  H   UNL     1      37.387 -27.414 -17.275  0.00  0.00    +0.122 HD
ENDBRANCH   6  12
BRANCH   8  15
ATOM     15  O   UNL     1      38.271 -22.726 -11.519  0.00  0.00    -0.505 OA
ATOM     16  H   UNL     1      38.396 -22.967 -10.622  0.00  0.00    +0.292 HD
ENDBRANCH   8  15
TORSDOF 2
ENDMDL
MODEL 7
REMARK VINA RESULT:      -6.4      3.913      4.992
REMARK  Name = 162636
REMARK  2 active torsions:
REMARK  status: ('A' for Active; 'I' for Inactive)
REMARK    1  A    between atoms: N_3  and  C_7
REMARK    2  A    between atoms: C_9  and  O_15
REMARK                            x       y       z     vdW  Elec       q    Type
REMARK                         _______ _______ _______ _____ _____    ______ ____
ROOT
ATOM      1  N   UNL     1      35.388 -19.039 -22.467  0.00  0.00    -0.305 N 
ATOM      2  N   UNL     1      35.309 -17.450 -20.916  0.00  0.00    -0.305 N 
ATOM      3  C   UNL     1      35.001 -17.902 -23.128  0.00  0.00    +0.063 C 
ATOM      4  C   UNL     1      34.959 -16.924 -22.139  0.00  0.00    +0.060 C 
ATOM      5  C   UNL     1      34.694 -17.653 -24.466  0.00  0.00    +0.052 C 
ATOM      6  C   UNL     1      35.559 -18.718 -21.149  0.00  0.00    +0.204 C 
ATOM      7  C   UNL     1      34.590 -15.614 -22.487  0.00  0.00    +0.019 C 
ATOM      8  C   UNL     1      34.330 -16.343 -24.795  0.00  0.00    +0.135 C 
ATOM      9  C   UNL     1      34.277 -15.340 -23.825  0.00  0.00    +0.038 C 
ATOM     10  H   UNL     1      35.518 -19.929 -22.869  0.00  0.00    +0.150 HD
ATOM     11  H   UNL     1      35.360 -16.977 -20.054  0.00  0.00    +0.150 HD
ENDROOT
BRANCH   6  12
ATOM     12  N   UNL     1      35.945 -19.693 -20.297  0.00  0.00    -0.291 NA
ATOM     13  H   UNL     1      36.871 -19.716 -19.961  0.00  0.00    +0.122 HD
ATOM     14  H   UNL     1      35.302 -20.382 -20.013  0.00  0.00    +0.122 HD
ENDBRANCH   6  12
BRANCH   8  15
ATOM     15  O   UNL     1      34.018 -16.042 -26.088  0.00  0.00    -0.505 OA
ATOM     16  H   UNL     1      34.429 -16.507 -26.790  0.00  0.00    +0.292 HD
ENDBRANCH   8  15
TORSDOF 2
ENDMDL
MODEL 8
REMARK VINA RESULT:      -6.4      5.588      6.872
REMARK  Name = 162636
REMARK  2 active torsions:
REMARK  status: ('A' for Active; 'I' for Inactive)
REMARK    1  A    between atoms: N_3  and  C_7
REMARK    2  A    between atoms: C_9  and  O_15
REMARK                            x       y       z     vdW  Elec       q    Type
REMARK                         _______ _______ _______ _____ _____    ______ ____
ROOT
ATOM      1  N   UNL     1      34.399 -16.727 -25.040  0.00  0.00    -0.305 N 
ATOM      2  N   UNL     1      33.515 -14.854 -24.237  0.00  0.00    -0.305 N 
ATOM      3  C   UNL     1      34.619 -16.770 -23.687  0.00  0.00    +0.063 C 
ATOM      4  C   UNL     1      34.058 -15.590 -23.208  0.00  0.00    +0.060 C 
ATOM      5  C   UNL     1      35.241 -17.711 -22.866  0.00  0.00    +0.052 C 
ATOM      6  C   UNL     1      33.737 -15.564 -25.319  0.00  0.00    +0.204 C 
ATOM      7  C   UNL     1      34.111 -15.315 -21.832  0.00  0.00    +0.019 C 
ATOM      8  C   UNL     1      35.284 -17.422 -21.498  0.00  0.00    +0.135 C 
ATOM      9  C   UNL     1      34.731 -16.246 -20.988  0.00  0.00    +0.038 C 
ATOM     10  H   UNL     1      34.671 -17.412 -25.694  0.00  0.00    +0.150 HD
ATOM     11  H   UNL     1      33.059 -13.983 -24.174  0.00  0.00    +0.150 HD
ENDROOT
BRANCH   6  12
ATOM     12  N   UNL     1      33.411 -15.306 -26.604  0.00  0.00    -0.291 NA
ATOM     13  H   UNL     1      33.377 -14.376 -26.926  0.00  0.00    +0.122 HD
ATOM     14  H   UNL     1      33.206 -16.047 -27.219  0.00  0.00    +0.122 HD
ENDBRANCH   6  12
BRANCH   8  15
ATOM     15  O   UNL     1      35.881 -18.306 -20.648  0.00  0.00    -0.505 OA
ATOM     16  H   UNL     1      35.630 -18.330 -19.745  0.00  0.00    +0.292 HD
ENDBRANCH   8  15
TORSDOF 2
ENDMDL
MODEL 9
REMARK VINA RESULT:      -6.3      5.712      7.093
REMARK  Name = 162636
REMARK  2 active torsions:
REMARK  status: ('A' for Active; 'I' for Inactive)
REMARK    1  A    between atoms: N_3  and  C_7
REMARK    2  A    between atoms: C_9  and  O_15
REMARK                            x       y       z     vdW  Elec       q    Type
REMARK                         _______ _______ _______ _____ _____    ______ ____
ROOT
ATOM      1  N   UNL     1      33.608 -14.940 -24.441  0.00  0.00    -0.305 N 
ATOM      2  N   UNL     1      34.331 -16.881 -25.245  0.00  0.00    -0.305 N 
ATOM      3  C   UNL     1      34.127 -15.611 -23.364  0.00  0.00    +0.063 C 
ATOM      4  C   UNL     1      34.571 -16.820 -23.891  0.00  0.00    +0.060 C 
ATOM      5  C   UNL     1      34.241 -15.275 -22.015  0.00  0.00    +0.052 C 
ATOM      6  C   UNL     1      33.754 -15.739 -25.541  0.00  0.00    +0.204 C 
ATOM      7  C   UNL     1      35.168 -17.762 -23.036  0.00  0.00    +0.019 C 
ATOM      8  C   UNL     1      34.839 -16.224 -21.178  0.00  0.00    +0.135 C 
ATOM      9  C   UNL     1      35.293 -17.446 -21.677  0.00  0.00    +0.038 C 
ATOM     10  H   UNL     1      33.203 -14.042 -24.426  0.00  0.00    +0.150 HD
ATOM     11  H   UNL     1      34.545 -17.621 -25.858  0.00  0.00    +0.150 HD
ENDROOT
BRANCH   6  12
ATOM     12  N   UNL     1      33.310 -15.278 -26.731  0.00  0.00    -0.291 NA
ATOM     13  H   UNL     1      33.694 -14.456 -27.115  0.00  0.00    +0.122 HD
ATOM     14  H   UNL     1      32.602 -15.763 -27.214  0.00  0.00    +0.122 HD
ENDBRANCH   6  12
BRANCH   8  15
ATOM     15  O   UNL     1      34.976 -15.949 -19.849  0.00  0.00    -0.505 OA
ATOM     16  H   UNL     1      35.025 -16.650 -19.229  0.00  0.00    +0.292 HD
ENDBRANCH   8  15
TORSDOF 2
ENDMDL
