MODEL 1
REMARK VINA RESULT:      -8.7      0.000      0.000
REMARK  Name = 9690109
REMARK  5 active torsions:
REMARK  status: ('A' for Active; 'I' for Inactive)
REMARK    1  A    between atoms: C_1  and  C_2
REMARK    2  A    between atoms: C_1  and  C_8
REMARK    3  A    between atoms: C_1  and  S_14
REMARK    4  A    between atoms: S_14  and  C_16
REMARK    5  A    between atoms: C_16  and  C_19
REMARK                            x       y       z     vdW  Elec       q    Type
REMARK                         _______ _______ _______ _____ _____    ______ ____
ROOT
ATOM      1  C   UNL     1      34.793 -18.179 -21.954  0.00  0.00    +0.124 C 
ENDROOT
BRANCH   1   2
ATOM      2  C   UNL     1      34.691 -19.386 -21.084  0.00  0.00    -0.006 C 
ATOM      3  C   UNL     1      35.849 -20.009 -20.618  0.00  0.00    -0.003 C 
ATOM      4  C   UNL     1      33.439 -19.893 -20.738  0.00  0.00    -0.003 C 
ATOM      5  C   UNL     1      35.754 -21.139 -19.805  0.00  0.00    -0.000 C 
ATOM      6  C   UNL     1      33.343 -21.023 -19.925  0.00  0.00    -0.000 C 
ATOM      7  C   UNL     1      34.501 -21.644 -19.459  0.00  0.00    -0.000 C 
ENDBRANCH   1   2
BRANCH   1   8
ATOM      8  C   UNL     1      34.134 -16.929 -21.372  0.00  0.00    -0.006 C 
ATOM      9  C   UNL     1      32.762 -16.897 -21.257  0.00  0.00    -0.003 C 
ATOM     10  C   UNL     1      34.937 -15.879 -20.983  0.00  0.00    -0.003 C 
ATOM     11  C   UNL     1      32.162 -15.756 -20.726  0.00  0.00    -0.000 C 
ATOM     12  C   UNL     1      34.335 -14.738 -20.453  0.00  0.00    -0.000 C 
ATOM     13  C   UNL     1      32.949 -14.676 -20.324  0.00  0.00    -0.000 C 
ENDBRANCH   1   8
BRANCH   1  14
ATOM     14  S   UNL     1      34.248 -18.483 -23.697  0.00  0.00    +0.058 S 
ATOM     15  O   UNL     1      35.027 -19.660 -24.169  0.00  0.00    -0.255 OA
BRANCH  14  16
ATOM     16  C   UNL     1      35.027 -16.991 -24.349  0.00  0.00    +0.177 C 
BRANCH  16  19
ATOM     17  O   UNL     1      33.625 -16.347 -26.194  0.00  0.00    -0.274 OA
ATOM     18  N   UNL     1      33.559 -15.077 -24.280  0.00  0.00    -0.328 N 
ATOM     19  C   UNL     1      34.010 -16.125 -25.049  0.00  0.00    +0.233 C 
ATOM     20  H   UNL     1      32.892 -14.451 -24.644  0.00  0.00    +0.145 HD
ATOM     21  H   UNL     1      33.902 -14.953 -23.366  0.00  0.00    +0.145 HD
ENDBRANCH  16  19
ENDBRANCH  14  16
ENDBRANCH   1  14
TORSDOF 5
ENDMDL
MODEL 2
REMARK VINA RESULT:      -8.3      1.031      4.335
REMARK  Name = 9690109
REMARK  5 active torsions:
REMARK  status: ('A' for Active; 'I' for Inactive)
REMARK    1  A    between atoms: C_1  and  C_2
REMARK    2  A    between atoms: C_1  and  C_8
REMARK    3  A    between atoms: C_1  and  S_14
REMARK    4  A    between atoms: S_14  and  C_16
REMARK    5  A    between atoms: C_16  and  C_19
REMARK                            x       y       z     vdW  Elec       q    Type
REMARK                         _______ _______ _______ _____ _____    ______ ____
ROOT
ATOM      1  C   UNL     1      34.029 -18.848 -21.894  0.00  0.00    +0.124 C 
ENDROOT
BRANCH   1   2
ATOM      2  C   UNL     1      33.809 -17.488 -21.323  0.00  0.00    -0.006 C 
ATOM      3  C   UNL     1      34.900 -16.710 -20.935  0.00  0.00    -0.003 C 
ATOM      4  C   UNL     1      32.512 -16.995 -21.176  0.00  0.00    -0.003 C 
ATOM      5  C   UNL     1      34.694 -15.438 -20.400  0.00  0.00    -0.000 C 
ATOM      6  C   UNL     1      32.306 -15.723 -20.641  0.00  0.00    -0.000 C 
ATOM      7  C   UNL     1      33.397 -14.945 -20.254  0.00  0.00    -0.000 C 
ENDBRANCH   1   2
BRANCH   1   8
ATOM      8  C   UNL     1      34.313 -19.928 -20.851  0.00  0.00    -0.006 C 
ATOM      9  C   UNL     1      35.622 -20.244 -20.564  0.00  0.00    -0.003 C 
ATOM     10  C   UNL     1      33.248 -20.547 -20.234  0.00  0.00    -0.003 C 
ATOM     11  C   UNL     1      35.880 -21.230 -19.613  0.00  0.00    -0.000 C 
ATOM     12  C   UNL     1      33.506 -21.533 -19.282  0.00  0.00    -0.000 C 
ATOM     13  C   UNL     1      34.822 -21.874 -18.971  0.00  0.00    -0.000 C 
ENDBRANCH   1   8
BRANCH   1  14
ATOM     14  S   UNL     1      35.280 -18.877 -23.258  0.00  0.00    +0.058 S 
ATOM     15  O   UNL     1      36.208 -17.747 -22.985  0.00  0.00    -0.255 OA
BRANCH  14  16
ATOM     16  C   UNL     1      34.111 -18.356 -24.531  0.00  0.00    +0.177 C 
BRANCH  16  19
ATOM     17  O   UNL     1      35.168 -16.822 -26.052  0.00  0.00    -0.274 OA
ATOM     18  N   UNL     1      33.944 -15.959 -24.309  0.00  0.00    -0.328 N 
ATOM     19  C   UNL     1      34.472 -16.988 -25.053  0.00  0.00    +0.233 C 
ATOM     20  H   UNL     1      34.121 -15.025 -24.566  0.00  0.00    +0.145 HD
ATOM     21  H   UNL     1      33.390 -16.154 -23.520  0.00  0.00    +0.145 HD
ENDBRANCH  16  19
ENDBRANCH  14  16
ENDBRANCH   1  14
TORSDOF 5
ENDMDL
MODEL 3
REMARK VINA RESULT:      -7.7      3.230      6.444
REMARK  Name = 9690109
REMARK  5 active torsions:
REMARK  status: ('A' for Active; 'I' for Inactive)
REMARK    1  A    between atoms: C_1  and  C_2
REMARK    2  A    between atoms: C_1  and  C_8
REMARK    3  A    between atoms: C_1  and  S_14
REMARK    4  A    between atoms: S_14  and  C_16
REMARK    5  A    between atoms: C_16  and  C_19
REMARK                            x       y       z     vdW  Elec       q    Type
REMARK                         _______ _______ _______ _____ _____    ______ ____
ROOT
ATOM      1  C   UNL     1      32.954 -14.092 -22.915  0.00  0.00    +0.124 C 
ENDROOT
BRANCH   1   2
ATOM      2  C   UNL     1      33.142 -13.634 -24.322  0.00  0.00    -0.006 C 
ATOM      3  C   UNL     1      32.740 -14.449 -25.380  0.00  0.00    -0.003 C 
ATOM      4  C   UNL     1      33.721 -12.392 -24.579  0.00  0.00    -0.003 C 
ATOM      5  C   UNL     1      32.917 -14.021 -26.697  0.00  0.00    -0.000 C 
ATOM      6  C   UNL     1      33.899 -11.964 -25.895  0.00  0.00    -0.000 C 
ATOM      7  C   UNL     1      33.496 -12.778 -26.953  0.00  0.00    -0.000 C 
ENDBRANCH   1   2
BRANCH   1   8
ATOM      8  C   UNL     1      32.304 -13.056 -22.000  0.00  0.00    -0.006 C 
ATOM      9  C   UNL     1      32.463 -13.183 -20.638  0.00  0.00    -0.003 C 
ATOM     10  C   UNL     1      31.582 -12.031 -22.571  0.00  0.00    -0.003 C 
ATOM     11  C   UNL     1      31.869 -12.237 -19.803  0.00  0.00    -0.000 C 
ATOM     12  C   UNL     1      30.987 -11.085 -21.735  0.00  0.00    -0.000 C 
ATOM     13  C   UNL     1      31.131 -11.188 -20.352  0.00  0.00    -0.000 C 
ENDBRANCH   1   8
BRANCH   1  14
ATOM     14  S   UNL     1      34.491 -14.794 -22.161  0.00  0.00    +0.058 S 
ATOM     15  O   UNL     1      35.343 -15.231 -23.300  0.00  0.00    -0.255 OA
BRANCH  14  16
ATOM     16  C   UNL     1      33.663 -16.248 -21.483  0.00  0.00    +0.177 C 
BRANCH  16  19
ATOM     17  O   UNL     1      35.333 -17.730 -20.588  0.00  0.00    -0.274 OA
ATOM     18  N   UNL     1      34.487 -18.175 -22.678  0.00  0.00    -0.328 N 
ATOM     19  C   UNL     1      34.581 -17.444 -21.517  0.00  0.00    +0.233 C 
ATOM     20  H   UNL     1      35.045 -18.978 -22.801  0.00  0.00    +0.145 HD
ATOM     21  H   UNL     1      33.862 -17.899 -23.386  0.00  0.00    +0.145 HD
ENDBRANCH  16  19
ENDBRANCH  14  16
ENDBRANCH   1  14
TORSDOF 5
ENDMDL
MODEL 4
REMARK VINA RESULT:      -7.6      7.922     10.648
REMARK  Name = 9690109
REMARK  5 active torsions:
REMARK  status: ('A' for Active; 'I' for Inactive)
REMARK    1  A    between atoms: C_1  and  C_2
REMARK    2  A    between atoms: C_1  and  C_8
REMARK    3  A    between atoms: C_1  and  S_14
REMARK    4  A    between atoms: S_14  and  C_16
REMARK    5  A    between atoms: C_16  and  C_19
REMARK                            x       y       z     vdW  Elec       q    Type
REMARK                         _______ _______ _______ _____ _____    ______ ____
ROOT
ATOM      1  C   UNL     1      34.676 -23.930 -15.132  0.00  0.00    +0.124 C 
ENDROOT
BRANCH   1   2
ATOM      2  C   UNL     1      34.915 -23.200 -16.411  0.00  0.00    -0.006 C 
ATOM      3  C   UNL     1      36.114 -22.516 -16.612  0.00  0.00    -0.003 C 
ATOM      4  C   UNL     1      33.938 -23.201 -17.407  0.00  0.00    -0.003 C 
ATOM      5  C   UNL     1      36.336 -21.833 -17.808  0.00  0.00    -0.000 C 
ATOM      6  C   UNL     1      34.160 -22.518 -18.603  0.00  0.00    -0.000 C 
ATOM      7  C   UNL     1      35.359 -21.835 -18.803  0.00  0.00    -0.000 C 
ENDBRANCH   1   2
BRANCH   1   8
ATOM      8  C   UNL     1      33.228 -23.890 -14.648  0.00  0.00    -0.006 C 
ATOM      9  C   UNL     1      32.558 -22.687 -14.663  0.00  0.00    -0.003 C 
ATOM     10  C   UNL     1      32.644 -25.059 -14.214  0.00  0.00    -0.003 C 
ATOM     11  C   UNL     1      31.237 -22.651 -14.220  0.00  0.00    -0.000 C 
ATOM     12  C   UNL     1      31.322 -25.023 -13.770  0.00  0.00    -0.000 C 
ATOM     13  C   UNL     1      30.619 -23.819 -13.774  0.00  0.00    -0.000 C 
ENDBRANCH   1   8
BRANCH   1  14
ATOM     14  S   UNL     1      35.855 -23.454 -13.787  0.00  0.00    +0.058 S 
ATOM     15  O   UNL     1      37.081 -24.267 -14.011  0.00  0.00    -0.255 OA
BRANCH  14  16
ATOM     16  C   UNL     1      34.891 -24.233 -12.475  0.00  0.00    +0.177 C 
BRANCH  16  19
ATOM     17  O   UNL     1      35.379 -25.030 -10.259  0.00  0.00    -0.274 OA
ATOM     18  N   UNL     1      36.804 -23.494 -11.203  0.00  0.00    -0.328 N 
ATOM     19  C   UNL     1      35.694 -24.306 -11.201  0.00  0.00    +0.233 C 
ATOM     20  H   UNL     1      37.397 -23.469 -10.417  0.00  0.00    +0.145 HD
ATOM     21  H   UNL     1      37.008 -22.939 -11.990  0.00  0.00    +0.145 HD
ENDBRANCH  16  19
ENDBRANCH  14  16
ENDBRANCH   1  14
TORSDOF 5
ENDMDL
MODEL 5
REMARK VINA RESULT:      -7.6      8.532     10.267
REMARK  Name = 9690109
REMARK  5 active torsions:
REMARK  status: ('A' for Active; 'I' for Inactive)
REMARK    1  A    between atoms: C_1  and  C_2
REMARK    2  A    between atoms: C_1  and  C_8
REMARK    3  A    between atoms: C_1  and  S_14
REMARK    4  A    between atoms: S_14  and  C_16
REMARK    5  A    between atoms: C_16  and  C_19
REMARK                            x       y       z     vdW  Elec       q    Type
REMARK                         _______ _______ _______ _____ _____    ______ ____
ROOT
ATOM      1  C   UNL     1      32.572  -8.540 -22.465  0.00  0.00    +0.124 C 
ENDROOT
BRANCH   1   2
ATOM      2  C   UNL     1      33.401  -9.271 -23.466  0.00  0.00    -0.006 C 
ATOM      3  C   UNL     1      33.022 -10.544 -23.890  0.00  0.00    -0.003 C 
ATOM      4  C   UNL     1      34.557  -8.681 -23.978  0.00  0.00    -0.003 C 
ATOM      5  C   UNL     1      33.798 -11.228 -24.826  0.00  0.00    -0.000 C 
ATOM      6  C   UNL     1      35.334  -9.365 -24.914  0.00  0.00    -0.000 C 
ATOM      7  C   UNL     1      34.953 -10.638 -25.338  0.00  0.00    -0.000 C 
ENDBRANCH   1   2
BRANCH   1   8
ATOM      8  C   UNL     1      32.066  -9.410 -21.315  0.00  0.00    -0.006 C 
ATOM      9  C   UNL     1      32.377  -9.047 -20.024  0.00  0.00    -0.003 C 
ATOM     10  C   UNL     1      31.315 -10.525 -21.613  0.00  0.00    -0.003 C 
ATOM     11  C   UNL     1      31.915  -9.842 -18.975  0.00  0.00    -0.000 C 
ATOM     12  C   UNL     1      30.853 -11.321 -20.563  0.00  0.00    -0.000 C 
ATOM     13  C   UNL     1      31.153 -10.979 -19.246  0.00  0.00    -0.000 C 
ENDBRANCH   1   8
BRANCH   1  14
ATOM     14  S   UNL     1      31.202  -7.556 -23.226  0.00  0.00    +0.058 S 
ATOM     15  O   UNL     1      31.424  -7.616 -24.696  0.00  0.00    -0.255 OA
BRANCH  14  16
ATOM     16  C   UNL     1      31.818  -5.969 -22.625  0.00  0.00    +0.177 C 
BRANCH  16  19
ATOM     17  O   UNL     1      30.221  -4.244 -22.120  0.00  0.00    -0.274 OA
ATOM     18  N   UNL     1      30.766  -4.614 -24.321  0.00  0.00    -0.328 N 
ATOM     19  C   UNL     1      30.856  -4.862 -22.971  0.00  0.00    +0.233 C 
ATOM     20  H   UNL     1      30.164  -3.908 -24.653  0.00  0.00    +0.145 HD
ATOM     21  H   UNL     1      31.303  -5.139 -24.956  0.00  0.00    +0.145 HD
ENDBRANCH  16  19
ENDBRANCH  14  16
ENDBRANCH   1  14
TORSDOF 5
ENDMDL
MODEL 6
REMARK VINA RESULT:      -7.5      6.236      9.494
REMARK  Name = 9690109
REMARK  5 active torsions:
REMARK  status: ('A' for Active; 'I' for Inactive)
REMARK    1  A    between atoms: C_1  and  C_2
REMARK    2  A    between atoms: C_1  and  C_8
REMARK    3  A    between atoms: C_1  and  S_14
REMARK    4  A    between atoms: S_14  and  C_16
REMARK    5  A    between atoms: C_16  and  C_19
REMARK                            x       y       z     vdW  Elec       q    Type
REMARK                         _______ _______ _______ _____ _____    ______ ____
ROOT
ATOM      1  C   UNL     1      32.259  -9.900 -23.336  0.00  0.00    +0.124 C 
ENDROOT
BRANCH   1   2
ATOM      2  C   UNL     1      32.419  -8.486 -23.780  0.00  0.00    -0.006 C 
ATOM      3  C   UNL     1      33.695  -7.949 -23.954  0.00  0.00    -0.003 C 
ATOM      4  C   UNL     1      31.292  -7.699 -24.021  0.00  0.00    -0.003 C 
ATOM      5  C   UNL     1      33.844  -6.625 -24.369  0.00  0.00    -0.000 C 
ATOM      6  C   UNL     1      31.441  -6.375 -24.436  0.00  0.00    -0.000 C 
ATOM      7  C   UNL     1      32.717  -5.839 -24.610  0.00  0.00    -0.000 C 
ENDBRANCH   1   2
BRANCH   1   8
ATOM      8  C   UNL     1      31.870 -10.056 -21.867  0.00  0.00    -0.006 C 
ATOM      9  C   UNL     1      32.396  -9.177 -20.946  0.00  0.00    -0.003 C 
ATOM     10  C   UNL     1      31.008 -11.071 -21.516  0.00  0.00    -0.003 C 
ATOM     11  C   UNL     1      32.041  -9.320 -19.605  0.00  0.00    -0.000 C 
ATOM     12  C   UNL     1      30.653 -11.214 -20.174  0.00  0.00    -0.000 C 
ATOM     13  C   UNL     1      31.170 -10.339 -19.220  0.00  0.00    -0.000 C 
ENDBRANCH   1   8
BRANCH   1  14
ATOM     14  S   UNL     1      33.703 -10.973 -23.773  0.00  0.00    +0.058 S 
ATOM     15  O   UNL     1      33.745 -11.016 -25.260  0.00  0.00    -0.255 OA
BRANCH  14  16
ATOM     16  C   UNL     1      32.929 -12.495 -23.185  0.00  0.00    +0.177 C 
BRANCH  16  19
ATOM     17  O   UNL     1      34.480 -14.327 -23.330  0.00  0.00    -0.274 OA
ATOM     18  N   UNL     1      32.998 -14.015 -25.058  0.00  0.00    -0.328 N 
ATOM     19  C   UNL     1      33.558 -13.697 -23.842  0.00  0.00    +0.233 C 
ATOM     20  H   UNL     1      33.337 -14.785 -25.570  0.00  0.00    +0.145 HD
ATOM     21  H   UNL     1      32.257 -13.475 -25.416  0.00  0.00    +0.145 HD
ENDBRANCH  16  19
ENDBRANCH  14  16
ENDBRANCH   1  14
TORSDOF 5
ENDMDL
MODEL 7
REMARK VINA RESULT:      -7.5      6.676      9.285
REMARK  Name = 9690109
REMARK  5 active torsions:
REMARK  status: ('A' for Active; 'I' for Inactive)
REMARK    1  A    between atoms: C_1  and  C_2
REMARK    2  A    between atoms: C_1  and  C_8
REMARK    3  A    between atoms: C_1  and  S_14
REMARK    4  A    between atoms: S_14  and  C_16
REMARK    5  A    between atoms: C_16  and  C_19
REMARK                            x       y       z     vdW  Elec       q    Type
REMARK                         _______ _______ _______ _____ _____    ______ ____
ROOT
ATOM      1  C   UNL     1      34.194 -23.440 -16.660  0.00  0.00    +0.124 C 
ENDROOT
BRANCH   1   2
ATOM      2  C   UNL     1      34.460 -22.554 -17.829  0.00  0.00    -0.006 C 
ATOM      3  C   UNL     1      33.418 -22.197 -18.686  0.00  0.00    -0.003 C 
ATOM      4  C   UNL     1      35.751 -22.082 -18.068  0.00  0.00    -0.003 C 
ATOM      5  C   UNL     1      33.667 -21.368 -19.780  0.00  0.00    -0.000 C 
ATOM      6  C   UNL     1      36.000 -21.254 -19.163  0.00  0.00    -0.000 C 
ATOM      7  C   UNL     1      34.958 -20.897 -20.018  0.00  0.00    -0.000 C 
ENDBRANCH   1   2
BRANCH   1   8
ATOM      8  C   UNL     1      32.823 -23.235 -16.017  0.00  0.00    -0.006 C 
ATOM      9  C   UNL     1      32.753 -23.048 -14.654  0.00  0.00    -0.003 C 
ATOM     10  C   UNL     1      31.707 -23.246 -16.823  0.00  0.00    -0.003 C 
ATOM     11  C   UNL     1      31.502 -22.862 -14.068  0.00  0.00    -0.000 C 
ATOM     12  C   UNL     1      30.455 -23.060 -16.236  0.00  0.00    -0.000 C 
ATOM     13  C   UNL     1      30.353 -22.868 -14.859  0.00  0.00    -0.000 C 
ENDBRANCH   1   8
BRANCH   1  14
ATOM     14  S   UNL     1      35.547 -23.412 -15.397  0.00  0.00    +0.058 S 
ATOM     15  O   UNL     1      36.822 -23.392 -16.164  0.00  0.00    -0.255 OA
BRANCH  14  16
ATOM     16  C   UNL     1      35.250 -25.103 -14.838  0.00  0.00    +0.177 C 
BRANCH  16  19
ATOM     17  O   UNL     1      36.384 -26.927 -15.920  0.00  0.00    -0.274 OA
ATOM     18  N   UNL     1      37.582 -25.605 -14.471  0.00  0.00    -0.328 N 
ATOM     19  C   UNL     1      36.440 -25.978 -15.142  0.00  0.00    +0.233 C 
ATOM     20  H   UNL     1      38.416 -26.113 -14.600  0.00  0.00    +0.145 HD
ATOM     21  H   UNL     1      37.566 -24.832 -13.862  0.00  0.00    +0.145 HD
ENDBRANCH  16  19
ENDBRANCH  14  16
ENDBRANCH   1  14
TORSDOF 5
ENDMDL
MODEL 8
REMARK VINA RESULT:      -7.4      7.718     10.466
REMARK  Name = 9690109
REMARK  5 active torsions:
REMARK  status: ('A' for Active; 'I' for Inactive)
REMARK    1  A    between atoms: C_1  and  C_2
REMARK    2  A    between atoms: C_1  and  C_8
REMARK    3  A    between atoms: C_1  and  S_14
REMARK    4  A    between atoms: S_14  and  C_16
REMARK    5  A    between atoms: C_16  and  C_19
REMARK                            x       y       z     vdW  Elec       q    Type
REMARK                         _______ _______ _______ _____ _____    ______ ____
ROOT
ATOM      1  C   UNL     1      32.295  -8.775 -23.164  0.00  0.00    +0.124 C 
ENDROOT
BRANCH   1   2
ATOM      2  C   UNL     1      31.868  -7.348 -23.239  0.00  0.00    -0.006 C 
ATOM      3  C   UNL     1      31.187  -6.882 -24.364  0.00  0.00    -0.003 C 
ATOM      4  C   UNL     1      32.150  -6.479 -22.185  0.00  0.00    -0.003 C 
ATOM      5  C   UNL     1      30.788  -5.547 -24.435  0.00  0.00    -0.000 C 
ATOM      6  C   UNL     1      31.751  -5.143 -22.256  0.00  0.00    -0.000 C 
ATOM      7  C   UNL     1      31.070  -4.679 -23.380  0.00  0.00    -0.000 C 
ENDBRANCH   1   2
BRANCH   1   8
ATOM      8  C   UNL     1      31.873  -9.488 -21.881  0.00  0.00    -0.006 C 
ATOM      9  C   UNL     1      31.083 -10.612 -21.977  0.00  0.00    -0.003 C 
ATOM     10  C   UNL     1      32.300  -8.982 -20.673  0.00  0.00    -0.003 C 
ATOM     11  C   UNL     1      30.698 -11.262 -20.805  0.00  0.00    -0.000 C 
ATOM     12  C   UNL     1      31.914  -9.633 -19.500  0.00  0.00    -0.000 C 
ATOM     13  C   UNL     1      31.114 -10.773 -19.567  0.00  0.00    -0.000 C 
ENDBRANCH   1   8
BRANCH   1  14
ATOM     14  S   UNL     1      34.095  -9.020 -23.517  0.00  0.00    +0.058 S 
ATOM     15  O   UNL     1      34.387  -8.215 -24.734  0.00  0.00    -0.255 OA
BRANCH  14  16
ATOM     16  C   UNL     1      33.907 -10.746 -24.012  0.00  0.00    +0.177 C 
BRANCH  16  19
ATOM     17  O   UNL     1      34.045 -11.644 -26.238  0.00  0.00    -0.274 OA
ATOM     18  N   UNL     1      35.816 -10.411 -25.449  0.00  0.00    -0.328 N 
ATOM     19  C   UNL     1      34.573 -10.991 -25.342  0.00  0.00    +0.233 C 
ATOM     20  H   UNL     1      36.336 -10.511 -26.279  0.00  0.00    +0.145 HD
ATOM     21  H   UNL     1      36.186  -9.894 -24.697  0.00  0.00    +0.145 HD
ENDBRANCH  16  19
ENDBRANCH  14  16
ENDBRANCH   1  14
TORSDOF 5
ENDMDL
MODEL 9
REMARK VINA RESULT:      -7.4      7.352     10.521
REMARK  Name = 9690109
REMARK  5 active torsions:
REMARK  status: ('A' for Active; 'I' for Inactive)
REMARK    1  A    between atoms: C_1  and  C_2
REMARK    2  A    between atoms: C_1  and  C_8
REMARK    3  A    between atoms: C_1  and  S_14
REMARK    4  A    between atoms: S_14  and  C_16
REMARK    5  A    between atoms: C_16  and  C_19
REMARK                            x       y       z     vdW  Elec       q    Type
REMARK                         _______ _______ _______ _____ _____    ______ ____
ROOT
ATOM      1  C   UNL     1      34.440 -23.368 -15.292  0.00  0.00    +0.124 C 
ENDROOT
BRANCH   1   2
ATOM      2  C   UNL     1      35.031 -22.768 -16.523  0.00  0.00    -0.006 C 
ATOM      3  C   UNL     1      36.316 -22.225 -16.487  0.00  0.00    -0.003 C 
ATOM      4  C   UNL     1      34.299 -22.749 -17.710  0.00  0.00    -0.003 C 
ATOM      5  C   UNL     1      36.868 -21.663 -17.638  0.00  0.00    -0.000 C 
ATOM      6  C   UNL     1      34.852 -22.187 -18.862  0.00  0.00    -0.000 C 
ATOM      7  C   UNL     1      36.136 -21.645 -18.825  0.00  0.00    -0.000 C 
ENDBRANCH   1   2
BRANCH   1   8
ATOM      8  C   UNL     1      35.371 -24.327 -14.552  0.00  0.00    -0.006 C 
ATOM      9  C   UNL     1      35.743 -24.024 -13.262  0.00  0.00    -0.003 C 
ATOM     10  C   UNL     1      35.806 -25.460 -15.204  0.00  0.00    -0.003 C 
ATOM     11  C   UNL     1      36.594 -24.899 -12.587  0.00  0.00    -0.000 C 
ATOM     12  C   UNL     1      36.657 -26.335 -14.529  0.00  0.00    -0.000 C 
ATOM     13  C   UNL     1      37.050 -26.055 -13.221  0.00  0.00    -0.000 C 
ENDBRANCH   1   8
BRANCH   1  14
ATOM     14  S   UNL     1      32.773 -24.122 -15.573  0.00  0.00    +0.058 S 
ATOM     15  O   UNL     1      31.848 -22.985 -15.830  0.00  0.00    -0.255 OA
BRANCH  14  16
ATOM     16  C   UNL     1      32.565 -24.643 -13.857  0.00  0.00    +0.177 C 
BRANCH  16  19
ATOM     17  O   UNL     1      30.672 -24.002 -12.519  0.00  0.00    -0.274 OA
ATOM     18  N   UNL     1      30.321 -25.409 -14.302  0.00  0.00    -0.328 N 
ATOM     19  C   UNL     1      31.107 -24.639 -13.476  0.00  0.00    +0.233 C 
ATOM     20  H   UNL     1      29.352 -25.474 -14.139  0.00  0.00    +0.145 HD
ATOM     21  H   UNL     1      30.725 -25.894 -15.057  0.00  0.00    +0.145 HD
ENDBRANCH  16  19
ENDBRANCH  14  16
ENDBRANCH   1  14
TORSDOF 5
ENDMDL
