MODEL 1
REMARK VINA RESULT:      -9.9      0.000      0.000
REMARK  Name = 3826
REMARK  4 active torsions:
REMARK  status: ('A' for Active; 'I' for Inactive)
REMARK    1  A    between atoms: C_2  and  C_10
REMARK    2  A    between atoms: C_6  and  C_14
REMARK    3  A    between atoms: C_10  and  O_11
REMARK    4  A    between atoms: C_14  and  C_15
REMARK                            x       y       z     vdW  Elec       q    Type
REMARK                         _______ _______ _______ _____ _____    ______ ____
ROOT
ATOM      1  N   UNL     1      32.935 -23.149 -16.529  0.00  0.00    -0.287 N 
ATOM      2  C   UNL     1      32.086 -23.303 -14.349  0.00  0.00    +0.136 C 
ATOM      3  C   UNL     1      30.935 -22.998 -15.345  0.00  0.00    +0.039 C 
ATOM      4  C   UNL     1      31.508 -23.250 -16.754  0.00  0.00    +0.096 C 
ATOM      5  C   UNL     1      33.281 -23.181 -15.210  0.00  0.00    +0.039 C 
ATOM      6  C   UNL     1      34.014 -23.024 -17.327  0.00  0.00    +0.091 C 
ATOM      7  C   UNL     1      34.644 -23.074 -15.132  0.00  0.00    +0.012 C 
ATOM      8  C   UNL     1      35.111 -22.976 -16.480  0.00  0.00    +0.019 C 
ENDROOT
BRANCH   2  10
ATOM      9  O   UNL     1      31.133 -25.483 -14.179  0.00  0.00    -0.250 OA
ATOM     10  C   UNL     1      32.001 -24.700 -13.826  0.00  0.00    +0.319 C 
BRANCH  10  11
ATOM     11  O   UNL     1      32.983 -24.978 -12.936  0.00  0.00    -0.480 OA
ATOM     12  H   UNL     1      33.709 -24.393 -12.842  0.00  0.00    +0.295 HD
ENDBRANCH  10  11
ENDBRANCH   2  10
BRANCH   6  14
ATOM     13  O   UNL     1      33.872 -23.997 -19.449  0.00  0.00    -0.285 OA
ATOM     14  C   UNL     1      33.986 -22.961 -18.754  0.00  0.00    +0.209 C 
BRANCH  14  15
ATOM     15  C   UNL     1      34.091 -21.670 -19.525  0.00  0.00    +0.040 C 
ATOM     16  C   UNL     1      35.336 -21.242 -19.899  0.00  0.00    +0.003 C 
ATOM     17  C   UNL     1      32.934 -20.996 -19.812  0.00  0.00    +0.003 C 
ATOM     18  C   UNL     1      35.432 -20.047 -20.613  0.00  0.00    +0.000 C 
ATOM     19  C   UNL     1      33.031 -19.802 -20.526  0.00  0.00    +0.000 C 
ATOM     20  C   UNL     1      34.279 -19.327 -20.926  0.00  0.00    +0.000 C 
ENDBRANCH  14  15
ENDBRANCH   6  14
TORSDOF 4
ENDMDL
MODEL 2
REMARK VINA RESULT:      -9.3      1.884      2.649
REMARK  Name = 3826
REMARK  4 active torsions:
REMARK  status: ('A' for Active; 'I' for Inactive)
REMARK    1  A    between atoms: C_2  and  C_10
REMARK    2  A    between atoms: C_6  and  C_14
REMARK    3  A    between atoms: C_10  and  O_11
REMARK    4  A    between atoms: C_14  and  C_15
REMARK                            x       y       z     vdW  Elec       q    Type
REMARK                         _______ _______ _______ _____ _____    ______ ____
ROOT
ATOM      1  N   UNL     1      34.896 -22.912 -16.754  0.00  0.00    -0.287 N 
ATOM      2  C   UNL     1      35.346 -23.406 -14.508  0.00  0.00    +0.136 C 
ATOM      3  C   UNL     1      33.827 -23.554 -14.787  0.00  0.00    +0.039 C 
ATOM      4  C   UNL     1      33.670 -23.551 -16.321  0.00  0.00    +0.096 C 
ATOM      5  C   UNL     1      35.839 -22.824 -15.773  0.00  0.00    +0.039 C 
ATOM      6  C   UNL     1      35.325 -22.373 -17.913  0.00  0.00    +0.091 C 
ATOM      7  C   UNL     1      36.938 -22.202 -16.304  0.00  0.00    +0.012 C 
ATOM      8  C   UNL     1      36.612 -21.917 -17.667  0.00  0.00    +0.019 C 
ENDROOT
BRANCH   2  10
ATOM      9  O   UNL     1      36.557 -25.344 -15.191  0.00  0.00    -0.250 OA
ATOM     10  C   UNL     1      35.996 -24.734 -14.294  0.00  0.00    +0.319 C 
BRANCH  10  11
ATOM     11  O   UNL     1      35.887 -25.161 -13.014  0.00  0.00    -0.480 OA
ATOM     12  H   UNL     1      35.097 -25.007 -12.534  0.00  0.00    +0.295 HD
ENDBRANCH  10  11
ENDBRANCH   2  10
BRANCH   6  14
ATOM     13  O   UNL     1      34.042 -23.330 -19.617  0.00  0.00    -0.285 OA
ATOM     14  C   UNL     1      34.574 -22.308 -19.126  0.00  0.00    +0.209 C 
BRANCH  14  15
ATOM     15  C   UNL     1      34.362 -21.031 -19.900  0.00  0.00    +0.040 C 
ATOM     16  C   UNL     1      33.084 -20.559 -20.027  0.00  0.00    +0.003 C 
ATOM     17  C   UNL     1      35.462 -20.413 -20.433  0.00  0.00    +0.003 C 
ATOM     18  C   UNL     1      32.889 -19.378 -20.743  0.00  0.00    +0.000 C 
ATOM     19  C   UNL     1      35.266 -19.232 -21.149  0.00  0.00    +0.000 C 
ATOM     20  C   UNL     1      33.981 -18.715 -21.304  0.00  0.00    +0.000 C 
ENDBRANCH  14  15
ENDBRANCH   6  14
TORSDOF 4
ENDMDL
MODEL 3
REMARK VINA RESULT:      -9.1      5.543      9.370
REMARK  Name = 3826
REMARK  4 active torsions:
REMARK  status: ('A' for Active; 'I' for Inactive)
REMARK    1  A    between atoms: C_2  and  C_10
REMARK    2  A    between atoms: C_6  and  C_14
REMARK    3  A    between atoms: C_10  and  O_11
REMARK    4  A    between atoms: C_14  and  C_15
REMARK                            x       y       z     vdW  Elec       q    Type
REMARK                         _______ _______ _______ _____ _____    ______ ____
ROOT
ATOM      1  N   UNL     1      34.371 -16.658 -22.532  0.00  0.00    -0.287 N 
ATOM      2  C   UNL     1      33.101 -14.849 -23.314  0.00  0.00    +0.136 C 
ATOM      3  C   UNL     1      32.885 -15.026 -21.787  0.00  0.00    +0.039 C 
ATOM      4  C   UNL     1      33.990 -15.988 -21.305  0.00  0.00    +0.096 C 
ATOM      5  C   UNL     1      33.897 -16.046 -23.655  0.00  0.00    +0.039 C 
ATOM      6  C   UNL     1      35.088 -17.761 -22.826  0.00  0.00    +0.091 C 
ATOM      7  C   UNL     1      34.319 -16.773 -24.736  0.00  0.00    +0.012 C 
ATOM      8  C   UNL     1      35.079 -17.864 -24.209  0.00  0.00    +0.019 C 
ENDROOT
BRANCH   2  10
ATOM      9  O   UNL     1      33.874 -13.070 -24.701  0.00  0.00    -0.250 OA
ATOM     10  C   UNL     1      33.904 -13.626 -23.614  0.00  0.00    +0.319 C 
BRANCH  10  11
ATOM     11  O   UNL     1      34.646 -13.223 -22.556  0.00  0.00    -0.480 OA
ATOM     12  H   UNL     1      35.560 -13.426 -22.519  0.00  0.00    +0.295 HD
ENDBRANCH  10  11
ENDBRANCH   2  10
BRANCH   6  14
ATOM     13  O   UNL     1      36.954 -18.587 -21.684  0.00  0.00    -0.285 OA
ATOM     14  C   UNL     1      35.716 -18.619 -21.873  0.00  0.00    +0.209 C 
BRANCH  14  15
ATOM     15  C   UNL     1      34.957 -19.616 -21.034  0.00  0.00    +0.040 C 
ATOM     16  C   UNL     1      33.591 -19.540 -21.021  0.00  0.00    +0.003 C 
ATOM     17  C   UNL     1      35.678 -20.545 -20.330  0.00  0.00    +0.003 C 
ATOM     18  C   UNL     1      32.890 -20.464 -20.244  0.00  0.00    +0.000 C 
ATOM     19  C   UNL     1      34.976 -21.467 -19.554  0.00  0.00    +0.000 C 
ATOM     20  C   UNL     1      33.583 -21.426 -19.511  0.00  0.00    +0.000 C 
ENDBRANCH  14  15
ENDBRANCH   6  14
TORSDOF 4
ENDMDL
MODEL 4
REMARK VINA RESULT:      -9.1      3.741      6.198
REMARK  Name = 3826
REMARK  4 active torsions:
REMARK  status: ('A' for Active; 'I' for Inactive)
REMARK    1  A    between atoms: C_2  and  C_10
REMARK    2  A    between atoms: C_6  and  C_14
REMARK    3  A    between atoms: C_10  and  O_11
REMARK    4  A    between atoms: C_14  and  C_15
REMARK                            x       y       z     vdW  Elec       q    Type
REMARK                         _______ _______ _______ _____ _____    ______ ____
ROOT
ATOM      1  N   UNL     1      35.271 -19.740 -20.494  0.00  0.00    -0.287 N 
ATOM      2  C   UNL     1      35.633 -21.918 -19.706  0.00  0.00    +0.136 C 
ATOM      3  C   UNL     1      36.963 -21.320 -20.239  0.00  0.00    +0.039 C 
ATOM      4  C   UNL     1      36.715 -19.808 -20.411  0.00  0.00    +0.096 C 
ATOM      5  C   UNL     1      34.649 -20.891 -20.106  0.00  0.00    +0.039 C 
ATOM      6  C   UNL     1      34.386 -18.797 -20.875  0.00  0.00    +0.091 C 
ATOM      7  C   UNL     1      33.299 -20.700 -20.234  0.00  0.00    +0.012 C 
ATOM      8  C   UNL     1      33.131 -19.367 -20.722  0.00  0.00    +0.019 C 
ENDROOT
BRANCH   2  10
ATOM      9  O   UNL     1      36.505 -21.519 -17.522  0.00  0.00    -0.250 OA
ATOM     10  C   UNL     1      35.642 -22.033 -18.217  0.00  0.00    +0.319 C 
BRANCH  10  11
ATOM     11  O   UNL     1      34.599 -22.759 -17.750  0.00  0.00    -0.480 OA
ATOM     12  H   UNL     1      34.528 -23.669 -17.963  0.00  0.00    +0.295 HD
ENDBRANCH  10  11
ENDBRANCH   2  10
BRANCH   6  14
ATOM     13  O   UNL     1      35.203 -16.628 -20.560  0.00  0.00    -0.285 OA
ATOM     14  C   UNL     1      34.719 -17.486 -21.335  0.00  0.00    +0.209 C 
BRANCH  14  15
ATOM     15  C   UNL     1      34.521 -17.035 -22.760  0.00  0.00    +0.040 C 
ATOM     16  C   UNL     1      34.854 -17.905 -23.763  0.00  0.00    +0.003 C 
ATOM     17  C   UNL     1      34.018 -15.780 -22.973  0.00  0.00    +0.003 C 
ATOM     18  C   UNL     1      34.669 -17.487 -25.081  0.00  0.00    +0.000 C 
ATOM     19  C   UNL     1      33.835 -15.363 -24.292  0.00  0.00    +0.000 C 
ATOM     20  C   UNL     1      34.161 -16.216 -25.345  0.00  0.00    +0.000 C 
ENDBRANCH  14  15
ENDBRANCH   6  14
TORSDOF 4
ENDMDL
MODEL 5
REMARK VINA RESULT:      -9.0      5.722      9.286
REMARK  Name = 3826
REMARK  4 active torsions:
REMARK  status: ('A' for Active; 'I' for Inactive)
REMARK    1  A    between atoms: C_2  and  C_10
REMARK    2  A    between atoms: C_6  and  C_14
REMARK    3  A    between atoms: C_10  and  O_11
REMARK    4  A    between atoms: C_14  and  C_15
REMARK                            x       y       z     vdW  Elec       q    Type
REMARK                         _______ _______ _______ _____ _____    ______ ____
ROOT
ATOM      1  N   UNL     1      34.259 -15.942 -22.573  0.00  0.00    -0.287 N 
ATOM      2  C   UNL     1      33.869 -13.644 -22.824  0.00  0.00    +0.136 C 
ATOM      3  C   UNL     1      33.992 -14.315 -24.218  0.00  0.00    +0.039 C 
ATOM      4  C   UNL     1      33.903 -15.835 -23.973  0.00  0.00    +0.096 C 
ATOM      5  C   UNL     1      34.243 -14.747 -21.915  0.00  0.00    +0.039 C 
ATOM      6  C   UNL     1      34.613 -16.957 -21.759  0.00  0.00    +0.091 C 
ATOM      7  C   UNL     1      34.600 -14.981 -20.614  0.00  0.00    +0.012 C 
ATOM      8  C   UNL     1      34.833 -16.388 -20.514  0.00  0.00    +0.019 C 
ENDROOT
BRANCH   2  10
ATOM      9  O   UNL     1      32.076 -12.945 -21.415  0.00  0.00    -0.250 OA
ATOM     10  C   UNL     1      32.462 -13.230 -22.538  0.00  0.00    +0.319 C 
BRANCH  10  11
ATOM     11  O   UNL     1      31.694 -13.211 -23.652  0.00  0.00    -0.480 OA
ATOM     12  H   UNL     1      30.856 -13.630 -23.652  0.00  0.00    +0.295 HD
ENDBRANCH  10  11
ENDBRANCH   2  10
BRANCH   6  14
ATOM     13  O   UNL     1      35.011 -18.651 -23.321  0.00  0.00    -0.285 OA
ATOM     14  C   UNL     1      34.724 -18.328 -22.146  0.00  0.00    +0.209 C 
BRANCH  14  15
ATOM     15  C   UNL     1      34.508 -19.475 -21.191  0.00  0.00    +0.040 C 
ATOM     16  C   UNL     1      35.608 -20.148 -20.734  0.00  0.00    +0.003 C 
ATOM     17  C   UNL     1      33.222 -19.781 -20.833  0.00  0.00    +0.003 C 
ATOM     18  C   UNL     1      35.408 -21.209 -19.850  0.00  0.00    +0.000 C 
ATOM     19  C   UNL     1      33.022 -20.842 -19.951  0.00  0.00    +0.000 C 
ATOM     20  C   UNL     1      34.114 -21.556 -19.460  0.00  0.00    +0.000 C 
ENDBRANCH  14  15
ENDBRANCH   6  14
TORSDOF 4
ENDMDL
MODEL 6
REMARK VINA RESULT:      -8.8      6.453     10.448
REMARK  Name = 3826
REMARK  4 active torsions:
REMARK  status: ('A' for Active; 'I' for Inactive)
REMARK    1  A    between atoms: C_2  and  C_10
REMARK    2  A    between atoms: C_6  and  C_14
REMARK    3  A    between atoms: C_10  and  O_11
REMARK    4  A    between atoms: C_14  and  C_15
REMARK                            x       y       z     vdW  Elec       q    Type
REMARK                         _______ _______ _______ _____ _____    ______ ____
ROOT
ATOM      1  N   UNL     1      33.732 -15.150 -22.849  0.00  0.00    -0.287 N 
ATOM      2  C   UNL     1      32.750 -13.692 -24.398  0.00  0.00    +0.136 C 
ATOM      3  C   UNL     1      32.244 -13.363 -22.969  0.00  0.00    +0.039 C 
ATOM      4  C   UNL     1      33.176 -14.118 -21.999  0.00  0.00    +0.096 C 
ATOM      5  C   UNL     1      33.515 -14.936 -24.178  0.00  0.00    +0.039 C 
ATOM      6  C   UNL     1      34.418 -16.290 -22.630  0.00  0.00    +0.091 C 
ATOM      7  C   UNL     1      34.081 -15.976 -24.867  0.00  0.00    +0.012 C 
ATOM      8  C   UNL     1      34.658 -16.837 -23.882  0.00  0.00    +0.019 C 
ENDROOT
BRANCH   2  10
ATOM      9  O   UNL     1      33.810 -12.400 -26.100  0.00  0.00    -0.250 OA
ATOM     10  C   UNL     1      33.672 -12.634 -24.910  0.00  0.00    +0.319 C 
BRANCH  10  11
ATOM     11  O   UNL     1      34.316 -11.986 -23.911  0.00  0.00    -0.480 OA
ATOM     12  H   UNL     1      34.830 -12.468 -23.293  0.00  0.00    +0.295 HD
ENDBRANCH  10  11
ENDBRANCH   2  10
BRANCH   6  14
ATOM     13  O   UNL     1      35.130 -16.022 -20.418  0.00  0.00    -0.285 OA
ATOM     14  C   UNL     1      34.802 -16.793 -21.349  0.00  0.00    +0.209 C 
BRANCH  14  15
ATOM     15  C   UNL     1      34.843 -18.264 -21.018  0.00  0.00    +0.040 C 
ATOM     16  C   UNL     1      33.655 -18.931 -20.898  0.00  0.00    +0.003 C 
ATOM     17  C   UNL     1      36.070 -18.852 -20.856  0.00  0.00    +0.003 C 
ATOM     18  C   UNL     1      33.694 -20.292 -20.592  0.00  0.00    +0.000 C 
ATOM     19  C   UNL     1      36.108 -20.212 -20.549  0.00  0.00    +0.000 C 
ATOM     20  C   UNL     1      34.921 -20.931 -20.417  0.00  0.00    +0.000 C 
ENDBRANCH  14  15
ENDBRANCH   6  14
TORSDOF 4
ENDMDL
MODEL 7
REMARK VINA RESULT:      -8.7      4.826      9.046
REMARK  Name = 3826
REMARK  4 active torsions:
REMARK  status: ('A' for Active; 'I' for Inactive)
REMARK    1  A    between atoms: C_2  and  C_10
REMARK    2  A    between atoms: C_6  and  C_14
REMARK    3  A    between atoms: C_10  and  O_11
REMARK    4  A    between atoms: C_14  and  C_15
REMARK                            x       y       z     vdW  Elec       q    Type
REMARK                         _______ _______ _______ _____ _____    ______ ____
ROOT
ATOM      1  N   UNL     1      34.306 -17.993 -23.002  0.00  0.00    -0.287 N 
ATOM      2  C   UNL     1      34.896 -16.457 -24.671  0.00  0.00    +0.136 C 
ATOM      3  C   UNL     1      34.900 -17.897 -25.252  0.00  0.00    +0.039 C 
ATOM      4  C   UNL     1      34.185 -18.782 -24.211  0.00  0.00    +0.096 C 
ATOM      5  C   UNL     1      34.693 -16.705 -23.229  0.00  0.00    +0.039 C 
ATOM      6  C   UNL     1      34.130 -18.239 -21.688  0.00  0.00    +0.091 C 
ATOM      7  C   UNL     1      34.774 -16.073 -22.017  0.00  0.00    +0.012 C 
ATOM      8  C   UNL     1      34.414 -17.048 -21.036  0.00  0.00    +0.019 C 
ENDROOT
BRANCH   2  10
ATOM      9  O   UNL     1      33.253 -14.730 -24.576  0.00  0.00    -0.250 OA
ATOM     10  C   UNL     1      33.748 -15.658 -25.197  0.00  0.00    +0.319 C 
BRANCH  10  11
ATOM     11  O   UNL     1      33.340 -16.082 -26.416  0.00  0.00    -0.480 OA
ATOM     12  H   UNL     1      32.469 -16.408 -26.532  0.00  0.00    +0.295 HD
ENDBRANCH  10  11
ENDBRANCH   2  10
BRANCH   6  14
ATOM     13  O   UNL     1      32.574 -19.942 -21.304  0.00  0.00    -0.285 OA
ATOM     14  C   UNL     1      33.728 -19.489 -21.126  0.00  0.00    +0.209 C 
BRANCH  14  15
ATOM     15  C   UNL     1      34.640 -20.350 -20.288  0.00  0.00    +0.040 C 
ATOM     16  C   UNL     1      34.071 -21.302 -19.488  0.00  0.00    +0.003 C 
ATOM     17  C   UNL     1      35.990 -20.132 -20.375  0.00  0.00    +0.003 C 
ATOM     18  C   UNL     1      34.915 -22.098 -18.713  0.00  0.00    +0.000 C 
ATOM     19  C   UNL     1      36.833 -20.928 -19.600  0.00  0.00    +0.000 C 
ATOM     20  C   UNL     1      36.296 -21.910 -18.769  0.00  0.00    +0.000 C 
ENDBRANCH  14  15
ENDBRANCH   6  14
TORSDOF 4
ENDMDL
MODEL 8
REMARK VINA RESULT:      -8.4      3.853      6.298
REMARK  Name = 3826
REMARK  4 active torsions:
REMARK  status: ('A' for Active; 'I' for Inactive)
REMARK    1  A    between atoms: C_2  and  C_10
REMARK    2  A    between atoms: C_6  and  C_14
REMARK    3  A    between atoms: C_10  and  O_11
REMARK    4  A    between atoms: C_14  and  C_15
REMARK                            x       y       z     vdW  Elec       q    Type
REMARK                         _______ _______ _______ _____ _____    ______ ____
ROOT
ATOM      1  N   UNL     1      36.469 -24.926 -14.663  0.00  0.00    -0.287 N 
ATOM      2  C   UNL     1      38.403 -25.827 -13.695  0.00  0.00    +0.136 C 
ATOM      3  C   UNL     1      37.620 -26.938 -14.443  0.00  0.00    +0.039 C 
ATOM      4  C   UNL     1      36.576 -26.214 -15.317  0.00  0.00    +0.096 C 
ATOM      5  C   UNL     1      37.468 -24.686 -13.767  0.00  0.00    +0.039 C 
ATOM      6  C   UNL     1      35.598 -23.898 -14.731  0.00  0.00    +0.091 C 
ATOM      7  C   UNL     1      37.250 -23.449 -13.219  0.00  0.00    +0.012 C 
ATOM      8  C   UNL     1      36.061 -22.947 -13.834  0.00  0.00    +0.019 C 
ENDROOT
BRANCH   2  10
ATOM      9  O   UNL     1      40.530 -24.769 -13.909  0.00  0.00    -0.250 OA
ATOM     10  C   UNL     1      39.666 -25.471 -14.410  0.00  0.00    +0.319 C 
BRANCH  10  11
ATOM     11  O   UNL     1      39.726 -26.013 -15.649  0.00  0.00    -0.480 OA
ATOM     12  H   UNL     1      39.014 -26.531 -15.970  0.00  0.00    +0.295 HD
ENDBRANCH  10  11
ENDBRANCH   2  10
BRANCH   6  14
ATOM     13  O   UNL     1      34.553 -23.748 -16.817  0.00  0.00    -0.285 OA
ATOM     14  C   UNL     1      34.446 -23.843 -15.573  0.00  0.00    +0.209 C 
BRANCH  14  15
ATOM     15  C   UNL     1      33.034 -23.893 -15.045  0.00  0.00    +0.040 C 
ATOM     16  C   UNL     1      32.767 -24.731 -13.997  0.00  0.00    +0.003 C 
ATOM     17  C   UNL     1      32.095 -23.095 -15.643  0.00  0.00    +0.003 C 
ATOM     18  C   UNL     1      31.461 -24.776 -13.509  0.00  0.00    +0.000 C 
ATOM     19  C   UNL     1      30.790 -23.141 -15.155  0.00  0.00    +0.000 C 
ATOM     20  C   UNL     1      30.472 -23.981 -14.089  0.00  0.00    +0.000 C 
ENDBRANCH  14  15
ENDBRANCH   6  14
TORSDOF 4
ENDMDL
MODEL 9
REMARK VINA RESULT:      -8.3      8.211     11.421
REMARK  Name = 3826
REMARK  4 active torsions:
REMARK  status: ('A' for Active; 'I' for Inactive)
REMARK    1  A    between atoms: C_2  and  C_10
REMARK    2  A    between atoms: C_6  and  C_14
REMARK    3  A    between atoms: C_10  and  O_11
REMARK    4  A    between atoms: C_14  and  C_15
REMARK                            x       y       z     vdW  Elec       q    Type
REMARK                         _______ _______ _______ _____ _____    ______ ____
ROOT
ATOM      1  N   UNL     1      33.739 -14.507 -23.076  0.00  0.00    -0.287 N 
ATOM      2  C   UNL     1      33.876 -16.521 -21.886  0.00  0.00    +0.136 C 
ATOM      3  C   UNL     1      34.571 -16.674 -23.265  0.00  0.00    +0.039 C 
ATOM      4  C   UNL     1      34.736 -15.246 -23.823  0.00  0.00    +0.096 C 
ATOM      5  C   UNL     1      33.252 -15.187 -21.999  0.00  0.00    +0.039 C 
ATOM      6  C   UNL     1      33.169 -13.291 -23.201  0.00  0.00    +0.091 C 
ATOM      7  C   UNL     1      32.324 -14.389 -21.385  0.00  0.00    +0.012 C 
ATOM      8  C   UNL     1      32.272 -13.182 -22.149  0.00  0.00    +0.019 C 
ENDROOT
BRANCH   2  10
ATOM      9  O   UNL     1      35.006 -15.547 -20.025  0.00  0.00    -0.250 OA
ATOM     10  C   UNL     1      34.870 -16.504 -20.771  0.00  0.00    +0.319 C 
BRANCH  10  11
ATOM     11  O   UNL     1      35.580 -17.655 -20.695  0.00  0.00    -0.480 OA
ATOM     12  H   UNL     1      36.476 -17.636 -20.420  0.00  0.00    +0.295 HD
ENDBRANCH  10  11
ENDBRANCH   2  10
BRANCH   6  14
ATOM     13  O   UNL     1      33.565 -12.687 -25.425  0.00  0.00    -0.285 OA
ATOM     14  C   UNL     1      33.462 -12.340 -24.225  0.00  0.00    +0.209 C 
BRANCH  14  15
ATOM     15  C   UNL     1      33.669 -10.871 -23.954  0.00  0.00    +0.040 C 
ATOM     16  C   UNL     1      32.737 -10.220 -23.193  0.00  0.00    +0.003 C 
ATOM     17  C   UNL     1      34.780 -10.270 -24.483  0.00  0.00    +0.003 C 
ATOM     18  C   UNL     1      32.929  -8.861 -22.942  0.00  0.00    +0.000 C 
ATOM     19  C   UNL     1      34.971  -8.911 -24.232  0.00  0.00    +0.000 C 
ATOM     20  C   UNL     1      34.046  -8.207 -23.463  0.00  0.00    +0.000 C 
ENDBRANCH  14  15
ENDBRANCH   6  14
TORSDOF 4
ENDMDL
