MODEL 1
REMARK VINA RESULT:      -7.4      0.000      0.000
REMARK  Name = 5287432
REMARK  8 active torsions:
REMARK  status: ('A' for Active; 'I' for Inactive)
REMARK    1  A    between atoms: C_1  and  C_18
REMARK    2  A    between atoms: C_2  and  O_7
REMARK    3  A    between atoms: C_3  and  C_10
REMARK    4  A    between atoms: C_10  and  C_11
REMARK    5  A    between atoms: C_11  and  C_12
REMARK    6  A    between atoms: C_12  and  C_14
REMARK    7  A    between atoms: C_14  and  O_15
REMARK    8  A    between atoms: C_18  and  O_19
REMARK                            x       y       z     vdW  Elec       q    Type
REMARK                         _______ _______ _______ _____ _____    ______ ____
ROOT
ATOM      1  C   UNL     1      34.831 -24.939 -13.386  0.00  0.00    +0.112 C 
ATOM      2  C   UNL     1      33.421 -24.326 -13.577  0.00  0.00    +0.140 C 
ATOM      3  C   UNL     1      35.760 -24.745 -14.554  0.00  0.00    +0.044 C 
ATOM      4  C   UNL     1      33.309 -23.330 -14.699  0.00  0.00    +0.037 C 
ATOM      5  C   UNL     1      35.499 -23.910 -15.570  0.00  0.00    +0.003 C 
ATOM      6  C   UNL     1      34.284 -23.136 -15.598  0.00  0.00    +0.003 C 
ENDROOT
BRANCH   2   7
ATOM      7  O   UNL     1      32.483 -25.371 -13.839  0.00  0.00    -0.505 OA
ATOM      8  H   UNL     1      32.936 -26.110 -14.274  0.00  0.00    +0.292 HD
ENDBRANCH   2   7
BRANCH   3  10
ATOM      9  O   UNL     1      36.960 -26.755 -14.622  0.00  0.00    -0.291 OA
ATOM     10  C   UNL     1      37.002 -25.524 -14.624  0.00  0.00    +0.174 C 
BRANCH  10  11
ATOM     11  C   UNL     1      38.299 -24.731 -14.705  0.00  0.00    +0.081 C 
BRANCH  11  12
ATOM     12  C   UNL     1      39.404 -25.272 -13.806  0.00  0.00    +0.117 C 
BRANCH  12  14
ATOM     13  O   UNL     1      41.283 -26.761 -14.109  0.00  0.00    -0.250 OA
ATOM     14  C   UNL     1      40.439 -26.026 -14.605  0.00  0.00    +0.314 C 
BRANCH  14  15
ATOM     15  O   UNL     1      40.320 -25.821 -15.939  0.00  0.00    -0.480 OA
ATOM     16  H   UNL     1      39.748 -26.361 -16.447  0.00  0.00    +0.295 HD
ENDBRANCH  14  15
ENDBRANCH  12  14
ENDBRANCH  11  12
ENDBRANCH  10  11
ENDBRANCH   3  10
BRANCH   1  18
ATOM     17  O   UNL     1      36.073 -23.211 -12.233  0.00  0.00    -0.245 OA
ATOM     18  C   UNL     1      35.501 -24.292 -12.208  0.00  0.00    +0.341 C 
BRANCH  18  19
ATOM     19  O   UNL     1      35.390 -25.071 -11.105  0.00  0.00    -0.477 OA
ATOM     20  H   UNL     1      36.082 -25.087 -10.472  0.00  0.00    +0.295 HD
ENDBRANCH  18  19
ENDBRANCH   1  18
TORSDOF 8
ENDMDL
MODEL 2
REMARK VINA RESULT:      -7.4      2.434      5.049
REMARK  Name = 5287432
REMARK  8 active torsions:
REMARK  status: ('A' for Active; 'I' for Inactive)
REMARK    1  A    between atoms: C_1  and  C_18
REMARK    2  A    between atoms: C_2  and  O_7
REMARK    3  A    between atoms: C_3  and  C_10
REMARK    4  A    between atoms: C_10  and  C_11
REMARK    5  A    between atoms: C_11  and  C_12
REMARK    6  A    between atoms: C_12  and  C_14
REMARK    7  A    between atoms: C_14  and  O_15
REMARK    8  A    between atoms: C_18  and  O_19
REMARK                            x       y       z     vdW  Elec       q    Type
REMARK                         _______ _______ _______ _____ _____    ______ ____
ROOT
ATOM      1  C   UNL     1      36.243 -23.445 -12.857  0.00  0.00    +0.112 C 
ATOM      2  C   UNL     1      37.375 -23.203 -11.826  0.00  0.00    +0.140 C 
ATOM      3  C   UNL     1      36.619 -24.354 -13.995  0.00  0.00    +0.044 C 
ATOM      4  C   UNL     1      38.519 -24.178 -11.899  0.00  0.00    +0.037 C 
ATOM      5  C   UNL     1      37.736 -25.096 -14.006  0.00  0.00    +0.003 C 
ATOM      6  C   UNL     1      38.660 -25.059 -12.900  0.00  0.00    +0.003 C 
ENDROOT
BRANCH   2   7
ATOM      7  O   UNL     1      37.917 -21.896 -12.017  0.00  0.00    -0.505 OA
ATOM      8  H   UNL     1      37.247 -21.232 -11.794  0.00  0.00    +0.292 HD
ENDBRANCH   2   7
BRANCH   3  10
ATOM      9  O   UNL     1      35.494 -25.512 -15.691  0.00  0.00    -0.291 OA
ATOM     10  C   UNL     1      35.753 -24.423 -15.178  0.00  0.00    +0.174 C 
BRANCH  10  11
ATOM     11  C   UNL     1      35.211 -23.100 -15.702  0.00  0.00    +0.081 C 
BRANCH  11  12
ATOM     12  C   UNL     1      33.844 -23.219 -16.366  0.00  0.00    +0.117 C 
BRANCH  12  14
ATOM     13  O   UNL     1      34.940 -22.741 -18.466  0.00  0.00    -0.250 OA
ATOM     14  C   UNL     1      33.904 -22.809 -17.817  0.00  0.00    +0.314 C 
BRANCH  14  15
ATOM     15  O   UNL     1      32.680 -22.545 -18.335  0.00  0.00    -0.480 OA
ATOM     16  H   UNL     1      32.163 -23.239 -18.694  0.00  0.00    +0.295 HD
ENDBRANCH  14  15
ENDBRANCH  12  14
ENDBRANCH  11  12
ENDBRANCH  10  11
ENDBRANCH   3  10
BRANCH   1  18
ATOM     17  O   UNL     1      35.154 -25.027 -11.383  0.00  0.00    -0.245 OA
ATOM     18  C   UNL     1      35.076 -24.094 -12.171  0.00  0.00    +0.341 C 
BRANCH  18  19
ATOM     19  O   UNL     1      33.912 -23.509 -12.546  0.00  0.00    -0.477 OA
ATOM     20  H   UNL     1      33.537 -22.833 -12.015  0.00  0.00    +0.295 HD
ENDBRANCH  18  19
ENDBRANCH   1  18
TORSDOF 8
ENDMDL
MODEL 3
REMARK VINA RESULT:      -7.0      1.910      5.965
REMARK  Name = 5287432
REMARK  8 active torsions:
REMARK  status: ('A' for Active; 'I' for Inactive)
REMARK    1  A    between atoms: C_1  and  C_18
REMARK    2  A    between atoms: C_2  and  O_7
REMARK    3  A    between atoms: C_3  and  C_10
REMARK    4  A    between atoms: C_10  and  C_11
REMARK    5  A    between atoms: C_11  and  C_12
REMARK    6  A    between atoms: C_12  and  C_14
REMARK    7  A    between atoms: C_14  and  O_15
REMARK    8  A    between atoms: C_18  and  O_19
REMARK                            x       y       z     vdW  Elec       q    Type
REMARK                         _______ _______ _______ _____ _____    ______ ____
ROOT
ATOM      1  C   UNL     1      36.382 -24.836 -14.948  0.00  0.00    +0.112 C 
ATOM      2  C   UNL     1      37.618 -25.734 -15.203  0.00  0.00    +0.140 C 
ATOM      3  C   UNL     1      35.917 -24.805 -13.517  0.00  0.00    +0.044 C 
ATOM      4  C   UNL     1      38.383 -26.128 -13.969  0.00  0.00    +0.037 C 
ATOM      5  C   UNL     1      36.638 -25.299 -12.500  0.00  0.00    +0.003 C 
ATOM      6  C   UNL     1      37.926 -25.902 -12.729  0.00  0.00    +0.003 C 
ENDROOT
BRANCH   2   7
ATOM      7  O   UNL     1      37.203 -26.938 -15.849  0.00  0.00    -0.505 OA
ATOM      8  H   UNL     1      37.633 -27.006 -16.715  0.00  0.00    +0.292 HD
ENDBRANCH   2   7
BRANCH   3  10
ATOM      9  O   UNL     1      34.412 -23.679 -12.121  0.00  0.00    -0.291 OA
ATOM     10  C   UNL     1      34.600 -24.244 -13.200  0.00  0.00    +0.174 C 
BRANCH  10  11
ATOM     11  C   UNL     1      33.521 -24.395 -14.264  0.00  0.00    +0.081 C 
BRANCH  11  12
ATOM     12  C   UNL     1      32.191 -23.757 -13.882  0.00  0.00    +0.117 C 
BRANCH  12  14
ATOM     13  O   UNL     1      30.843 -25.621 -14.621  0.00  0.00    -0.250 OA
ATOM     14  C   UNL     1      31.102 -24.794 -13.757  0.00  0.00    +0.314 C 
BRANCH  14  15
ATOM     15  O   UNL     1      30.451 -24.726 -12.571  0.00  0.00    -0.480 OA
ATOM     16  H   UNL     1      29.993 -23.945 -12.331  0.00  0.00    +0.295 HD
ENDBRANCH  14  15
ENDBRANCH  12  14
ENDBRANCH  11  12
ENDBRANCH  10  11
ENDBRANCH   3  10
BRANCH   1  18
ATOM     17  O   UNL     1      37.498 -22.702 -14.701  0.00  0.00    -0.245 OA
ATOM     18  C   UNL     1      36.714 -23.417 -15.310  0.00  0.00    +0.341 C 
BRANCH  18  19
ATOM     19  O   UNL     1      36.022 -23.027 -16.408  0.00  0.00    -0.477 OA
ATOM     20  H   UNL     1      35.849 -23.642 -17.095  0.00  0.00    +0.295 HD
ENDBRANCH  18  19
ENDBRANCH   1  18
TORSDOF 8
ENDMDL
MODEL 4
REMARK VINA RESULT:      -7.0      1.795      5.369
REMARK  Name = 5287432
REMARK  8 active torsions:
REMARK  status: ('A' for Active; 'I' for Inactive)
REMARK    1  A    between atoms: C_1  and  C_18
REMARK    2  A    between atoms: C_2  and  O_7
REMARK    3  A    between atoms: C_3  and  C_10
REMARK    4  A    between atoms: C_10  and  C_11
REMARK    5  A    between atoms: C_11  and  C_12
REMARK    6  A    between atoms: C_12  and  C_14
REMARK    7  A    between atoms: C_14  and  O_15
REMARK    8  A    between atoms: C_18  and  O_19
REMARK                            x       y       z     vdW  Elec       q    Type
REMARK                         _______ _______ _______ _____ _____    ______ ____
ROOT
ATOM      1  C   UNL     1      36.988 -25.477 -13.838  0.00  0.00    +0.112 C 
ATOM      2  C   UNL     1      37.662 -25.568 -12.446  0.00  0.00    +0.140 C 
ATOM      3  C   UNL     1      36.103 -24.274 -14.025  0.00  0.00    +0.044 C 
ATOM      4  C   UNL     1      37.643 -24.294 -11.646  0.00  0.00    +0.037 C 
ATOM      5  C   UNL     1      36.082 -23.238 -13.176  0.00  0.00    +0.003 C 
ATOM      6  C   UNL     1      36.925 -23.221 -12.007  0.00  0.00    +0.003 C 
ENDROOT
BRANCH   2   7
ATOM      7  O   UNL     1      37.005 -26.569 -11.667  0.00  0.00    -0.505 OA
ATOM      8  H   UNL     1      36.945 -27.390 -12.179  0.00  0.00    +0.292 HD
ENDBRANCH   2   7
BRANCH   3  10
ATOM      9  O   UNL     1      35.187 -25.136 -16.000  0.00  0.00    -0.291 OA
ATOM     10  C   UNL     1      35.185 -24.228 -15.169  0.00  0.00    +0.174 C 
BRANCH  10  11
ATOM     11  C   UNL     1      34.256 -23.023 -15.247  0.00  0.00    +0.081 C 
BRANCH  11  12
ATOM     12  C   UNL     1      32.777 -23.390 -15.248  0.00  0.00    +0.117 C 
BRANCH  12  14
ATOM     13  O   UNL     1      31.940 -25.134 -13.801  0.00  0.00    -0.250 OA
ATOM     14  C   UNL     1      32.362 -23.992 -13.928  0.00  0.00    +0.314 C 
BRANCH  14  15
ATOM     15  O   UNL     1      32.526 -23.137 -12.890  0.00  0.00    -0.480 OA
ATOM     16  H   UNL     1      33.258 -22.553 -12.875  0.00  0.00    +0.295 HD
ENDBRANCH  14  15
ENDBRANCH  12  14
ENDBRANCH  11  12
ENDBRANCH  10  11
ENDBRANCH   3  10
BRANCH   1  18
ATOM     17  O   UNL     1      38.908 -24.520 -14.958  0.00  0.00    -0.245 OA
ATOM     18  C   UNL     1      38.047 -25.386 -14.899  0.00  0.00    +0.341 C 
BRANCH  18  19
ATOM     19  O   UNL     1      37.920 -26.397 -15.792  0.00  0.00    -0.477 OA
ATOM     20  H   UNL     1      38.666 -26.919 -16.017  0.00  0.00    +0.295 HD
ENDBRANCH  18  19
ENDBRANCH   1  18
TORSDOF 8
ENDMDL
MODEL 5
REMARK VINA RESULT:      -6.9      2.218      6.047
REMARK  Name = 5287432
REMARK  8 active torsions:
REMARK  status: ('A' for Active; 'I' for Inactive)
REMARK    1  A    between atoms: C_1  and  C_18
REMARK    2  A    between atoms: C_2  and  O_7
REMARK    3  A    between atoms: C_3  and  C_10
REMARK    4  A    between atoms: C_10  and  C_11
REMARK    5  A    between atoms: C_11  and  C_12
REMARK    6  A    between atoms: C_12  and  C_14
REMARK    7  A    between atoms: C_14  and  O_15
REMARK    8  A    between atoms: C_18  and  O_19
REMARK                            x       y       z     vdW  Elec       q    Type
REMARK                         _______ _______ _______ _____ _____    ______ ____
ROOT
ATOM      1  C   UNL     1      36.265 -24.638 -14.180  0.00  0.00    +0.112 C 
ATOM      2  C   UNL     1      37.641 -24.032 -14.554  0.00  0.00    +0.140 C 
ATOM      3  C   UNL     1      35.081 -23.846 -14.666  0.00  0.00    +0.044 C 
ATOM      4  C   UNL     1      37.602 -22.986 -15.635  0.00  0.00    +0.037 C 
ATOM      5  C   UNL     1      35.180 -22.845 -15.552  0.00  0.00    +0.003 C 
ATOM      6  C   UNL     1      36.458 -22.464 -16.099  0.00  0.00    +0.003 C 
ENDROOT
BRANCH   2   7
ATOM      7  O   UNL     1      38.220 -23.426 -13.397  0.00  0.00    -0.505 OA
ATOM      8  H   UNL     1      39.151 -23.217 -13.573  0.00  0.00    +0.292 HD
ENDBRANCH   2   7
BRANCH   3  10
ATOM      9  O   UNL     1      33.623 -24.550 -12.975  0.00  0.00    -0.291 OA
ATOM     10  C   UNL     1      33.748 -24.143 -14.131  0.00  0.00    +0.174 C 
BRANCH  10  11
ATOM     11  C   UNL     1      32.571 -23.912 -15.069  0.00  0.00    +0.081 C 
BRANCH  11  12
ATOM     12  C   UNL     1      31.356 -23.294 -14.387  0.00  0.00    +0.117 C 
BRANCH  12  14
ATOM     13  O   UNL     1      29.394 -24.665 -14.718  0.00  0.00    -0.250 OA
ATOM     14  C   UNL     1      30.344 -24.348 -14.013  0.00  0.00    +0.314 C 
BRANCH  14  15
ATOM     15  O   UNL     1      30.610 -24.926 -12.817  0.00  0.00    -0.480 OA
ATOM     16  H   UNL     1      31.141 -24.480 -12.188  0.00  0.00    +0.295 HD
ENDBRANCH  14  15
ENDBRANCH  12  14
ENDBRANCH  11  12
ENDBRANCH  10  11
ENDBRANCH   3  10
BRANCH   1  18
ATOM     17  O   UNL     1      35.752 -26.222 -15.937  0.00  0.00    -0.245 OA
ATOM     18  C   UNL     1      36.138 -26.001 -14.797  0.00  0.00    +0.341 C 
BRANCH  18  19
ATOM     19  O   UNL     1      36.505 -26.963 -13.916  0.00  0.00    -0.477 OA
ATOM     20  H   UNL     1      36.674 -26.739 -13.022  0.00  0.00    +0.295 HD
ENDBRANCH  18  19
ENDBRANCH   1  18
TORSDOF 8
ENDMDL
MODEL 6
REMARK VINA RESULT:      -6.8      2.764      6.301
REMARK  Name = 5287432
REMARK  8 active torsions:
REMARK  status: ('A' for Active; 'I' for Inactive)
REMARK    1  A    between atoms: C_1  and  C_18
REMARK    2  A    between atoms: C_2  and  O_7
REMARK    3  A    between atoms: C_3  and  C_10
REMARK    4  A    between atoms: C_10  and  C_11
REMARK    5  A    between atoms: C_11  and  C_12
REMARK    6  A    between atoms: C_12  and  C_14
REMARK    7  A    between atoms: C_14  and  O_15
REMARK    8  A    between atoms: C_18  and  O_19
REMARK                            x       y       z     vdW  Elec       q    Type
REMARK                         _______ _______ _______ _____ _____    ______ ____
ROOT
ATOM      1  C   UNL     1      35.008 -24.205 -15.700  0.00  0.00    +0.112 C 
ATOM      2  C   UNL     1      36.106 -25.034 -14.987  0.00  0.00    +0.140 C 
ATOM      3  C   UNL     1      33.857 -23.804 -14.818  0.00  0.00    +0.044 C 
ATOM      4  C   UNL     1      36.056 -24.994 -13.484  0.00  0.00    +0.037 C 
ATOM      5  C   UNL     1      33.877 -23.924 -13.483  0.00  0.00    +0.003 C 
ATOM      6  C   UNL     1      35.030 -24.460 -12.806  0.00  0.00    +0.003 C 
ENDROOT
BRANCH   2   7
ATOM      7  O   UNL     1      35.995 -26.402 -15.380  0.00  0.00    -0.505 OA
ATOM      8  H   UNL     1      35.063 -26.671 -15.356  0.00  0.00    +0.292 HD
ENDBRANCH   2   7
BRANCH   3  10
ATOM      9  O   UNL     1      32.482 -23.325 -16.652  0.00  0.00    -0.291 OA
ATOM     10  C   UNL     1      32.628 -23.285 -15.430  0.00  0.00    +0.174 C 
BRANCH  10  11
ATOM     11  C   UNL     1      31.580 -22.721 -14.480  0.00  0.00    +0.081 C 
BRANCH  11  12
ATOM     12  C   UNL     1      30.225 -23.411 -14.584  0.00  0.00    +0.117 C 
BRANCH  12  14
ATOM     13  O   UNL     1      30.192 -25.808 -14.881  0.00  0.00    -0.250 OA
ATOM     14  C   UNL     1      30.306 -24.848 -14.131  0.00  0.00    +0.314 C 
BRANCH  14  15
ATOM     15  O   UNL     1      30.541 -24.963 -12.801  0.00  0.00    -0.480 OA
ATOM     16  H   UNL     1      29.921 -25.401 -12.252  0.00  0.00    +0.295 HD
ENDBRANCH  14  15
ENDBRANCH  12  14
ENDBRANCH  11  12
ENDBRANCH  10  11
ENDBRANCH   3  10
BRANCH   1  18
ATOM     17  O   UNL     1      36.285 -22.153 -15.555  0.00  0.00    -0.245 OA
ATOM     18  C   UNL     1      35.605 -22.927 -16.215  0.00  0.00    +0.341 C 
BRANCH  18  19
ATOM     19  O   UNL     1      35.287 -22.739 -17.520  0.00  0.00    -0.477 OA
ATOM     20  H   UNL     1      35.676 -23.281 -18.179  0.00  0.00    +0.295 HD
ENDBRANCH  18  19
ENDBRANCH   1  18
TORSDOF 8
ENDMDL
MODEL 7
REMARK VINA RESULT:      -6.8      1.953      3.124
REMARK  Name = 5287432
REMARK  8 active torsions:
REMARK  status: ('A' for Active; 'I' for Inactive)
REMARK    1  A    between atoms: C_1  and  C_18
REMARK    2  A    between atoms: C_2  and  O_7
REMARK    3  A    between atoms: C_3  and  C_10
REMARK    4  A    between atoms: C_10  and  C_11
REMARK    5  A    between atoms: C_11  and  C_12
REMARK    6  A    between atoms: C_12  and  C_14
REMARK    7  A    between atoms: C_14  and  O_15
REMARK    8  A    between atoms: C_18  and  O_19
REMARK                            x       y       z     vdW  Elec       q    Type
REMARK                         _______ _______ _______ _____ _____    ______ ____
ROOT
ATOM      1  C   UNL     1      35.179 -24.376 -15.274  0.00  0.00    +0.112 C 
ATOM      2  C   UNL     1      34.805 -23.126 -16.110  0.00  0.00    +0.140 C 
ATOM      3  C   UNL     1      36.658 -24.579 -15.082  0.00  0.00    +0.044 C 
ATOM      4  C   UNL     1      35.911 -22.120 -16.278  0.00  0.00    +0.037 C 
ATOM      5  C   UNL     1      37.573 -23.646 -15.382  0.00  0.00    +0.003 C 
ATOM      6  C   UNL     1      37.179 -22.368 -15.918  0.00  0.00    +0.003 C 
ENDROOT
BRANCH   2   7
ATOM      7  O   UNL     1      34.399 -23.535 -17.416  0.00  0.00    -0.505 OA
ATOM      8  H   UNL     1      34.892 -24.330 -17.674  0.00  0.00    +0.292 HD
ENDBRANCH   2   7
BRANCH   3  10
ATOM      9  O   UNL     1      36.647 -26.918 -14.975  0.00  0.00    -0.291 OA
ATOM     10  C   UNL     1      37.148 -25.865 -14.576  0.00  0.00    +0.174 C 
BRANCH  10  11
ATOM     11  C   UNL     1      38.286 -25.811 -13.565  0.00  0.00    +0.081 C 
BRANCH  11  12
ATOM     12  C   UNL     1      37.815 -25.710 -12.119  0.00  0.00    +0.117 C 
BRANCH  12  14
ATOM     13  O   UNL     1      38.727 -23.480 -11.947  0.00  0.00    -0.250 OA
ATOM     14  C   UNL     1      37.864 -24.285 -11.625  0.00  0.00    +0.314 C 
BRANCH  14  15
ATOM     15  O   UNL     1      36.832 -23.983 -10.800  0.00  0.00    -0.480 OA
ATOM     16  H   UNL     1      35.972 -24.302 -10.989  0.00  0.00    +0.295 HD
ENDBRANCH  14  15
ENDBRANCH  12  14
ENDBRANCH  11  12
ENDBRANCH  10  11
ENDBRANCH   3  10
BRANCH   1  18
ATOM     17  O   UNL     1      35.038 -23.536 -13.008  0.00  0.00    -0.245 OA
ATOM     18  C   UNL     1      34.593 -24.248 -13.897  0.00  0.00    +0.341 C 
BRANCH  18  19
ATOM     19  O   UNL     1      33.497 -25.036 -13.767  0.00  0.00    -0.477 OA
ATOM     20  H   UNL     1      33.479 -25.706 -13.111  0.00  0.00    +0.295 HD
ENDBRANCH  18  19
ENDBRANCH   1  18
TORSDOF 8
ENDMDL
MODEL 8
REMARK VINA RESULT:      -6.8      2.255      5.251
REMARK  Name = 5287432
REMARK  8 active torsions:
REMARK  status: ('A' for Active; 'I' for Inactive)
REMARK    1  A    between atoms: C_1  and  C_18
REMARK    2  A    between atoms: C_2  and  O_7
REMARK    3  A    between atoms: C_3  and  C_10
REMARK    4  A    between atoms: C_10  and  C_11
REMARK    5  A    between atoms: C_11  and  C_12
REMARK    6  A    between atoms: C_12  and  C_14
REMARK    7  A    between atoms: C_14  and  O_15
REMARK    8  A    between atoms: C_18  and  O_19
REMARK                            x       y       z     vdW  Elec       q    Type
REMARK                         _______ _______ _______ _____ _____    ______ ____
ROOT
ATOM      1  C   UNL     1      37.565 -23.975 -13.762  0.00  0.00    +0.112 C 
ATOM      2  C   UNL     1      38.799 -24.761 -14.272  0.00  0.00    +0.140 C 
ATOM      3  C   UNL     1      36.245 -24.650 -14.017  0.00  0.00    +0.044 C 
ATOM      4  C   UNL     1      38.541 -26.208 -14.593  0.00  0.00    +0.037 C 
ATOM      5  C   UNL     1      36.137 -25.924 -14.421  0.00  0.00    +0.003 C 
ATOM      6  C   UNL     1      37.308 -26.734 -14.638  0.00  0.00    +0.003 C 
ENDROOT
BRANCH   2   7
ATOM      7  O   UNL     1      39.295 -24.143 -15.460  0.00  0.00    -0.505 OA
ATOM      8  H   UNL     1      39.502 -24.826 -16.118  0.00  0.00    +0.292 HD
ENDBRANCH   2   7
BRANCH   3  10
ATOM      9  O   UNL     1      34.333 -24.002 -12.831  0.00  0.00    -0.291 OA
ATOM     10  C   UNL     1      35.003 -23.885 -13.858  0.00  0.00    +0.174 C 
BRANCH  10  11
ATOM     11  C   UNL     1      34.618 -22.963 -15.007  0.00  0.00    +0.081 C 
BRANCH  11  12
ATOM     12  C   UNL     1      33.516 -23.522 -15.898  0.00  0.00    +0.117 C 
BRANCH  12  14
ATOM     13  O   UNL     1      34.757 -22.969 -17.896  0.00  0.00    -0.250 OA
ATOM     14  C   UNL     1      33.678 -23.058 -17.325  0.00  0.00    +0.314 C 
BRANCH  14  15
ATOM     15  O   UNL     1      32.494 -22.770 -17.918  0.00  0.00    -0.480 OA
ATOM     16  H   UNL     1      32.065 -23.414 -18.445  0.00  0.00    +0.295 HD
ENDBRANCH  14  15
ENDBRANCH  12  14
ENDBRANCH  11  12
ENDBRANCH  10  11
ENDBRANCH   3  10
BRANCH   1  18
ATOM     17  O   UNL     1      37.501 -24.694 -11.451  0.00  0.00    -0.245 OA
ATOM     18  C   UNL     1      37.665 -23.803 -12.273  0.00  0.00    +0.341 C 
BRANCH  18  19
ATOM     19  O   UNL     1      37.962 -22.519 -11.956  0.00  0.00    -0.477 OA
ATOM     20  H   UNL     1      38.838 -22.202 -12.062  0.00  0.00    +0.295 HD
ENDBRANCH  18  19
ENDBRANCH   1  18
TORSDOF 8
ENDMDL
MODEL 9
REMARK VINA RESULT:      -6.7     12.177     14.110
REMARK  Name = 5287432
REMARK  8 active torsions:
REMARK  status: ('A' for Active; 'I' for Inactive)
REMARK    1  A    between atoms: C_1  and  C_18
REMARK    2  A    between atoms: C_2  and  O_7
REMARK    3  A    between atoms: C_3  and  C_10
REMARK    4  A    between atoms: C_10  and  C_11
REMARK    5  A    between atoms: C_11  and  C_12
REMARK    6  A    between atoms: C_12  and  C_14
REMARK    7  A    between atoms: C_14  and  O_15
REMARK    8  A    between atoms: C_18  and  O_19
REMARK                            x       y       z     vdW  Elec       q    Type
REMARK                         _______ _______ _______ _____ _____    ______ ____
ROOT
ATOM      1  C   UNL     1      35.419 -16.950 -22.422  0.00  0.00    +0.112 C 
ATOM      2  C   UNL     1      36.039 -18.346 -22.164  0.00  0.00    +0.140 C 
ATOM      3  C   UNL     1      34.648 -16.837 -23.709  0.00  0.00    +0.044 C 
ATOM      4  C   UNL     1      35.481 -19.455 -23.014  0.00  0.00    +0.037 C 
ATOM      5  C   UNL     1      34.304 -17.896 -24.455  0.00  0.00    +0.003 C 
ATOM      6  C   UNL     1      34.666 -19.232 -24.055  0.00  0.00    +0.003 C 
ENDROOT
BRANCH   2   7
ATOM      7  O   UNL     1      37.445 -18.291 -22.405  0.00  0.00    -0.505 OA
ATOM      8  H   UNL     1      37.763 -17.386 -22.262  0.00  0.00    +0.292 HD
ENDBRANCH   2   7
BRANCH   3  10
ATOM      9  O   UNL     1      34.524 -14.504 -23.543  0.00  0.00    -0.291 OA
ATOM     10  C   UNL     1      34.273 -15.510 -24.209  0.00  0.00    +0.174 C 
BRANCH  10  11
ATOM     11  C   UNL     1      33.584 -15.463 -25.567  0.00  0.00    +0.081 C 
BRANCH  11  12
ATOM     12  C   UNL     1      32.766 -14.198 -25.795  0.00  0.00    +0.117 C 
BRANCH  12  14
ATOM     13  O   UNL     1      33.852 -13.530 -27.847  0.00  0.00    -0.250 OA
ATOM     14  C   UNL     1      33.483 -13.242 -26.716  0.00  0.00    +0.314 C 
BRANCH  14  15
ATOM     15  O   UNL     1      33.658 -12.017 -26.164  0.00  0.00    -0.480 OA
ATOM     16  H   UNL     1      32.954 -11.607 -25.701  0.00  0.00    +0.295 HD
ENDBRANCH  14  15
ENDBRANCH  12  14
ENDBRANCH  11  12
ENDBRANCH  10  11
ENDBRANCH   3  10
BRANCH   1  18
ATOM     17  O   UNL     1      33.412 -17.236 -21.099  0.00  0.00    -0.245 OA
ATOM     18  C   UNL     1      34.448 -16.626 -21.323  0.00  0.00    +0.341 C 
BRANCH  18  19
ATOM     19  O   UNL     1      34.872 -15.556 -20.607  0.00  0.00    -0.477 OA
ATOM     20  H   UNL     1      34.372 -15.256 -19.872  0.00  0.00    +0.295 HD
ENDBRANCH  18  19
ENDBRANCH   1  18
TORSDOF 8
ENDMDL
