MODEL 1
REMARK VINA RESULT:      -9.3      0.000      0.000
REMARK  Name = 60813
REMARK  5 active torsions:
REMARK  status: ('A' for Active; 'I' for Inactive)
REMARK    1  A    between atoms: N_1  and  C_14
REMARK    2  A    between atoms: C_14  and  C_15
REMARK    3  A    between atoms: C_15  and  C_16
REMARK    4  A    between atoms: C_16  and  C_17
REMARK    5  A    between atoms: C_17  and  N_19
REMARK                            x       y       z     vdW  Elec       q    Type
REMARK                         _______ _______ _______ _____ _____    ______ ____
ROOT
ATOM      1  N   UNL     1      35.286 -18.760 -21.967  0.00  0.00    +0.389 N 
ATOM      2  N   UNL     1      34.270 -16.645 -23.595  0.00  0.00    -0.257 N 
ATOM      3  N   UNL     1      33.544 -15.873 -25.706  0.00  0.00    -0.181 NA
ATOM      4  N   UNL     1      33.901 -14.330 -23.889  0.00  0.00    -0.203 NA
ATOM      5  C   UNL     1      34.775 -19.040 -23.314  0.00  0.00    -0.055 C 
ATOM      6  C   UNL     1      34.528 -17.657 -21.364  0.00  0.00    -0.055 C 
ATOM      7  C   UNL     1      34.906 -17.812 -24.218  0.00  0.00    +0.079 C 
ATOM      8  C   UNL     1      34.650 -16.382 -22.204  0.00  0.00    +0.079 C 
ATOM      9  C   UNL     1      33.893 -15.582 -24.424  0.00  0.00    +0.090 C 
ATOM     10  C   UNL     1      33.185 -14.825 -26.476  0.00  0.00    +0.108 C 
ATOM     11  C   UNL     1      33.532 -13.330 -24.715  0.00  0.00    +0.165 C 
ATOM     12  C   UNL     1      33.160 -13.519 -26.030  0.00  0.00    +0.022 C 
ATOM     13  H   UNL     1      36.266 -18.485 -22.037  0.00  0.00    -0.080 HD
ENDROOT
BRANCH   1  14
ATOM     14  C   UNL     1      35.206 -19.955 -21.128  0.00  0.00    -0.077 C 
BRANCH  14  15
ATOM     15  C   UNL     1      36.454 -20.075 -20.254  0.00  0.00    -0.021 C 
BRANCH  15  16
ATOM     16  C   UNL     1      36.383 -21.310 -19.356  0.00  0.00    +0.021 C 
BRANCH  16  17
ATOM     17  C   UNL     1      35.067 -22.062 -19.550  0.00  0.00    +0.116 C 
BRANCH  17  19
ATOM     18 CL   UNL     1      31.823 -23.653 -15.803  0.00  0.00    -0.079 Cl
ATOM     19  N   UNL     1      34.516 -22.539 -18.287  0.00  0.00    -0.209 N 
ATOM     20  N   UNL     1      35.345 -22.787 -17.268  0.00  0.00    -0.175 NA
ATOM     21  C   UNL     1      33.207 -22.768 -18.027  0.00  0.00    +0.097 C 
ATOM     22  C   UNL     1      33.164 -23.202 -16.725  0.00  0.00    +0.095 C 
ATOM     23  C   UNL     1      34.509 -23.195 -16.308  0.00  0.00    +0.130 C 
ENDBRANCH  17  19
ENDBRANCH  16  17
ENDBRANCH  15  16
ENDBRANCH  14  15
ENDBRANCH   1  14
TORSDOF 5
ENDMDL
MODEL 2
REMARK VINA RESULT:      -9.2      0.825      1.129
REMARK  Name = 60813
REMARK  5 active torsions:
REMARK  status: ('A' for Active; 'I' for Inactive)
REMARK    1  A    between atoms: N_1  and  C_14
REMARK    2  A    between atoms: C_14  and  C_15
REMARK    3  A    between atoms: C_15  and  C_16
REMARK    4  A    between atoms: C_16  and  C_17
REMARK    5  A    between atoms: C_17  and  N_19
REMARK                            x       y       z     vdW  Elec       q    Type
REMARK                         _______ _______ _______ _____ _____    ______ ____
ROOT
ATOM      1  N   UNL     1      35.183 -18.716 -21.890  0.00  0.00    +0.389 N 
ATOM      2  N   UNL     1      34.226 -16.619 -23.576  0.00  0.00    -0.257 N 
ATOM      3  N   UNL     1      33.549 -15.879 -25.714  0.00  0.00    -0.181 NA
ATOM      4  N   UNL     1      33.897 -14.306 -23.921  0.00  0.00    -0.203 NA
ATOM      5  C   UNL     1      34.691 -19.015 -23.240  0.00  0.00    -0.055 C 
ATOM      6  C   UNL     1      34.431 -17.591 -21.322  0.00  0.00    -0.055 C 
ATOM      7  C   UNL     1      34.856 -17.807 -24.165  0.00  0.00    +0.079 C 
ATOM      8  C   UNL     1      34.586 -16.335 -22.184  0.00  0.00    +0.079 C 
ATOM      9  C   UNL     1      33.880 -15.567 -24.432  0.00  0.00    +0.090 C 
ATOM     10  C   UNL     1      33.219 -14.841 -26.510  0.00  0.00    +0.108 C 
ATOM     11  C   UNL     1      33.556 -13.316 -24.773  0.00  0.00    +0.165 C 
ATOM     12  C   UNL     1      33.205 -13.526 -26.090  0.00  0.00    +0.022 C 
ATOM     13  H   UNL     1      36.168 -18.457 -21.948  0.00  0.00    -0.080 HD
ENDROOT
BRANCH   1  14
ATOM     14  C   UNL     1      35.071 -19.894 -21.031  0.00  0.00    -0.077 C 
BRANCH  14  15
ATOM     15  C   UNL     1      33.610 -20.146 -20.663  0.00  0.00    -0.021 C 
BRANCH  15  16
ATOM     16  C   UNL     1      33.484 -21.272 -19.636  0.00  0.00    +0.021 C 
BRANCH  16  17
ATOM     17  C   UNL     1      34.840 -21.916 -19.352  0.00  0.00    +0.116 C 
BRANCH  17  19
ATOM     18 CL   UNL     1      33.737 -24.096 -14.755  0.00  0.00    -0.079 Cl
ATOM     19  N   UNL     1      34.930 -22.428 -17.989  0.00  0.00    -0.209 N 
ATOM     20  N   UNL     1      36.085 -22.315 -17.326  0.00  0.00    -0.175 NA
ATOM     21  C   UNL     1      33.931 -23.027 -17.298  0.00  0.00    +0.097 C 
ATOM     22  C   UNL     1      34.470 -23.336 -16.073  0.00  0.00    +0.095 C 
ATOM     23  C   UNL     1      35.798 -22.875 -16.147  0.00  0.00    +0.130 C 
ENDBRANCH  17  19
ENDBRANCH  16  17
ENDBRANCH  15  16
ENDBRANCH  14  15
ENDBRANCH   1  14
TORSDOF 5
ENDMDL
MODEL 3
REMARK VINA RESULT:      -9.1      3.159      9.574
REMARK  Name = 60813
REMARK  5 active torsions:
REMARK  status: ('A' for Active; 'I' for Inactive)
REMARK    1  A    between atoms: N_1  and  C_14
REMARK    2  A    between atoms: C_14  and  C_15
REMARK    3  A    between atoms: C_15  and  C_16
REMARK    4  A    between atoms: C_16  and  C_17
REMARK    5  A    between atoms: C_17  and  N_19
REMARK                            x       y       z     vdW  Elec       q    Type
REMARK                         _______ _______ _______ _____ _____    ______ ____
ROOT
ATOM      1  N   UNL     1      34.472 -20.355 -21.164  0.00  0.00    +0.389 N 
ATOM      2  N   UNL     1      35.059 -21.659 -18.691  0.00  0.00    -0.257 N 
ATOM      3  N   UNL     1      36.634 -22.283 -17.046  0.00  0.00    -0.181 NA
ATOM      4  N   UNL     1      34.401 -23.189 -17.016  0.00  0.00    -0.203 NA
ATOM      5  C   UNL     1      35.772 -20.159 -20.511  0.00  0.00    -0.055 C 
ATOM      6  C   UNL     1      33.426 -20.531 -20.150  0.00  0.00    -0.055 C 
ATOM      7  C   UNL     1      36.138 -21.364 -19.641  0.00  0.00    +0.079 C 
ATOM      8  C   UNL     1      33.714 -21.748 -19.267  0.00  0.00    +0.079 C 
ATOM      9  C   UNL     1      35.375 -22.401 -17.547  0.00  0.00    +0.090 C 
ATOM     10  C   UNL     1      36.903 -23.012 -15.943  0.00  0.00    +0.108 C 
ATOM     11  C   UNL     1      34.739 -23.890 -15.914  0.00  0.00    +0.165 C 
ATOM     12  C   UNL     1      35.987 -23.840 -15.328  0.00  0.00    +0.022 C 
ATOM     13  H   UNL     1      34.517 -21.197 -21.739  0.00  0.00    -0.080 HD
ENDROOT
BRANCH   1  14
ATOM     14  C   UNL     1      34.158 -19.224 -22.034  0.00  0.00    -0.077 C 
BRANCH  14  15
ATOM     15  C   UNL     1      34.930 -19.335 -23.349  0.00  0.00    -0.021 C 
BRANCH  15  16
ATOM     16  C   UNL     1      35.241 -17.953 -23.926  0.00  0.00    +0.021 C 
BRANCH  16  17
ATOM     17  C   UNL     1      34.378 -17.659 -25.152  0.00  0.00    +0.116 C 
BRANCH  17  19
ATOM     18 CL   UNL     1      33.113 -12.793 -23.804  0.00  0.00    -0.079 Cl
ATOM     19  N   UNL     1      33.913 -16.276 -25.177  0.00  0.00    -0.209 N 
ATOM     20  N   UNL     1      33.448 -15.767 -26.321  0.00  0.00    -0.175 NA
ATOM     21  C   UNL     1      33.903 -15.423 -24.125  0.00  0.00    +0.097 C 
ATOM     22  C   UNL     1      33.385 -14.249 -24.615  0.00  0.00    +0.095 C 
ATOM     23  C   UNL     1      33.124 -14.519 -25.972  0.00  0.00    +0.130 C 
ENDBRANCH  17  19
ENDBRANCH  16  17
ENDBRANCH  15  16
ENDBRANCH  14  15
ENDBRANCH   1  14
TORSDOF 5
ENDMDL
MODEL 4
REMARK VINA RESULT:      -8.8      1.566      2.407
REMARK  Name = 60813
REMARK  5 active torsions:
REMARK  status: ('A' for Active; 'I' for Inactive)
REMARK    1  A    between atoms: N_1  and  C_14
REMARK    2  A    between atoms: C_14  and  C_15
REMARK    3  A    between atoms: C_15  and  C_16
REMARK    4  A    between atoms: C_16  and  C_17
REMARK    5  A    between atoms: C_17  and  N_19
REMARK                            x       y       z     vdW  Elec       q    Type
REMARK                         _______ _______ _______ _____ _____    ______ ____
ROOT
ATOM      1  N   UNL     1      34.864 -18.610 -21.771  0.00  0.00    +0.389 N 
ATOM      2  N   UNL     1      34.330 -16.463 -23.577  0.00  0.00    -0.257 N 
ATOM      3  N   UNL     1      33.916 -14.167 -23.939  0.00  0.00    -0.181 NA
ATOM      4  N   UNL     1      33.623 -15.764 -25.719  0.00  0.00    -0.203 NA
ATOM      5  C   UNL     1      34.948 -17.217 -21.314  0.00  0.00    -0.055 C 
ATOM      6  C   UNL     1      35.278 -18.701 -23.176  0.00  0.00    -0.055 C 
ATOM      7  C   UNL     1      34.039 -16.311 -22.146  0.00  0.00    +0.079 C 
ATOM      8  C   UNL     1      34.380 -17.843 -24.070  0.00  0.00    +0.079 C 
ATOM      9  C   UNL     1      33.944 -15.431 -24.440  0.00  0.00    +0.090 C 
ATOM     10  C   UNL     1      33.541 -13.197 -24.798  0.00  0.00    +0.108 C 
ATOM     11  C   UNL     1      33.257 -14.745 -26.524  0.00  0.00    +0.165 C 
ATOM     12  C   UNL     1      33.197 -13.429 -26.114  0.00  0.00    +0.022 C 
ATOM     13  H   UNL     1      33.897 -18.925 -21.692  0.00  0.00    -0.080 HD
ENDROOT
BRANCH   1  14
ATOM     14  C   UNL     1      35.694 -19.475 -20.935  0.00  0.00    -0.077 C 
BRANCH  14  15
ATOM     15  C   UNL     1      34.831 -20.525 -20.235  0.00  0.00    -0.021 C 
BRANCH  15  16
ATOM     16  C   UNL     1      35.670 -21.722 -19.788  0.00  0.00    +0.021 C 
BRANCH  16  17
ATOM     17  C   UNL     1      36.673 -21.323 -18.706  0.00  0.00    +0.116 C 
BRANCH  17  19
ATOM     18 CL   UNL     1      37.156 -23.261 -13.899  0.00  0.00    -0.079 Cl
ATOM     19  N   UNL     1      36.431 -22.021 -17.448  0.00  0.00    -0.209 N 
ATOM     20  N   UNL     1      35.285 -22.688 -17.285  0.00  0.00    -0.175 NA
ATOM     21  C   UNL     1      37.274 -22.066 -16.390  0.00  0.00    +0.097 C 
ATOM     22  C   UNL     1      36.632 -22.829 -15.445  0.00  0.00    +0.095 C 
ATOM     23  C   UNL     1      35.412 -23.184 -16.051  0.00  0.00    +0.130 C 
ENDBRANCH  17  19
ENDBRANCH  16  17
ENDBRANCH  15  16
ENDBRANCH  14  15
ENDBRANCH   1  14
TORSDOF 5
ENDMDL
MODEL 5
REMARK VINA RESULT:      -8.7      3.649     10.442
REMARK  Name = 60813
REMARK  5 active torsions:
REMARK  status: ('A' for Active; 'I' for Inactive)
REMARK    1  A    between atoms: N_1  and  C_14
REMARK    2  A    between atoms: C_14  and  C_15
REMARK    3  A    between atoms: C_15  and  C_16
REMARK    4  A    between atoms: C_16  and  C_17
REMARK    5  A    between atoms: C_17  and  N_19
REMARK                            x       y       z     vdW  Elec       q    Type
REMARK                         _______ _______ _______ _____ _____    ______ ____
ROOT
ATOM      1  N   UNL     1      35.084 -21.963 -17.804  0.00  0.00    +0.389 N 
ATOM      2  N   UNL     1      35.999 -23.107 -15.353  0.00  0.00    -0.257 N 
ATOM      3  N   UNL     1      35.604 -24.499 -13.486  0.00  0.00    -0.181 NA
ATOM      4  N   UNL     1      37.535 -23.059 -13.559  0.00  0.00    -0.203 NA
ATOM      5  C   UNL     1      34.340 -23.060 -17.173  0.00  0.00    -0.055 C 
ATOM      6  C   UNL     1      36.520 -22.123 -17.550  0.00  0.00    -0.055 C 
ATOM      7  C   UNL     1      34.564 -23.077 -15.660  0.00  0.00    +0.079 C 
ATOM      8  C   UNL     1      36.818 -22.109 -16.048  0.00  0.00    +0.079 C 
ATOM      9  C   UNL     1      36.392 -23.570 -14.091  0.00  0.00    +0.090 C 
ATOM     10  C   UNL     1      36.013 -24.924 -12.273  0.00  0.00    +0.108 C 
ATOM     11  C   UNL     1      37.884 -23.528 -12.343  0.00  0.00    +0.165 C 
ATOM     12  C   UNL     1      37.155 -24.469 -11.646  0.00  0.00    +0.022 C 
ATOM     13  H   UNL     1      34.774 -21.079 -17.399  0.00  0.00    -0.080 HD
ENDROOT
BRANCH   1  14
ATOM     14  C   UNL     1      34.819 -21.923 -19.241  0.00  0.00    -0.077 C 
BRANCH  14  15
ATOM     15  C   UNL     1      33.416 -21.379 -19.508  0.00  0.00    -0.021 C 
BRANCH  15  16
ATOM     16  C   UNL     1      33.444 -20.265 -20.555  0.00  0.00    +0.021 C 
BRANCH  16  17
ATOM     17  C   UNL     1      34.878 -19.869 -20.903  0.00  0.00    +0.116 C 
BRANCH  17  19
ATOM     18 CL   UNL     1      34.811 -16.980 -25.234  0.00  0.00    -0.079 Cl
ATOM     19  N   UNL     1      34.927 -18.753 -21.841  0.00  0.00    -0.209 N 
ATOM     20  N   UNL     1      35.134 -17.518 -21.373  0.00  0.00    -0.175 NA
ATOM     21  C   UNL     1      34.779 -18.837 -23.185  0.00  0.00    +0.097 C 
ATOM     22  C   UNL     1      34.899 -17.549 -23.646  0.00  0.00    +0.095 C 
ATOM     23  C   UNL     1      35.116 -16.780 -22.486  0.00  0.00    +0.130 C 
ENDBRANCH  17  19
ENDBRANCH  16  17
ENDBRANCH  15  16
ENDBRANCH  14  15
ENDBRANCH   1  14
TORSDOF 5
ENDMDL
MODEL 6
REMARK VINA RESULT:      -8.6      2.815      8.811
REMARK  Name = 60813
REMARK  5 active torsions:
REMARK  status: ('A' for Active; 'I' for Inactive)
REMARK    1  A    between atoms: N_1  and  C_14
REMARK    2  A    between atoms: C_14  and  C_15
REMARK    3  A    between atoms: C_15  and  C_16
REMARK    4  A    between atoms: C_16  and  C_17
REMARK    5  A    between atoms: C_17  and  N_19
REMARK                            x       y       z     vdW  Elec       q    Type
REMARK                         _______ _______ _______ _____ _____    ______ ____
ROOT
ATOM      1  N   UNL     1      34.971 -19.856 -21.676  0.00  0.00    +0.389 N 
ATOM      2  N   UNL     1      34.245 -21.321 -19.334  0.00  0.00    -0.257 N 
ATOM      3  N   UNL     1      34.889 -22.580 -17.444  0.00  0.00    -0.181 NA
ATOM      4  N   UNL     1      32.575 -22.449 -18.103  0.00  0.00    -0.203 NA
ATOM      5  C   UNL     1      35.992 -20.242 -20.695  0.00  0.00    -0.055 C 
ATOM      6  C   UNL     1      33.701 -19.583 -20.994  0.00  0.00    -0.055 C 
ATOM      7  C   UNL     1      35.574 -21.499 -19.931  0.00  0.00    +0.079 C 
ATOM      8  C   UNL     1      33.205 -20.820 -20.239  0.00  0.00    +0.079 C 
ATOM      9  C   UNL     1      33.891 -22.144 -18.259  0.00  0.00    +0.090 C 
ATOM     10  C   UNL     1      34.512 -23.370 -16.417  0.00  0.00    +0.108 C 
ATOM     11  C   UNL     1      32.269 -23.243 -17.056  0.00  0.00    +0.165 C 
ATOM     12  C   UNL     1      33.205 -23.738 -16.171  0.00  0.00    +0.022 C 
ATOM     13  H   UNL     1      34.834 -20.628 -22.330  0.00  0.00    -0.080 HD
ENDROOT
BRANCH   1  14
ATOM     14  C   UNL     1      35.406 -18.686 -22.437  0.00  0.00    -0.077 C 
BRANCH  14  15
ATOM     15  C   UNL     1      34.997 -18.824 -23.904  0.00  0.00    -0.021 C 
BRANCH  15  16
ATOM     16  C   UNL     1      34.539 -17.483 -24.479  0.00  0.00    +0.021 C 
BRANCH  16  17
ATOM     17  C   UNL     1      35.214 -16.314 -23.763  0.00  0.00    +0.116 C 
BRANCH  17  19
ATOM     18 CL   UNL     1      32.354 -13.316 -20.611  0.00  0.00    -0.079 Cl
ATOM     19  N   UNL     1      34.244 -15.356 -23.244  0.00  0.00    -0.209 N 
ATOM     20  N   UNL     1      33.448 -14.707 -24.099  0.00  0.00    -0.175 NA
ATOM     21  C   UNL     1      34.058 -15.042 -21.939  0.00  0.00    +0.097 C 
ATOM     22  C   UNL     1      33.052 -14.107 -21.930  0.00  0.00    +0.095 C 
ATOM     23  C   UNL     1      32.716 -13.939 -23.287  0.00  0.00    +0.130 C 
ENDBRANCH  17  19
ENDBRANCH  16  17
ENDBRANCH  15  16
ENDBRANCH  14  15
ENDBRANCH   1  14
TORSDOF 5
ENDMDL
MODEL 7
REMARK VINA RESULT:      -8.6      3.831      6.248
REMARK  Name = 60813
REMARK  5 active torsions:
REMARK  status: ('A' for Active; 'I' for Inactive)
REMARK    1  A    between atoms: N_1  and  C_14
REMARK    2  A    between atoms: C_14  and  C_15
REMARK    3  A    between atoms: C_15  and  C_16
REMARK    4  A    between atoms: C_16  and  C_17
REMARK    5  A    between atoms: C_17  and  N_19
REMARK                            x       y       z     vdW  Elec       q    Type
REMARK                         _______ _______ _______ _____ _____    ______ ____
ROOT
ATOM      1  N   UNL     1      32.665 -13.536 -23.041  0.00  0.00    +0.389 N 
ATOM      2  N   UNL     1      32.695 -10.692 -22.779  0.00  0.00    -0.257 N 
ATOM      3  N   UNL     1      31.963  -8.746 -21.658  0.00  0.00    -0.181 NA
ATOM      4  N   UNL     1      33.168  -8.587 -23.739  0.00  0.00    -0.203 NA
ATOM      5  C   UNL     1      32.100 -12.895 -21.848  0.00  0.00    -0.055 C 
ATOM      6  C   UNL     1      33.807 -12.756 -23.534  0.00  0.00    -0.055 C 
ATOM      7  C   UNL     1      31.619 -11.477 -22.162  0.00  0.00    +0.079 C 
ATOM      8  C   UNL     1      33.382 -11.332 -23.904  0.00  0.00    +0.079 C 
ATOM      9  C   UNL     1      32.605  -9.296 -22.723  0.00  0.00    +0.090 C 
ATOM     10  C   UNL     1      31.897  -7.399 -21.636  0.00  0.00    +0.108 C 
ATOM     11  C   UNL     1      33.064  -7.244 -23.654  0.00  0.00    +0.165 C 
ATOM     12  C   UNL     1      32.434  -6.589 -22.616  0.00  0.00    +0.022 C 
ATOM     13  H   UNL     1      31.950 -13.567 -23.768  0.00  0.00    -0.080 HD
ENDROOT
BRANCH   1  14
ATOM     14  C   UNL     1      33.072 -14.908 -22.743  0.00  0.00    -0.077 C 
BRANCH  14  15
ATOM     15  C   UNL     1      33.216 -15.103 -21.234  0.00  0.00    -0.021 C 
BRANCH  15  16
ATOM     16  C   UNL     1      34.536 -15.792 -20.888  0.00  0.00    +0.021 C 
BRANCH  16  17
ATOM     17  C   UNL     1      34.872 -16.885 -21.901  0.00  0.00    +0.116 C 
BRANCH  17  19
ATOM     18 CL   UNL     1      33.448 -21.478 -19.907  0.00  0.00    -0.079 Cl
ATOM     19  N   UNL     1      34.886 -18.211 -21.293  0.00  0.00    -0.209 N 
ATOM     20  N   UNL     1      36.057 -18.758 -20.952  0.00  0.00    -0.175 NA
ATOM     21  C   UNL     1      33.800 -18.974 -21.027  0.00  0.00    +0.097 C 
ATOM     22  C   UNL     1      34.293 -20.125 -20.461  0.00  0.00    +0.095 C 
ATOM     23  C   UNL     1      35.688 -19.936 -20.441  0.00  0.00    +0.130 C 
ENDBRANCH  17  19
ENDBRANCH  16  17
ENDBRANCH  15  16
ENDBRANCH  14  15
ENDBRANCH   1  14
TORSDOF 5
ENDMDL
MODEL 8
REMARK VINA RESULT:      -8.6      3.573     10.015
REMARK  Name = 60813
REMARK  5 active torsions:
REMARK  status: ('A' for Active; 'I' for Inactive)
REMARK    1  A    between atoms: N_1  and  C_14
REMARK    2  A    between atoms: C_14  and  C_15
REMARK    3  A    between atoms: C_15  and  C_16
REMARK    4  A    between atoms: C_16  and  C_17
REMARK    5  A    between atoms: C_17  and  N_19
REMARK                            x       y       z     vdW  Elec       q    Type
REMARK                         _______ _______ _______ _____ _____    ______ ____
ROOT
ATOM      1  N   UNL     1      35.366 -21.172 -19.064  0.00  0.00    +0.389 N 
ATOM      2  N   UNL     1      36.056 -22.762 -16.794  0.00  0.00    -0.257 N 
ATOM      3  N   UNL     1      35.533 -24.525 -15.312  0.00  0.00    -0.181 NA
ATOM      4  N   UNL     1      37.361 -23.026 -14.843  0.00  0.00    -0.203 NA
ATOM      5  C   UNL     1      34.625 -22.405 -18.768  0.00  0.00    -0.055 C 
ATOM      6  C   UNL     1      36.769 -21.324 -18.663  0.00  0.00    -0.055 C 
ATOM      7  C   UNL     1      34.669 -22.726 -17.272  0.00  0.00    +0.079 C 
ATOM      8  C   UNL     1      36.884 -21.610 -17.163  0.00  0.00    +0.079 C 
ATOM      9  C   UNL     1      36.325 -23.460 -15.611  0.00  0.00    +0.090 C 
ATOM     10  C   UNL     1      35.822 -25.175 -14.166  0.00  0.00    +0.108 C 
ATOM     11  C   UNL     1      37.593 -23.722 -13.711  0.00  0.00    +0.165 C 
ATOM     12  C   UNL     1      36.849 -24.815 -13.318  0.00  0.00    +0.022 C 
ATOM     13  H   UNL     1      34.953 -20.405 -18.534  0.00  0.00    -0.080 HD
ENDROOT
BRANCH   1  14
ATOM     14  C   UNL     1      35.271 -20.846 -20.486  0.00  0.00    -0.077 C 
BRANCH  14  15
ATOM     15  C   UNL     1      34.042 -19.977 -20.751  0.00  0.00    -0.021 C 
BRANCH  15  16
ATOM     16  C   UNL     1      34.364 -18.848 -21.731  0.00  0.00    +0.021 C 
BRANCH  16  17
ATOM     17  C   UNL     1      35.297 -17.816 -21.099  0.00  0.00    +0.116 C 
BRANCH  17  19
ATOM     18 CL   UNL     1      33.977 -13.503 -23.698  0.00  0.00    -0.079 Cl
ATOM     19  N   UNL     1      34.915 -16.450 -21.441  0.00  0.00    -0.209 N 
ATOM     20  N   UNL     1      34.758 -15.555 -20.461  0.00  0.00    -0.175 NA
ATOM     21  C   UNL     1      34.696 -15.975 -22.690  0.00  0.00    +0.097 C 
ATOM     22  C   UNL     1      34.366 -14.653 -22.523  0.00  0.00    +0.095 C 
ATOM     23  C   UNL     1      34.420 -14.449 -21.131  0.00  0.00    +0.130 C 
ENDBRANCH  17  19
ENDBRANCH  16  17
ENDBRANCH  15  16
ENDBRANCH  14  15
ENDBRANCH   1  14
TORSDOF 5
ENDMDL
MODEL 9
REMARK VINA RESULT:      -8.6      2.871      4.791
REMARK  Name = 60813
REMARK  5 active torsions:
REMARK  status: ('A' for Active; 'I' for Inactive)
REMARK    1  A    between atoms: N_1  and  C_14
REMARK    2  A    between atoms: C_14  and  C_15
REMARK    3  A    between atoms: C_15  and  C_16
REMARK    4  A    between atoms: C_16  and  C_17
REMARK    5  A    between atoms: C_17  and  N_19
REMARK                            x       y       z     vdW  Elec       q    Type
REMARK                         _______ _______ _______ _____ _____    ______ ____
ROOT
ATOM      1  N   UNL     1      33.867 -15.948 -23.664  0.00  0.00    +0.389 N 
ATOM      2  N   UNL     1      32.809 -13.679 -22.289  0.00  0.00    -0.257 N 
ATOM      3  N   UNL     1      32.133 -12.659 -20.270  0.00  0.00    -0.181 NA
ATOM      4  N   UNL     1      31.645 -11.626 -22.392  0.00  0.00    -0.203 NA
ATOM      5  C   UNL     1      33.914 -15.879 -22.198  0.00  0.00    -0.055 C 
ATOM      6  C   UNL     1      34.009 -14.602 -24.232  0.00  0.00    -0.055 C 
ATOM      7  C   UNL     1      32.785 -15.001 -21.653  0.00  0.00    +0.079 C 
ATOM      8  C   UNL     1      32.884 -13.681 -23.754  0.00  0.00    +0.079 C 
ATOM      9  C   UNL     1      32.175 -12.620 -21.629  0.00  0.00    +0.090 C 
ATOM     10  C   UNL     1      31.516 -11.622 -19.666  0.00  0.00    +0.108 C 
ATOM     11  C   UNL     1      31.043 -10.621 -21.723  0.00  0.00    +0.165 C 
ATOM     12  C   UNL     1      30.947 -10.566 -20.348  0.00  0.00    +0.022 C 
ATOM     13  H   UNL     1      32.964 -16.330 -23.947  0.00  0.00    -0.080 HD
ENDROOT
BRANCH   1  14
ATOM     14  C   UNL     1      34.915 -16.832 -24.170  0.00  0.00    -0.077 C 
BRANCH  14  15
ATOM     15  C   UNL     1      34.310 -18.144 -24.667  0.00  0.00    -0.021 C 
BRANCH  15  16
ATOM     16  C   UNL     1      34.885 -19.341 -23.909  0.00  0.00    +0.021 C 
BRANCH  16  17
ATOM     17  C   UNL     1      35.393 -18.930 -22.528  0.00  0.00    +0.116 C 
BRANCH  17  19
ATOM     18 CL   UNL     1      34.684 -22.198 -18.539  0.00  0.00    -0.079 Cl
ATOM     19  N   UNL     1      34.796 -19.730 -21.464  0.00  0.00    -0.209 N 
ATOM     20  N   UNL     1      33.476 -19.668 -21.265  0.00  0.00    -0.175 NA
ATOM     21  C   UNL     1      35.462 -20.559 -20.625  0.00  0.00    +0.097 C 
ATOM     22  C   UNL     1      34.501 -21.092 -19.802  0.00  0.00    +0.095 C 
ATOM     23  C   UNL     1      33.298 -20.507 -20.241  0.00  0.00    +0.130 C 
ENDBRANCH  17  19
ENDBRANCH  16  17
ENDBRANCH  15  16
ENDBRANCH  14  15
ENDBRANCH   1  14
TORSDOF 5
ENDMDL
