MODEL 1
REMARK VINA RESULT:      -3.7      0.000      0.000
REMARK  Name = 10964
REMARK  2 active torsions:
REMARK  status: ('A' for Active; 'I' for Inactive)
REMARK    1  A    between atoms: C_1  and  C_3
REMARK    2  A    between atoms: C_1  and  C_5
REMARK                            x       y       z     vdW  Elec       q    Type
REMARK                         _______ _______ _______ _____ _____    ______ ____
ROOT
ATOM      1  C   UNL     1      27.284 -22.088 -16.452  0.00  0.00    +0.144 C 
ENDROOT
BRANCH   1   3
ATOM      2  O   UNL     1      27.633 -24.168 -17.655  0.00  0.00    -0.288 OA
ATOM      3  C   UNL     1      28.095 -23.191 -17.076  0.00  0.00    +0.216 C 
ENDBRANCH   1   3
BRANCH   1   5
ATOM      4  O   UNL     1      26.285 -20.462 -17.952  0.00  0.00    -0.288 OA
ATOM      5  C   UNL     1      26.185 -21.484 -17.282  0.00  0.00    +0.216 C 
ENDBRANCH   1   5
TORSDOF 2
ENDMDL
MODEL 2
REMARK VINA RESULT:      -3.5     11.018     11.780
REMARK  Name = 10964
REMARK  2 active torsions:
REMARK  status: ('A' for Active; 'I' for Inactive)
REMARK    1  A    between atoms: C_1  and  C_3
REMARK    2  A    between atoms: C_1  and  C_5
REMARK                            x       y       z     vdW  Elec       q    Type
REMARK                         _______ _______ _______ _____ _____    ______ ____
ROOT
ATOM      1  C   UNL     1      36.804 -24.696 -12.229  0.00  0.00    +0.144 C 
ENDROOT
BRANCH   1   3
ATOM      2  O   UNL     1      38.407 -22.976 -11.623  0.00  0.00    -0.288 OA
ATOM      3  C   UNL     1      38.174 -24.120 -11.997  0.00  0.00    +0.216 C 
ENDBRANCH   1   3
BRANCH   1   5
ATOM      4  O   UNL     1      35.316 -25.078 -10.349  0.00  0.00    -0.288 OA
ATOM      5  C   UNL     1      35.729 -24.342 -11.238  0.00  0.00    +0.216 C 
ENDBRANCH   1   5
TORSDOF 2
ENDMDL
MODEL 3
REMARK VINA RESULT:      -3.4     11.030     11.797
REMARK  Name = 10964
REMARK  2 active torsions:
REMARK  status: ('A' for Active; 'I' for Inactive)
REMARK    1  A    between atoms: C_1  and  C_3
REMARK    2  A    between atoms: C_1  and  C_5
REMARK                            x       y       z     vdW  Elec       q    Type
REMARK                         _______ _______ _______ _____ _____    ______ ____
ROOT
ATOM      1  C   UNL     1      36.970 -24.914 -12.100  0.00  0.00    +0.144 C 
ENDROOT
BRANCH   1   3
ATOM      2  O   UNL     1      35.274 -25.067 -10.369  0.00  0.00    -0.288 OA
ATOM      3  C   UNL     1      35.801 -24.439 -11.282  0.00  0.00    +0.216 C 
ENDBRANCH   1   3
BRANCH   1   5
ATOM      4  O   UNL     1      38.288 -22.932 -11.619  0.00  0.00    -0.288 OA
ATOM      5  C   UNL     1      38.207 -24.057 -12.100  0.00  0.00    +0.216 C 
ENDBRANCH   1   5
TORSDOF 2
ENDMDL
MODEL 4
REMARK VINA RESULT:      -3.4     10.945     11.655
REMARK  Name = 10964
REMARK  2 active torsions:
REMARK  status: ('A' for Active; 'I' for Inactive)
REMARK    1  A    between atoms: C_1  and  C_3
REMARK    2  A    between atoms: C_1  and  C_5
REMARK                            x       y       z     vdW  Elec       q    Type
REMARK                         _______ _______ _______ _____ _____    ______ ____
ROOT
ATOM      1  C   UNL     1      37.930 -26.369 -14.295  0.00  0.00    +0.144 C 
ENDROOT
BRANCH   1   3
ATOM      2  O   UNL     1      36.995 -26.497 -12.058  0.00  0.00    -0.288 OA
ATOM      3  C   UNL     1      37.668 -25.899 -12.891  0.00  0.00    +0.216 C 
ENDBRANCH   1   3
BRANCH   1   5
ATOM      4  O   UNL     1      36.742 -27.325 -16.184  0.00  0.00    -0.288 OA
ATOM      5  C   UNL     1      36.734 -26.641 -15.167  0.00  0.00    +0.216 C 
ENDBRANCH   1   5
TORSDOF 2
ENDMDL
MODEL 5
REMARK VINA RESULT:      -3.4     12.215     13.437
REMARK  Name = 10964
REMARK  2 active torsions:
REMARK  status: ('A' for Active; 'I' for Inactive)
REMARK    1  A    between atoms: C_1  and  C_3
REMARK    2  A    between atoms: C_1  and  C_5
REMARK                            x       y       z     vdW  Elec       q    Type
REMARK                         _______ _______ _______ _____ _____    ______ ____
ROOT
ATOM      1  C   UNL     1      39.158 -25.417 -13.652  0.00  0.00    +0.144 C 
ENDROOT
BRANCH   1   3
ATOM      2  O   UNL     1      37.942 -27.226 -14.720  0.00  0.00    -0.288 OA
ATOM      3  C   UNL     1      37.938 -26.205 -14.041  0.00  0.00    +0.216 C 
ENDBRANCH   1   3
BRANCH   1   5
ATOM      4  O   UNL     1      41.190 -26.634 -14.187  0.00  0.00    -0.288 OA
ATOM      5  C   UNL     1      40.430 -25.696 -14.405  0.00  0.00    +0.216 C 
ENDBRANCH   1   5
TORSDOF 2
ENDMDL
MODEL 6
REMARK VINA RESULT:      -3.4     16.000     16.171
REMARK  Name = 10964
REMARK  2 active torsions:
REMARK  status: ('A' for Active; 'I' for Inactive)
REMARK    1  A    between atoms: C_1  and  C_3
REMARK    2  A    between atoms: C_1  and  C_5
REMARK                            x       y       z     vdW  Elec       q    Type
REMARK                         _______ _______ _______ _____ _____    ______ ____
ROOT
ATOM      1  C   UNL     1      41.071 -14.560 -15.832  0.00  0.00    +0.144 C 
ENDROOT
BRANCH   1   3
ATOM      2  O   UNL     1      42.369 -16.604 -15.656  0.00  0.00    -0.288 OA
ATOM      3  C   UNL     1      41.287 -16.031 -15.604  0.00  0.00    +0.216 C 
ENDBRANCH   1   3
BRANCH   1   5
ATOM      4  O   UNL     1      40.875 -14.081 -13.460  0.00  0.00    -0.288 OA
ATOM      5  C   UNL     1      40.788 -13.708 -14.624  0.00  0.00    +0.216 C 
ENDBRANCH   1   5
TORSDOF 2
ENDMDL
MODEL 7
REMARK VINA RESULT:      -3.4     10.837     11.424
REMARK  Name = 10964
REMARK  2 active torsions:
REMARK  status: ('A' for Active; 'I' for Inactive)
REMARK    1  A    between atoms: C_1  and  C_3
REMARK    2  A    between atoms: C_1  and  C_5
REMARK                            x       y       z     vdW  Elec       q    Type
REMARK                         _______ _______ _______ _____ _____    ______ ____
ROOT
ATOM      1  C   UNL     1      37.368 -26.873 -14.006  0.00  0.00    +0.144 C 
ENDROOT
BRANCH   1   3
ATOM      2  O   UNL     1      36.659 -27.334 -16.282  0.00  0.00    -0.288 OA
ATOM      3  C   UNL     1      36.625 -26.617 -15.288  0.00  0.00    +0.216 C 
ENDBRANCH   1   3
BRANCH   1   5
ATOM      4  O   UNL     1      36.800 -26.149 -11.760  0.00  0.00    -0.288 OA
ATOM      5  C   UNL     1      37.186 -25.880 -12.891  0.00  0.00    +0.216 C 
ENDBRANCH   1   5
TORSDOF 2
ENDMDL
MODEL 8
REMARK VINA RESULT:      -3.4     12.141     13.089
REMARK  Name = 10964
REMARK  2 active torsions:
REMARK  status: ('A' for Active; 'I' for Inactive)
REMARK    1  A    between atoms: C_1  and  C_3
REMARK    2  A    between atoms: C_1  and  C_5
REMARK                            x       y       z     vdW  Elec       q    Type
REMARK                         _______ _______ _______ _____ _____    ______ ____
ROOT
ATOM      1  C   UNL     1      38.894 -25.159 -13.221  0.00  0.00    +0.144 C 
ENDROOT
BRANCH   1   3
ATOM      2  O   UNL     1      40.937 -24.975 -14.519  0.00  0.00    -0.288 OA
ATOM      3  C   UNL     1      39.983 -25.644 -14.138  0.00  0.00    +0.216 C 
ENDBRANCH   1   3
BRANCH   1   5
ATOM      4  O   UNL     1      37.143 -26.306 -11.992  0.00  0.00    -0.288 OA
ATOM      5  C   UNL     1      37.685 -26.039 -13.058  0.00  0.00    +0.216 C 
ENDBRANCH   1   5
TORSDOF 2
ENDMDL
MODEL 9
REMARK VINA RESULT:      -3.3     15.912     16.098
REMARK  Name = 10964
REMARK  2 active torsions:
REMARK  status: ('A' for Active; 'I' for Inactive)
REMARK    1  A    between atoms: C_1  and  C_3
REMARK    2  A    between atoms: C_1  and  C_5
REMARK                            x       y       z     vdW  Elec       q    Type
REMARK                         _______ _______ _______ _____ _____    ______ ____
ROOT
ATOM      1  C   UNL     1      41.124 -14.598 -16.036  0.00  0.00    +0.144 C 
ENDROOT
BRANCH   1   3
ATOM      2  O   UNL     1      42.427 -16.621 -15.718  0.00  0.00    -0.288 OA
ATOM      3  C   UNL     1      41.340 -16.054 -15.729  0.00  0.00    +0.216 C 
ENDBRANCH   1   3
BRANCH   1   5
ATOM      4  O   UNL     1      40.821 -14.192 -18.410  0.00  0.00    -0.288 OA
ATOM      5  C   UNL     1      41.518 -14.114 -17.405  0.00  0.00    +0.216 C 
ENDBRANCH   1   5
TORSDOF 2
ENDMDL
