MODEL 1
REMARK VINA RESULT:      -9.4      0.000      0.000
REMARK  Name = 123606
REMARK  6 active torsions:
REMARK  status: ('A' for Active; 'I' for Inactive)
REMARK    1  A    between atoms: C_2  and  C_11
REMARK    2  A    between atoms: C_5  and  C_20
REMARK    3  A    between atoms: C_11  and  S_12
REMARK    4  A    between atoms: S_12  and  N_15
REMARK    5  A    between atoms: C_20  and  C_21
REMARK    6  A    between atoms: C_21  and  N_22
REMARK                            x       y       z     vdW  Elec       q    Type
REMARK                         _______ _______ _______ _____ _____    ______ ____
ROOT
ATOM      1  N   UNL     1      33.836 -23.191 -16.922  0.00  0.00    -0.312 N 
ATOM      2  C   UNL     1      35.346 -20.893 -19.985  0.00  0.00    +0.003 C 
ATOM      3  C   UNL     1      35.520 -22.103 -17.898  0.00  0.00    +0.010 C 
ATOM      4  C   UNL     1      36.121 -21.317 -18.902  0.00  0.00    -0.002 C 
ATOM      5  C   UNL     1      35.987 -22.694 -16.691  0.00  0.00    -0.008 C 
ATOM      6  C   UNL     1      34.168 -22.430 -18.019  0.00  0.00    +0.048 C 
ATOM      7  C   UNL     1      34.000 -21.231 -20.083  0.00  0.00    -0.001 C 
ATOM      8  C   UNL     1      33.383 -22.010 -19.099  0.00  0.00    +0.014 C 
ATOM      9  C   UNL     1      34.929 -23.357 -16.113  0.00  0.00    +0.057 C 
ATOM     10  H   UNL     1      32.942 -23.563 -16.744  0.00  0.00    +0.152 HD
ENDROOT
BRANCH   2  11
ATOM     11  C   UNL     1      35.978 -20.058 -21.056  0.00  0.00    +0.195 C 
BRANCH  11  12
ATOM     12  S   UNL     1      34.990 -18.595 -21.255  0.00  0.00    +0.048 S 
ATOM     13  O   UNL     1      33.598 -18.982 -21.123  0.00  0.00    -0.157 OA
ATOM     14  O   UNL     1      35.563 -17.560 -20.416  0.00  0.00    -0.157 OA
BRANCH  12  15
ATOM     15  N   UNL     1      35.324 -18.245 -22.883  0.00  0.00    -0.159 NA
ATOM     16  C   UNL     1      34.947 -19.257 -23.912  0.00  0.00    +0.095 C 
ATOM     17  C   UNL     1      34.958 -16.895 -23.392  0.00  0.00    +0.095 C 
ATOM     18  C   UNL     1      34.224 -18.470 -24.997  0.00  0.00    +0.021 C 
ATOM     19  C   UNL     1      34.839 -17.088 -24.895  0.00  0.00    +0.021 C 
ENDBRANCH  12  15
ENDBRANCH  11  12
ENDBRANCH   2  11
BRANCH   5  20
ATOM     20  C   UNL     1      37.357 -22.618 -16.146  0.00  0.00    +0.005 C 
BRANCH  20  21
ATOM     21  C   UNL     1      37.583 -23.567 -14.954  0.00  0.00    -0.073 C 
BRANCH  21  22
ATOM     22  N   UNL     1      38.100 -24.863 -15.380  0.00  0.00    +0.384 N 
ATOM     23  C   UNL     1      37.240 -25.944 -14.897  0.00  0.00    -0.101 C 
ATOM     24  C   UNL     1      39.471 -25.052 -14.902  0.00  0.00    -0.101 C 
ATOM     25  H   UNL     1      38.107 -24.885 -16.398  0.00  0.00    -0.080 HD
ENDBRANCH  21  22
ENDBRANCH  20  21
ENDBRANCH   5  20
TORSDOF 6
ENDMDL
MODEL 2
REMARK VINA RESULT:      -9.4      3.563     10.298
REMARK  Name = 123606
REMARK  6 active torsions:
REMARK  status: ('A' for Active; 'I' for Inactive)
REMARK    1  A    between atoms: C_2  and  C_11
REMARK    2  A    between atoms: C_5  and  C_20
REMARK    3  A    between atoms: C_11  and  S_12
REMARK    4  A    between atoms: S_12  and  N_15
REMARK    5  A    between atoms: C_20  and  C_21
REMARK    6  A    between atoms: C_21  and  N_22
REMARK                            x       y       z     vdW  Elec       q    Type
REMARK                         _______ _______ _______ _____ _____    ______ ____
ROOT
ATOM      1  N   UNL     1      32.761 -14.923 -26.230  0.00  0.00    -0.312 N 
ATOM      2  C   UNL     1      35.065 -17.274 -23.758  0.00  0.00    +0.003 C 
ATOM      3  C   UNL     1      34.001 -15.198 -24.396  0.00  0.00    +0.010 C 
ATOM      4  C   UNL     1      34.801 -15.928 -23.495  0.00  0.00    -0.002 C 
ATOM      5  C   UNL     1      33.539 -13.854 -24.447  0.00  0.00    -0.008 C 
ATOM      6  C   UNL     1      33.498 -15.847 -25.526  0.00  0.00    +0.048 C 
ATOM      7  C   UNL     1      34.553 -17.899 -24.891  0.00  0.00    -0.001 C 
ATOM      8  C   UNL     1      33.756 -17.195 -25.800  0.00  0.00    +0.014 C 
ATOM      9  C   UNL     1      32.780 -13.715 -25.586  0.00  0.00    +0.057 C 
ATOM     10  H   UNL     1      32.287 -15.104 -27.074  0.00  0.00    +0.152 HD
ENDROOT
BRANCH   2  11
ATOM     11  C   UNL     1      35.914 -18.057 -22.804  0.00  0.00    +0.195 C 
BRANCH  11  12
ATOM     12  S   UNL     1      35.008 -18.223 -21.285  0.00  0.00    +0.048 S 
ATOM     13  O   UNL     1      35.626 -17.349 -20.306  0.00  0.00    -0.157 OA
ATOM     14  O   UNL     1      33.597 -18.117 -21.600  0.00  0.00    -0.157 OA
BRANCH  12  15
ATOM     15  N   UNL     1      35.379 -19.838 -20.909  0.00  0.00    -0.159 NA
ATOM     16  C   UNL     1      36.711 -20.131 -20.304  0.00  0.00    +0.095 C 
ATOM     17  C   UNL     1      34.348 -20.637 -20.192  0.00  0.00    +0.095 C 
ATOM     18  C   UNL     1      36.417 -21.037 -19.115  0.00  0.00    +0.021 C 
ATOM     19  C   UNL     1      35.143 -21.749 -19.526  0.00  0.00    +0.021 C 
ENDBRANCH  12  15
ENDBRANCH  11  12
ENDBRANCH   2  11
BRANCH   5  20
ATOM     20  C   UNL     1      33.819 -12.790 -23.462  0.00  0.00    +0.005 C 
BRANCH  20  21
ATOM     21  C   UNL     1      33.531 -11.377 -24.006  0.00  0.00    -0.073 C 
BRANCH  21  22
ATOM     22  N   UNL     1      34.756 -10.673 -24.366  0.00  0.00    +0.384 N 
ATOM     23  C   UNL     1      34.659  -9.256 -24.011  0.00  0.00    -0.101 C 
ATOM     24  C   UNL     1      35.033 -10.820 -25.796  0.00  0.00    -0.101 C 
ATOM     25  H   UNL     1      35.528 -11.086 -23.843  0.00  0.00    -0.080 HD
ENDBRANCH  21  22
ENDBRANCH  20  21
ENDBRANCH   5  20
TORSDOF 6
ENDMDL
MODEL 3
REMARK VINA RESULT:      -9.4      3.256      9.604
REMARK  Name = 123606
REMARK  6 active torsions:
REMARK  status: ('A' for Active; 'I' for Inactive)
REMARK    1  A    between atoms: C_2  and  C_11
REMARK    2  A    between atoms: C_5  and  C_20
REMARK    3  A    between atoms: C_11  and  S_12
REMARK    4  A    between atoms: S_12  and  N_15
REMARK    5  A    between atoms: C_20  and  C_21
REMARK    6  A    between atoms: C_21  and  N_22
REMARK                            x       y       z     vdW  Elec       q    Type
REMARK                         _______ _______ _______ _____ _____    ______ ____
ROOT
ATOM      1  N   UNL     1      32.874 -15.043 -26.128  0.00  0.00    -0.312 N 
ATOM      2  C   UNL     1      35.075 -17.560 -23.726  0.00  0.00    +0.003 C 
ATOM      3  C   UNL     1      34.048 -15.440 -24.273  0.00  0.00    +0.010 C 
ATOM      4  C   UNL     1      34.812 -16.230 -23.391  0.00  0.00    -0.002 C 
ATOM      5  C   UNL     1      33.598 -14.091 -24.259  0.00  0.00    -0.008 C 
ATOM      6  C   UNL     1      33.580 -16.015 -25.456  0.00  0.00    +0.048 C 
ATOM      7  C   UNL     1      34.598 -18.111 -24.911  0.00  0.00    -0.001 C 
ATOM      8  C   UNL     1      33.838 -17.347 -25.802  0.00  0.00    +0.014 C 
ATOM      9  C   UNL     1      32.879 -13.876 -25.412  0.00  0.00    +0.057 C 
ATOM     10  H   UNL     1      32.429 -15.169 -26.997  0.00  0.00    +0.152 HD
ENDROOT
BRANCH   2  11
ATOM     11  C   UNL     1      35.885 -18.406 -22.792  0.00  0.00    +0.195 C 
BRANCH  11  12
ATOM     12  S   UNL     1      35.019 -18.484 -21.243  0.00  0.00    +0.048 S 
ATOM     13  O   UNL     1      35.666 -17.561 -20.330  0.00  0.00    -0.157 OA
ATOM     14  O   UNL     1      33.600 -18.387 -21.526  0.00  0.00    -0.157 OA
BRANCH  12  15
ATOM     15  N   UNL     1      35.392 -20.078 -20.789  0.00  0.00    -0.159 NA
ATOM     16  C   UNL     1      36.727 -20.341 -20.177  0.00  0.00    +0.095 C 
ATOM     17  C   UNL     1      34.364 -20.841 -20.028  0.00  0.00    +0.095 C 
ATOM     18  C   UNL     1      36.439 -21.187 -18.943  0.00  0.00    +0.021 C 
ATOM     19  C   UNL     1      35.163 -21.918 -19.311  0.00  0.00    +0.021 C 
ENDBRANCH  12  15
ENDBRANCH  11  12
ENDBRANCH   2  11
BRANCH   5  20
ATOM     20  C   UNL     1      33.851 -13.090 -23.202  0.00  0.00    +0.005 C 
BRANCH  20  21
ATOM     21  C   UNL     1      32.675 -12.116 -23.003  0.00  0.00    -0.073 C 
BRANCH  21  22
ATOM     22  N   UNL     1      31.719 -12.610 -22.018  0.00  0.00    +0.384 N 
ATOM     23  C   UNL     1      31.032 -11.495 -21.364  0.00  0.00    -0.101 C 
ATOM     24  C   UNL     1      32.393 -13.446 -21.023  0.00  0.00    -0.101 C 
ATOM     25  H   UNL     1      31.026 -13.178 -22.502  0.00  0.00    -0.080 HD
ENDBRANCH  21  22
ENDBRANCH  20  21
ENDBRANCH   5  20
TORSDOF 6
ENDMDL
MODEL 4
REMARK VINA RESULT:      -9.3      1.886      2.592
REMARK  Name = 123606
REMARK  6 active torsions:
REMARK  status: ('A' for Active; 'I' for Inactive)
REMARK    1  A    between atoms: C_2  and  C_11
REMARK    2  A    between atoms: C_5  and  C_20
REMARK    3  A    between atoms: C_11  and  S_12
REMARK    4  A    between atoms: S_12  and  N_15
REMARK    5  A    between atoms: C_20  and  C_21
REMARK    6  A    between atoms: C_21  and  N_22
REMARK                            x       y       z     vdW  Elec       q    Type
REMARK                         _______ _______ _______ _____ _____    ______ ____
ROOT
ATOM      1  N   UNL     1      33.181 -22.285 -19.094  0.00  0.00    -0.312 N 
ATOM      2  C   UNL     1      34.526 -19.018 -21.207  0.00  0.00    +0.003 C 
ATOM      3  C   UNL     1      34.803 -20.868 -19.673  0.00  0.00    +0.010 C 
ATOM      4  C   UNL     1      35.348 -19.763 -20.357  0.00  0.00    -0.002 C 
ATOM      5  C   UNL     1      35.325 -21.822 -18.758  0.00  0.00    -0.008 C 
ATOM      6  C   UNL     1      33.456 -21.180 -19.868  0.00  0.00    +0.048 C 
ATOM      7  C   UNL     1      33.187 -19.350 -21.384  0.00  0.00    -0.001 C 
ATOM      8  C   UNL     1      32.624 -20.442 -20.716  0.00  0.00    +0.014 C 
ATOM      9  C   UNL     1      34.305 -22.681 -18.419  0.00  0.00    +0.057 C 
ATOM     10  H   UNL     1      32.304 -22.728 -19.035  0.00  0.00    +0.152 HD
ENDROOT
BRANCH   2  11
ATOM     11  C   UNL     1      35.099 -17.843 -21.938  0.00  0.00    +0.195 C 
BRANCH  11  12
ATOM     12  S   UNL     1      34.308 -16.380 -21.313  0.00  0.00    +0.048 S 
ATOM     13  O   UNL     1      32.929 -16.717 -21.018  0.00  0.00    -0.157 OA
ATOM     14  O   UNL     1      35.175 -15.810 -20.299  0.00  0.00    -0.157 OA
BRANCH  12  15
ATOM     15  N   UNL     1      34.364 -15.410 -22.707  0.00  0.00    -0.159 NA
ATOM     16  C   UNL     1      34.795 -16.042 -23.988  0.00  0.00    +0.095 C 
ATOM     17  C   UNL     1      33.198 -14.527 -22.984  0.00  0.00    +0.095 C 
ATOM     18  C   UNL     1      33.760 -15.603 -25.016  0.00  0.00    +0.021 C 
ATOM     19  C   UNL     1      33.281 -14.268 -24.480  0.00  0.00    +0.021 C 
ENDBRANCH  12  15
ENDBRANCH  11  12
ENDBRANCH   2  11
BRANCH   5  20
ATOM     20  C   UNL     1      36.711 -21.890 -18.252  0.00  0.00    +0.005 C 
BRANCH  20  21
ATOM     21  C   UNL     1      36.802 -21.735 -16.723  0.00  0.00    -0.073 C 
BRANCH  21  22
ATOM     22  N   UNL     1      36.616 -23.007 -16.034  0.00  0.00    +0.384 N 
ATOM     23  C   UNL     1      35.593 -22.885 -14.995  0.00  0.00    -0.101 C 
ATOM     24  C   UNL     1      37.879 -23.466 -15.452  0.00  0.00    -0.101 C 
ATOM     25  H   UNL     1      36.305 -23.697 -16.716  0.00  0.00    -0.080 HD
ENDBRANCH  21  22
ENDBRANCH  20  21
ENDBRANCH   5  20
TORSDOF 6
ENDMDL
MODEL 5
REMARK VINA RESULT:      -9.3      2.756      4.251
REMARK  Name = 123606
REMARK  6 active torsions:
REMARK  status: ('A' for Active; 'I' for Inactive)
REMARK    1  A    between atoms: C_2  and  C_11
REMARK    2  A    between atoms: C_5  and  C_20
REMARK    3  A    between atoms: C_11  and  S_12
REMARK    4  A    between atoms: S_12  and  N_15
REMARK    5  A    between atoms: C_20  and  C_21
REMARK    6  A    between atoms: C_21  and  N_22
REMARK                            x       y       z     vdW  Elec       q    Type
REMARK                         _______ _______ _______ _____ _____    ______ ____
ROOT
ATOM      1  N   UNL     1      36.861 -21.347 -19.477  0.00  0.00    -0.312 N 
ATOM      2  C   UNL     1      34.940 -18.412 -21.632  0.00  0.00    +0.003 C 
ATOM      3  C   UNL     1      34.996 -20.348 -20.184  0.00  0.00    +0.010 C 
ATOM      4  C   UNL     1      34.256 -19.381 -20.894  0.00  0.00    -0.002 C 
ATOM      5  C   UNL     1      34.647 -21.449 -19.354  0.00  0.00    -0.008 C 
ATOM      6  C   UNL     1      36.390 -20.306 -20.245  0.00  0.00    +0.048 C 
ATOM      7  C   UNL     1      36.330 -18.391 -21.678  0.00  0.00    -0.001 C 
ATOM      8  C   UNL     1      37.085 -19.340 -20.982  0.00  0.00    +0.014 C 
ATOM      9  C   UNL     1      35.815 -22.043 -18.934  0.00  0.00    +0.057 C 
ATOM     10  H   UNL     1      37.812 -21.559 -19.337  0.00  0.00    +0.152 HD
ENDROOT
BRANCH   2  11
ATOM     11  C   UNL     1      34.161 -17.380 -22.388  0.00  0.00    +0.195 C 
BRANCH  11  12
ATOM     12  S   UNL     1      33.841 -16.027 -21.283  0.00  0.00    +0.048 S 
ATOM     13  O   UNL     1      32.461 -16.131 -20.846  0.00  0.00    -0.157 OA
ATOM     14  O   UNL     1      34.929 -15.974 -20.325  0.00  0.00    -0.157 OA
BRANCH  12  15
ATOM     15  N   UNL     1      33.989 -14.731 -22.371  0.00  0.00    -0.159 NA
ATOM     16  C   UNL     1      34.223 -15.043 -23.810  0.00  0.00    +0.095 C 
ATOM     17  C   UNL     1      32.986 -13.634 -22.283  0.00  0.00    +0.095 C 
ATOM     18  C   UNL     1      33.226 -14.180 -24.573  0.00  0.00    +0.021 C 
ATOM     19  C   UNL     1      33.027 -12.987 -23.658  0.00  0.00    +0.021 C 
ENDBRANCH  12  15
ENDBRANCH  11  12
ENDBRANCH   2  11
BRANCH   5  20
ATOM     20  C   UNL     1      33.282 -21.886 -18.998  0.00  0.00    +0.005 C 
BRANCH  20  21
ATOM     21  C   UNL     1      33.264 -23.165 -18.140  0.00  0.00    -0.073 C 
BRANCH  21  22
ATOM     22  N   UNL     1      33.007 -22.874 -16.734  0.00  0.00    +0.384 N 
ATOM     23  C   UNL     1      33.978 -23.559 -15.880  0.00  0.00    -0.101 C 
ATOM     24  C   UNL     1      31.644 -23.264 -16.369  0.00  0.00    -0.101 C 
ATOM     25  H   UNL     1      33.104 -21.869 -16.594  0.00  0.00    -0.080 HD
ENDBRANCH  21  22
ENDBRANCH  20  21
ENDBRANCH   5  20
TORSDOF 6
ENDMDL
MODEL 6
REMARK VINA RESULT:      -9.3      3.823      8.642
REMARK  Name = 123606
REMARK  6 active torsions:
REMARK  status: ('A' for Active; 'I' for Inactive)
REMARK    1  A    between atoms: C_2  and  C_11
REMARK    2  A    between atoms: C_5  and  C_20
REMARK    3  A    between atoms: C_11  and  S_12
REMARK    4  A    between atoms: S_12  and  N_15
REMARK    5  A    between atoms: C_20  and  C_21
REMARK    6  A    between atoms: C_21  and  N_22
REMARK                            x       y       z     vdW  Elec       q    Type
REMARK                         _______ _______ _______ _____ _____    ______ ____
ROOT
ATOM      1  N   UNL     1      33.131 -22.546 -18.813  0.00  0.00    -0.312 N 
ATOM      2  C   UNL     1      36.044 -22.730 -15.911  0.00  0.00    +0.003 C 
ATOM      3  C   UNL     1      35.223 -22.198 -18.122  0.00  0.00    +0.010 C 
ATOM      4  C   UNL     1      36.280 -22.223 -17.191  0.00  0.00    -0.002 C 
ATOM      5  C   UNL     1      35.102 -21.767 -19.472  0.00  0.00    -0.008 C 
ATOM      6  C   UNL     1      33.972 -22.682 -17.733  0.00  0.00    +0.048 C 
ATOM      7  C   UNL     1      34.789 -23.207 -15.546  0.00  0.00    -0.001 C 
ATOM      8  C   UNL     1      33.725 -23.191 -16.453  0.00  0.00    +0.014 C 
ATOM      9  C   UNL     1      33.804 -21.993 -19.870  0.00  0.00    +0.057 C 
ATOM     10  H   UNL     1      32.182 -22.807 -18.825  0.00  0.00    +0.152 HD
ENDROOT
BRANCH   2  11
ATOM     11  C   UNL     1      37.163 -22.759 -14.915  0.00  0.00    +0.195 C 
BRANCH  11  12
ATOM     12  S   UNL     1      37.663 -24.452 -14.714  0.00  0.00    +0.048 S 
ATOM     13  O   UNL     1      36.764 -25.274 -15.501  0.00  0.00    -0.157 OA
ATOM     14  O   UNL     1      39.099 -24.513 -14.909  0.00  0.00    -0.157 OA
BRANCH  12  15
ATOM     15  N   UNL     1      37.313 -24.657 -13.064  0.00  0.00    -0.159 NA
ATOM     16  C   UNL     1      37.924 -23.706 -12.091  0.00  0.00    +0.095 C 
ATOM     17  C   UNL     1      35.892 -24.879 -12.680  0.00  0.00    +0.095 C 
ATOM     18  C   UNL     1      36.777 -23.269 -11.189  0.00  0.00    +0.021 C 
ATOM     19  C   UNL     1      35.836 -24.457 -11.220  0.00  0.00    +0.021 C 
ENDBRANCH  12  15
ENDBRANCH  11  12
ENDBRANCH   2  11
BRANCH   5  20
ATOM     20  C   UNL     1      36.169 -21.180 -20.308  0.00  0.00    +0.005 C 
BRANCH  20  21
ATOM     21  C   UNL     1      36.066 -19.648 -20.426  0.00  0.00    -0.073 C 
BRANCH  21  22
ATOM     22  N   UNL     1      35.330 -19.242 -21.618  0.00  0.00    +0.384 N 
ATOM     23  C   UNL     1      36.135 -18.335 -22.437  0.00  0.00    -0.101 C 
ATOM     24  C   UNL     1      34.064 -18.606 -21.250  0.00  0.00    -0.101 C 
ATOM     25  H   UNL     1      35.125 -20.077 -22.166  0.00  0.00    -0.080 HD
ENDBRANCH  21  22
ENDBRANCH  20  21
ENDBRANCH   5  20
TORSDOF 6
ENDMDL
MODEL 7
REMARK VINA RESULT:      -9.2      2.043      3.724
REMARK  Name = 123606
REMARK  6 active torsions:
REMARK  status: ('A' for Active; 'I' for Inactive)
REMARK    1  A    between atoms: C_2  and  C_11
REMARK    2  A    between atoms: C_5  and  C_20
REMARK    3  A    between atoms: C_11  and  S_12
REMARK    4  A    between atoms: S_12  and  N_15
REMARK    5  A    between atoms: C_20  and  C_21
REMARK    6  A    between atoms: C_21  and  N_22
REMARK                            x       y       z     vdW  Elec       q    Type
REMARK                         _______ _______ _______ _____ _____    ______ ____
ROOT
ATOM      1  N   UNL     1      35.856 -22.756 -16.740  0.00  0.00    -0.312 N 
ATOM      2  C   UNL     1      34.976 -20.838 -20.275  0.00  0.00    +0.003 C 
ATOM      3  C   UNL     1      34.398 -22.107 -18.298  0.00  0.00    +0.010 C 
ATOM      4  C   UNL     1      34.007 -21.475 -19.496  0.00  0.00    -0.002 C 
ATOM      5  C   UNL     1      33.706 -22.829 -17.287  0.00  0.00    -0.008 C 
ATOM      6  C   UNL     1      35.745 -22.075 -17.931  0.00  0.00    +0.048 C 
ATOM      7  C   UNL     1      36.312 -20.821 -19.887  0.00  0.00    -0.001 C 
ATOM      8  C   UNL     1      36.724 -21.440 -18.703  0.00  0.00    +0.014 C 
ATOM      9  C   UNL     1      34.629 -23.215 -16.342  0.00  0.00    +0.057 C 
ATOM     10  H   UNL     1      36.696 -22.892 -16.245  0.00  0.00    +0.152 HD
ENDROOT
BRANCH   2  11
ATOM     11  C   UNL     1      34.567 -20.164 -21.548  0.00  0.00    +0.195 C 
BRANCH  11  12
ATOM     12  S   UNL     1      34.779 -18.414 -21.326  0.00  0.00    +0.048 S 
ATOM     13  O   UNL     1      33.480 -17.850 -21.010  0.00  0.00    -0.157 OA
ATOM     14  O   UNL     1      35.916 -18.216 -20.448  0.00  0.00    -0.157 OA
BRANCH  12  15
ATOM     15  N   UNL     1      35.210 -17.977 -22.910  0.00  0.00    -0.159 NA
ATOM     16  C   UNL     1      35.020 -18.983 -23.994  0.00  0.00    +0.095 C 
ATOM     17  C   UNL     1      34.757 -16.650 -23.411  0.00  0.00    +0.095 C 
ATOM     18  C   UNL     1      34.315 -18.231 -25.116  0.00  0.00    +0.021 C 
ATOM     19  C   UNL     1      34.782 -16.801 -24.924  0.00  0.00    +0.021 C 
ENDBRANCH  12  15
ENDBRANCH  11  12
ENDBRANCH   2  11
BRANCH   5  20
ATOM     20  C   UNL     1      32.259 -23.119 -17.247  0.00  0.00    +0.005 C 
BRANCH  20  21
ATOM     21  C   UNL     1      31.755 -23.470 -15.834  0.00  0.00    -0.073 C 
BRANCH  21  22
ATOM     22  N   UNL     1      30.393 -23.990 -15.855  0.00  0.00    +0.384 N 
ATOM     23  C   UNL     1      29.432 -22.931 -15.543  0.00  0.00    -0.101 C 
ATOM     24  C   UNL     1      30.250 -25.100 -14.911  0.00  0.00    -0.101 C 
ATOM     25  H   UNL     1      30.198 -24.337 -16.793  0.00  0.00    -0.080 HD
ENDBRANCH  21  22
ENDBRANCH  20  21
ENDBRANCH   5  20
TORSDOF 6
ENDMDL
MODEL 8
REMARK VINA RESULT:      -9.2      4.453      7.944
REMARK  Name = 123606
REMARK  6 active torsions:
REMARK  status: ('A' for Active; 'I' for Inactive)
REMARK    1  A    between atoms: C_2  and  C_11
REMARK    2  A    between atoms: C_5  and  C_20
REMARK    3  A    between atoms: C_11  and  S_12
REMARK    4  A    between atoms: S_12  and  N_15
REMARK    5  A    between atoms: C_20  and  C_21
REMARK    6  A    between atoms: C_21  and  N_22
REMARK                            x       y       z     vdW  Elec       q    Type
REMARK                         _______ _______ _______ _____ _____    ______ ____
ROOT
ATOM      1  N   UNL     1      37.009 -22.145 -16.123  0.00  0.00    -0.312 N 
ATOM      2  C   UNL     1      33.447 -23.953 -15.129  0.00  0.00    +0.003 C 
ATOM      3  C   UNL     1      34.952 -22.828 -16.651  0.00  0.00    +0.010 C 
ATOM      4  C   UNL     1      33.703 -23.430 -16.398  0.00  0.00    -0.002 C 
ATOM      5  C   UNL     1      35.542 -22.210 -17.788  0.00  0.00    -0.008 C 
ATOM      6  C   UNL     1      35.893 -22.775 -15.620  0.00  0.00    +0.048 C 
ATOM      7  C   UNL     1      34.400 -23.888 -14.118  0.00  0.00    -0.001 C 
ATOM      8  C   UNL     1      35.647 -23.296 -14.345  0.00  0.00    +0.014 C 
ATOM      9  C   UNL     1      36.806 -21.800 -17.433  0.00  0.00    +0.057 C 
ATOM     10  H   UNL     1      37.833 -21.969 -15.615  0.00  0.00    +0.152 HD
ENDROOT
BRANCH   2  11
ATOM     11  C   UNL     1      32.122 -24.595 -14.853  0.00  0.00    +0.195 C 
BRANCH  11  12
ATOM     12  S   UNL     1      31.114 -23.409 -13.996  0.00  0.00    +0.048 S 
ATOM     13  O   UNL     1      30.968 -23.863 -12.626  0.00  0.00    -0.157 OA
ATOM     14  O   UNL     1      31.635 -22.089 -14.297  0.00  0.00    -0.157 OA
BRANCH  12  15
ATOM     15  N   UNL     1      29.646 -23.634 -14.822  0.00  0.00    -0.159 NA
ATOM     16  C   UNL     1      28.935 -22.427 -15.335  0.00  0.00    +0.095 C 
ATOM     17  C   UNL     1      29.595 -24.693 -15.867  0.00  0.00    +0.095 C 
ATOM     18  C   UNL     1      28.570 -22.763 -16.775  0.00  0.00    +0.021 C 
ATOM     19  C   UNL     1      28.437 -24.273 -16.759  0.00  0.00    +0.021 C 
ENDBRANCH  12  15
ENDBRANCH  11  12
ENDBRANCH   2  11
BRANCH   5  20
ATOM     20  C   UNL     1      34.920 -22.033 -19.115  0.00  0.00    +0.005 C 
BRANCH  20  21
ATOM     21  C   UNL     1      35.680 -21.033 -20.006  0.00  0.00    -0.073 C 
BRANCH  21  22
ATOM     22  N   UNL     1      34.873 -19.858 -20.318  0.00  0.00    +0.384 N 
ATOM     23  C   UNL     1      33.467 -20.230 -20.485  0.00  0.00    -0.101 C 
ATOM     24  C   UNL     1      35.370 -19.197 -21.525  0.00  0.00    -0.101 C 
ATOM     25  H   UNL     1      34.945 -19.206 -19.538  0.00  0.00    -0.080 HD
ENDBRANCH  21  22
ENDBRANCH  20  21
ENDBRANCH   5  20
TORSDOF 6
ENDMDL
MODEL 9
REMARK VINA RESULT:      -9.2      4.269      9.890
REMARK  Name = 123606
REMARK  6 active torsions:
REMARK  status: ('A' for Active; 'I' for Inactive)
REMARK    1  A    between atoms: C_2  and  C_11
REMARK    2  A    between atoms: C_5  and  C_20
REMARK    3  A    between atoms: C_11  and  S_12
REMARK    4  A    between atoms: S_12  and  N_15
REMARK    5  A    between atoms: C_20  and  C_21
REMARK    6  A    between atoms: C_21  and  N_22
REMARK                            x       y       z     vdW  Elec       q    Type
REMARK                         _______ _______ _______ _____ _____    ______ ____
ROOT
ATOM      1  N   UNL     1      33.224 -13.582 -24.248  0.00  0.00    -0.312 N 
ATOM      2  C   UNL     1      34.784 -16.625 -21.955  0.00  0.00    +0.003 C 
ATOM      3  C   UNL     1      33.503 -14.599 -22.282  0.00  0.00    +0.010 C 
ATOM      4  C   UNL     1      33.997 -15.601 -21.422  0.00  0.00    -0.002 C 
ATOM      5  C   UNL     1      32.697 -13.443 -22.097  0.00  0.00    -0.008 C 
ATOM      6  C   UNL     1      33.821 -14.664 -23.641  0.00  0.00    +0.048 C 
ATOM      7  C   UNL     1      35.087 -16.667 -23.312  0.00  0.00    -0.001 C 
ATOM      8  C   UNL     1      34.608 -15.685 -24.185  0.00  0.00    +0.014 C 
ATOM      9  C   UNL     1      32.543 -12.838 -23.322  0.00  0.00    +0.057 C 
ATOM     10  H   UNL     1      33.279 -13.374 -25.208  0.00  0.00    +0.152 HD
ENDROOT
BRANCH   2  11
ATOM     11  C   UNL     1      35.311 -17.693 -21.047  0.00  0.00    +0.195 C 
BRANCH  11  12
ATOM     12  S   UNL     1      34.347 -19.160 -21.321  0.00  0.00    +0.048 S 
ATOM     13  O   UNL     1      32.951 -18.810 -21.136  0.00  0.00    -0.157 OA
ATOM     14  O   UNL     1      34.810 -19.768 -22.554  0.00  0.00    -0.157 OA
BRANCH  12  15
ATOM     15  N   UNL     1      34.871 -20.095 -20.003  0.00  0.00    -0.159 NA
ATOM     16  C   UNL     1      33.992 -21.204 -19.533  0.00  0.00    +0.095 C 
ATOM     17  C   UNL     1      36.279 -20.580 -20.014  0.00  0.00    +0.095 C 
ATOM     18  C   UNL     1      34.914 -22.408 -19.388  0.00  0.00    +0.021 C 
ATOM     19  C   UNL     1      36.261 -21.782 -19.083  0.00  0.00    +0.021 C 
ENDBRANCH  12  15
ENDBRANCH  11  12
ENDBRANCH   2  11
BRANCH   5  20
ATOM     20  C   UNL     1      32.123 -12.966 -20.822  0.00  0.00    +0.005 C 
BRANCH  20  21
ATOM     21  C   UNL     1      31.240 -11.715 -20.992  0.00  0.00    -0.073 C 
BRANCH  21  22
ATOM     22  N   UNL     1      31.958 -10.492 -20.651  0.00  0.00    +0.384 N 
ATOM     23  C   UNL     1      31.518  -9.981 -19.351  0.00  0.00    -0.101 C 
ATOM     24  C   UNL     1      31.765  -9.476 -21.688  0.00  0.00    -0.101 C 
ATOM     25  H   UNL     1      32.952 -10.710 -20.594  0.00  0.00    -0.080 HD
ENDBRANCH  21  22
ENDBRANCH  20  21
ENDBRANCH   5  20
TORSDOF 6
ENDMDL
