MODEL 1
REMARK VINA RESULT:      -7.9      0.000      0.000
REMARK  Name = 4923
REMARK  5 active torsions:
REMARK  status: ('A' for Active; 'I' for Inactive)
REMARK    1  A    between atoms: N_1  and  C_9
REMARK    2  A    between atoms: N_2  and  C_4
REMARK    3  A    between atoms: N_2  and  C_17
REMARK    4  A    between atoms: N_15  and  C_17
REMARK    5  A    between atoms: N_15  and  C_20
REMARK                            x       y       z     vdW  Elec       q    Type
REMARK                         _______ _______ _______ _____ _____    ______ ____
ROOT
ATOM      1  N   UNL     1      35.045 -18.393 -22.269  0.00  0.00    -0.325 N 
ATOM      2  N   UNL     1      35.481 -16.425 -23.320  0.00  0.00    -0.369 N 
ATOM      3  C   UNL     1      35.067 -17.012 -22.138  0.00  0.00    +0.203 C 
ATOM      4  H   UNL     1      35.348 -18.734 -23.142  0.00  0.00    +0.169 HD
ATOM      5  H   UNL     1      35.724 -16.987 -24.091  0.00  0.00    +0.159 HD
ATOM      6  H   UNL     1      35.532 -15.444 -23.391  0.00  0.00    +0.159 HD
ENDROOT
BRANCH   1   8
ATOM      7 CL   UNL     1      33.407 -22.550 -18.385  0.00  0.00    -0.082 Cl
ATOM      8  C   UNL     1      34.655 -19.383 -21.343  0.00  0.00    +0.059 C 
ATOM      9  C   UNL     1      35.622 -20.153 -20.698  0.00  0.00    +0.018 C 
ATOM     10  C   UNL     1      33.303 -19.592 -21.074  0.00  0.00    +0.018 C 
ATOM     11  C   UNL     1      35.236 -21.133 -19.783  0.00  0.00    +0.013 C 
ATOM     12  C   UNL     1      32.917 -20.571 -20.159  0.00  0.00    +0.013 C 
ATOM     13  C   UNL     1      33.883 -21.341 -19.513  0.00  0.00    +0.058 C 
ENDBRANCH   1   8
BRANCH   3  14
ATOM     14  N   UNL     1      34.722 -16.363 -21.056  0.00  0.00    -0.179 NA
BRANCH  14  16
ATOM     15  N   UNL     1      32.404 -16.102 -20.650  0.00  0.00    -0.368 N 
ATOM     16  C   UNL     1      33.592 -15.571 -21.099  0.00  0.00    +0.220 C 
ATOM     17  H   UNL     1      31.582 -15.560 -20.670  0.00  0.00    +0.159 HD
ATOM     18  H   UNL     1      32.375 -17.026 -20.310  0.00  0.00    +0.159 HD
BRANCH  16  19
ATOM     19  N   UNL     1      33.784 -14.389 -21.594  0.00  0.00    -0.240 NA
BRANCH  19  20
ATOM     20  C   UNL     1      32.768 -13.871 -22.502  0.00  0.00    +0.106 C 
ATOM     21  C   UNL     1      32.027 -12.734 -21.816  0.00  0.00    +0.026 C 
ATOM     22  C   UNL     1      33.442 -13.412 -23.787  0.00  0.00    +0.026 C 
ENDBRANCH  19  20
ENDBRANCH  16  19
ENDBRANCH  14  16
ENDBRANCH   3  14
TORSDOF 5
ENDMDL
MODEL 2
REMARK VINA RESULT:      -7.5      9.350     11.173
REMARK  Name = 4923
REMARK  5 active torsions:
REMARK  status: ('A' for Active; 'I' for Inactive)
REMARK    1  A    between atoms: N_1  and  C_9
REMARK    2  A    between atoms: N_2  and  C_4
REMARK    3  A    between atoms: N_2  and  C_17
REMARK    4  A    between atoms: N_15  and  C_17
REMARK    5  A    between atoms: N_15  and  C_20
REMARK                            x       y       z     vdW  Elec       q    Type
REMARK                         _______ _______ _______ _____ _____    ______ ____
ROOT
ATOM      1  N   UNL     1      33.523 -23.584 -13.450  0.00  0.00    -0.325 N 
ATOM      2  N   UNL     1      35.689 -23.496 -12.764  0.00  0.00    -0.369 N 
ATOM      3  C   UNL     1      34.841 -23.840 -13.802  0.00  0.00    +0.203 C 
ATOM      4  H   UNL     1      33.400 -23.180 -12.560  0.00  0.00    +0.169 HD
ATOM      5  H   UNL     1      35.323 -23.113 -11.935  0.00  0.00    +0.159 HD
ATOM      6  H   UNL     1      36.660 -23.637 -12.855  0.00  0.00    +0.159 HD
ENDROOT
BRANCH   1   8
ATOM      7 CL   UNL     1      28.532 -24.546 -16.486  0.00  0.00    -0.082 Cl
ATOM      8  C   UNL     1      32.333 -23.813 -14.173  0.00  0.00    +0.059 C 
ATOM      9  C   UNL     1      31.574 -24.955 -13.921  0.00  0.00    +0.018 C 
ATOM     10  C   UNL     1      31.918 -22.898 -15.139  0.00  0.00    +0.018 C 
ATOM     11  C   UNL     1      30.398 -25.182 -14.637  0.00  0.00    +0.013 C 
ATOM     12  C   UNL     1      30.742 -23.124 -15.854  0.00  0.00    +0.013 C 
ATOM     13  C   UNL     1      29.982 -24.266 -15.603  0.00  0.00    +0.058 C 
ENDBRANCH   1   8
BRANCH   3  14
ATOM     14  N   UNL     1      35.218 -24.355 -14.944  0.00  0.00    -0.179 NA
BRANCH  14  16
ATOM     15  N   UNL     1      35.897 -26.621 -15.046  0.00  0.00    -0.368 N 
ATOM     16  C   UNL     1      36.234 -25.290 -14.937  0.00  0.00    +0.220 C 
ATOM     17  H   UNL     1      36.601 -27.309 -15.044  0.00  0.00    +0.159 HD
ATOM     18  H   UNL     1      34.951 -26.884 -15.126  0.00  0.00    +0.159 HD
BRANCH  16  19
ATOM     19  N   UNL     1      37.422 -24.791 -14.801  0.00  0.00    -0.240 NA
BRANCH  19  20
ATOM     20  C   UNL     1      38.476 -25.689 -14.347  0.00  0.00    +0.106 C 
ATOM     21  C   UNL     1      39.791 -25.268 -14.985  0.00  0.00    +0.026 C 
ATOM     22  C   UNL     1      38.544 -25.641 -12.828  0.00  0.00    +0.026 C 
ENDBRANCH  19  20
ENDBRANCH  16  19
ENDBRANCH  14  16
ENDBRANCH   3  14
TORSDOF 5
ENDMDL
MODEL 3
REMARK VINA RESULT:      -7.4      8.677     10.842
REMARK  Name = 4923
REMARK  5 active torsions:
REMARK  status: ('A' for Active; 'I' for Inactive)
REMARK    1  A    between atoms: N_1  and  C_9
REMARK    2  A    between atoms: N_2  and  C_4
REMARK    3  A    between atoms: N_2  and  C_17
REMARK    4  A    between atoms: N_15  and  C_17
REMARK    5  A    between atoms: N_15  and  C_20
REMARK                            x       y       z     vdW  Elec       q    Type
REMARK                         _______ _______ _______ _____ _____    ______ ____
ROOT
ATOM      1  N   UNL     1      34.360 -22.866 -15.063  0.00  0.00    -0.325 N 
ATOM      2  N   UNL     1      36.588 -22.518 -15.347  0.00  0.00    -0.369 N 
ATOM      3  C   UNL     1      35.563 -23.442 -15.444  0.00  0.00    +0.203 C 
ATOM      4  H   UNL     1      34.412 -21.912 -14.823  0.00  0.00    +0.169 HD
ATOM      5  H   UNL     1      36.396 -21.598 -15.057  0.00  0.00    +0.159 HD
ATOM      6  H   UNL     1      37.512 -22.783 -15.567  0.00  0.00    +0.159 HD
ENDROOT
BRANCH   1   8
ATOM      7 CL   UNL     1      28.960 -25.261 -14.664  0.00  0.00    -0.082 Cl
ATOM      8  C   UNL     1      33.073 -23.437 -14.969  0.00  0.00    +0.059 C 
ATOM      9  C   UNL     1      32.139 -23.221 -15.981  0.00  0.00    +0.018 C 
ATOM     10  C   UNL     1      32.737 -24.216 -13.863  0.00  0.00    +0.018 C 
ATOM     11  C   UNL     1      30.866 -23.785 -15.887  0.00  0.00    +0.013 C 
ATOM     12  C   UNL     1      31.464 -24.781 -13.769  0.00  0.00    +0.013 C 
ATOM     13  C   UNL     1      30.530 -24.566 -14.781  0.00  0.00    +0.058 C 
ENDBRANCH   1   8
BRANCH   3  14
ATOM     14  N   UNL     1      35.705 -24.688 -15.816  0.00  0.00    -0.179 NA
BRANCH  14  16
ATOM     15  N   UNL     1      36.139 -26.939 -15.226  0.00  0.00    -0.368 N 
ATOM     16  C   UNL     1      36.142 -25.605 -14.882  0.00  0.00    +0.220 C 
ATOM     17  H   UNL     1      36.446 -27.616 -14.579  0.00  0.00    +0.159 HD
ATOM     18  H   UNL     1      35.830 -27.217 -16.119  0.00  0.00    +0.159 HD
BRANCH  16  19
ATOM     19  N   UNL     1      36.494 -25.090 -13.747  0.00  0.00    -0.240 NA
BRANCH  19  20
ATOM     20  C   UNL     1      37.823 -25.416 -13.248  0.00  0.00    +0.106 C 
ATOM     21  C   UNL     1      38.839 -25.172 -14.354  0.00  0.00    +0.026 C 
ATOM     22  C   UNL     1      38.112 -24.565 -12.020  0.00  0.00    +0.026 C 
ENDBRANCH  19  20
ENDBRANCH  16  19
ENDBRANCH  14  16
ENDBRANCH   3  14
TORSDOF 5
ENDMDL
MODEL 4
REMARK VINA RESULT:      -7.4      4.481      7.301
REMARK  Name = 4923
REMARK  5 active torsions:
REMARK  status: ('A' for Active; 'I' for Inactive)
REMARK    1  A    between atoms: N_1  and  C_9
REMARK    2  A    between atoms: N_2  and  C_4
REMARK    3  A    between atoms: N_2  and  C_17
REMARK    4  A    between atoms: N_15  and  C_17
REMARK    5  A    between atoms: N_15  and  C_20
REMARK                            x       y       z     vdW  Elec       q    Type
REMARK                         _______ _______ _______ _____ _____    ______ ____
ROOT
ATOM      1  N   UNL     1      36.358 -20.466 -19.391  0.00  0.00    -0.325 N 
ATOM      2  N   UNL     1      36.587 -21.915 -17.655  0.00  0.00    -0.369 N 
ATOM      3  C   UNL     1      35.936 -21.672 -18.850  0.00  0.00    +0.203 C 
ATOM      4  H   UNL     1      37.056 -19.999 -18.875  0.00  0.00    +0.169 HD
ATOM      5  H   UNL     1      37.255 -21.275 -17.318  0.00  0.00    +0.159 HD
ATOM      6  H   UNL     1      36.381 -22.728 -17.138  0.00  0.00    +0.159 HD
ENDROOT
BRANCH   1   8
ATOM      7 CL   UNL     1      34.604 -17.693 -24.319  0.00  0.00    -0.082 Cl
ATOM      8  C   UNL     1      35.940 -19.806 -20.565  0.00  0.00    +0.059 C 
ATOM      9  C   UNL     1      36.851 -19.044 -21.298  0.00  0.00    +0.018 C 
ATOM     10  C   UNL     1      34.618 -19.915 -20.993  0.00  0.00    +0.018 C 
ATOM     11  C   UNL     1      36.437 -18.390 -22.459  0.00  0.00    +0.013 C 
ATOM     12  C   UNL     1      34.205 -19.262 -22.155  0.00  0.00    +0.013 C 
ATOM     13  C   UNL     1      35.114 -18.500 -22.887  0.00  0.00    +0.058 C 
ENDBRANCH   1   8
BRANCH   3  14
ATOM     14  N   UNL     1      35.034 -22.452 -19.388  0.00  0.00    -0.179 NA
BRANCH  14  16
ATOM     15  N   UNL     1      32.775 -21.838 -19.031  0.00  0.00    -0.368 N 
ATOM     16  C   UNL     1      33.846 -22.643 -18.712  0.00  0.00    +0.220 C 
ATOM     17  H   UNL     1      31.916 -21.952 -18.565  0.00  0.00    +0.159 HD
ATOM     18  H   UNL     1      32.869 -21.147 -19.727  0.00  0.00    +0.159 HD
BRANCH  16  19
ATOM     19  N   UNL     1      33.885 -23.572 -17.810  0.00  0.00    -0.240 NA
BRANCH  19  20
ATOM     20  C   UNL     1      33.552 -23.192 -16.443  0.00  0.00    +0.106 C 
ATOM     21  C   UNL     1      32.090 -23.521 -16.182  0.00  0.00    +0.026 C 
ATOM     22  C   UNL     1      34.477 -23.931 -15.486  0.00  0.00    +0.026 C 
ENDBRANCH  19  20
ENDBRANCH  16  19
ENDBRANCH  14  16
ENDBRANCH   3  14
TORSDOF 5
ENDMDL
MODEL 5
REMARK VINA RESULT:      -7.3      3.602      7.078
REMARK  Name = 4923
REMARK  5 active torsions:
REMARK  status: ('A' for Active; 'I' for Inactive)
REMARK    1  A    between atoms: N_1  and  C_9
REMARK    2  A    between atoms: N_2  and  C_4
REMARK    3  A    between atoms: N_2  and  C_17
REMARK    4  A    between atoms: N_15  and  C_17
REMARK    5  A    between atoms: N_15  and  C_20
REMARK                            x       y       z     vdW  Elec       q    Type
REMARK                         _______ _______ _______ _____ _____    ______ ____
ROOT
ATOM      1  N   UNL     1      33.517 -14.787 -24.605  0.00  0.00    -0.325 N 
ATOM      2  N   UNL     1      34.426 -16.806 -25.118  0.00  0.00    -0.369 N 
ATOM      3  C   UNL     1      34.424 -15.761 -24.213  0.00  0.00    +0.203 C 
ATOM      4  H   UNL     1      33.007 -14.996 -25.421  0.00  0.00    +0.169 HD
ATOM      5  H   UNL     1      33.822 -16.786 -25.895  0.00  0.00    +0.159 HD
ATOM      6  H   UNL     1      35.034 -17.570 -24.987  0.00  0.00    +0.159 HD
ENDROOT
BRANCH   1   8
ATOM      7 CL   UNL     1      32.240  -9.566 -22.121  0.00  0.00    -0.082 Cl
ATOM      8  C   UNL     1      33.214 -13.543 -24.012  0.00  0.00    +0.059 C 
ATOM      9  C   UNL     1      32.355 -13.485 -22.915  0.00  0.00    +0.018 C 
ATOM     10  C   UNL     1      33.771 -12.373 -24.525  0.00  0.00    +0.018 C 
ATOM     11  C   UNL     1      32.054 -12.255 -22.330  0.00  0.00    +0.013 C 
ATOM     12  C   UNL     1      33.470 -11.142 -23.940  0.00  0.00    +0.013 C 
ATOM     13  C   UNL     1      32.612 -11.083 -22.843  0.00  0.00    +0.058 C 
ENDBRANCH   1   8
BRANCH   3  14
ATOM     14  N   UNL     1      35.183 -15.684 -23.150  0.00  0.00    -0.179 NA
BRANCH  14  16
ATOM     15  N   UNL     1      34.629 -15.662 -20.848  0.00  0.00    -0.368 N 
ATOM     16  C   UNL     1      34.796 -16.371 -22.017  0.00  0.00    +0.220 C 
ATOM     17  H   UNL     1      34.353 -16.127 -20.025  0.00  0.00    +0.159 HD
ATOM     18  H   UNL     1      34.786 -14.690 -20.836  0.00  0.00    +0.159 HD
BRANCH  16  19
ATOM     19  N   UNL     1      34.652 -17.647 -22.186  0.00  0.00    -0.240 NA
BRANCH  19  20
ATOM     20  C   UNL     1      34.883 -18.505 -21.032  0.00  0.00    +0.106 C 
ATOM     21  C   UNL     1      33.877 -19.646 -21.054  0.00  0.00    +0.026 C 
ATOM     22  C   UNL     1      36.316 -19.016 -21.076  0.00  0.00    +0.026 C 
ENDBRANCH  19  20
ENDBRANCH  16  19
ENDBRANCH  14  16
ENDBRANCH   3  14
TORSDOF 5
ENDMDL
MODEL 6
REMARK VINA RESULT:      -7.2      1.524      2.069
REMARK  Name = 4923
REMARK  5 active torsions:
REMARK  status: ('A' for Active; 'I' for Inactive)
REMARK    1  A    between atoms: N_1  and  C_9
REMARK    2  A    between atoms: N_2  and  C_4
REMARK    3  A    between atoms: N_2  and  C_17
REMARK    4  A    between atoms: N_15  and  C_17
REMARK    5  A    between atoms: N_15  and  C_20
REMARK                            x       y       z     vdW  Elec       q    Type
REMARK                         _______ _______ _______ _____ _____    ______ ____
ROOT
ATOM      1  N   UNL     1      34.738 -17.957 -23.616  0.00  0.00    -0.325 N 
ATOM      2  N   UNL     1      34.259 -16.281 -25.075  0.00  0.00    -0.369 N 
ATOM      3  C   UNL     1      34.781 -16.587 -23.831  0.00  0.00    +0.203 C 
ATOM      4  H   UNL     1      34.385 -18.487 -24.368  0.00  0.00    +0.169 HD
ATOM      5  H   UNL     1      33.940 -17.000 -25.666  0.00  0.00    +0.159 HD
ATOM      6  H   UNL     1      34.204 -15.342 -25.369  0.00  0.00    +0.159 HD
ENDROOT
BRANCH   1   8
ATOM      7 CL   UNL     1      36.354 -21.108 -18.871  0.00  0.00    -0.082 Cl
ATOM      8  C   UNL     1      35.123 -18.707 -22.485  0.00  0.00    +0.059 C 
ATOM      9  C   UNL     1      36.440 -18.654 -22.029  0.00  0.00    +0.018 C 
ATOM     10  C   UNL     1      34.187 -19.502 -21.825  0.00  0.00    +0.018 C 
ATOM     11  C   UNL     1      36.821 -19.397 -20.911  0.00  0.00    +0.013 C 
ATOM     12  C   UNL     1      34.568 -20.244 -20.706  0.00  0.00    +0.013 C 
ATOM     13  C   UNL     1      35.884 -20.191 -20.250  0.00  0.00    +0.058 C 
ENDBRANCH   1   8
BRANCH   3  14
ATOM     14  N   UNL     1      35.232 -15.713 -22.968  0.00  0.00    -0.179 NA
BRANCH  14  16
ATOM     15  N   UNL     1      34.551 -15.135 -20.775  0.00  0.00    -0.368 N 
ATOM     16  C   UNL     1      34.326 -15.091 -22.134  0.00  0.00    +0.220 C 
ATOM     17  H   UNL     1      33.921 -14.699 -20.157  0.00  0.00    +0.159 HD
ATOM     18  H   UNL     1      35.343 -15.603 -20.423  0.00  0.00    +0.159 HD
BRANCH  16  19
ATOM     19  N   UNL     1      33.324 -14.539 -22.743  0.00  0.00    -0.240 NA
BRANCH  19  20
ATOM     20  C   UNL     1      33.364 -13.094 -22.921  0.00  0.00    +0.106 C 
ATOM     21  C   UNL     1      33.551 -12.783 -24.399  0.00  0.00    +0.026 C 
ATOM     22  C   UNL     1      32.076 -12.494 -22.377  0.00  0.00    +0.026 C 
ENDBRANCH  19  20
ENDBRANCH  16  19
ENDBRANCH  14  16
ENDBRANCH   3  14
TORSDOF 5
ENDMDL
MODEL 7
REMARK VINA RESULT:      -7.1      3.402      6.671
REMARK  Name = 4923
REMARK  5 active torsions:
REMARK  status: ('A' for Active; 'I' for Inactive)
REMARK    1  A    between atoms: N_1  and  C_9
REMARK    2  A    between atoms: N_2  and  C_4
REMARK    3  A    between atoms: N_2  and  C_17
REMARK    4  A    between atoms: N_15  and  C_17
REMARK    5  A    between atoms: N_15  and  C_20
REMARK                            x       y       z     vdW  Elec       q    Type
REMARK                         _______ _______ _______ _____ _____    ______ ____
ROOT
ATOM      1  N   UNL     1      35.725 -17.362 -22.186  0.00  0.00    -0.325 N 
ATOM      2  N   UNL     1      36.427 -18.838 -20.606  0.00  0.00    -0.369 N 
ATOM      3  C   UNL     1      35.473 -18.582 -21.575  0.00  0.00    +0.203 C 
ATOM      4  H   UNL     1      36.534 -16.896 -21.870  0.00  0.00    +0.169 HD
ATOM      5  H   UNL     1      37.157 -18.197 -20.452  0.00  0.00    +0.159 HD
ATOM      6  H   UNL     1      36.374 -19.663 -20.069  0.00  0.00    +0.159 HD
ENDROOT
BRANCH   1   8
ATOM      7 CL   UNL     1      32.682 -14.525 -26.398  0.00  0.00    -0.082 Cl
ATOM      8  C   UNL     1      34.999 -16.686 -23.189  0.00  0.00    +0.059 C 
ATOM      9  C   UNL     1      34.899 -17.236 -24.467  0.00  0.00    +0.018 C 
ATOM     10  C   UNL     1      34.383 -15.469 -22.904  0.00  0.00    +0.018 C 
ATOM     11  C   UNL     1      34.183 -16.567 -25.459  0.00  0.00    +0.013 C 
ATOM     12  C   UNL     1      33.666 -14.800 -23.896  0.00  0.00    +0.013 C 
ATOM     13  C   UNL     1      33.565 -15.350 -25.173  0.00  0.00    +0.058 C 
ENDBRANCH   1   8
BRANCH   3  14
ATOM     14  N   UNL     1      34.464 -19.362 -21.863  0.00  0.00    -0.179 NA
BRANCH  14  16
ATOM     15  N   UNL     1      32.726 -19.796 -20.313  0.00  0.00    -0.368 N 
ATOM     16  C   UNL     1      33.940 -20.152 -20.859  0.00  0.00    +0.220 C 
ATOM     17  H   UNL     1      32.329 -20.341 -19.597  0.00  0.00    +0.159 HD
ATOM     18  H   UNL     1      32.256 -18.995 -20.641  0.00  0.00    +0.159 HD
BRANCH  16  19
ATOM     19  N   UNL     1      34.685 -21.156 -20.521  0.00  0.00    -0.240 NA
BRANCH  19  20
ATOM     20  C   UNL     1      34.664 -21.565 -19.123  0.00  0.00    +0.106 C 
ATOM     21  C   UNL     1      33.874 -22.859 -18.999  0.00  0.00    +0.026 C 
ATOM     22  C   UNL     1      36.097 -21.728 -18.635  0.00  0.00    +0.026 C 
ENDBRANCH  19  20
ENDBRANCH  16  19
ENDBRANCH  14  16
ENDBRANCH   3  14
TORSDOF 5
ENDMDL
MODEL 8
REMARK VINA RESULT:      -7.1      4.656      8.230
REMARK  Name = 4923
REMARK  5 active torsions:
REMARK  status: ('A' for Active; 'I' for Inactive)
REMARK    1  A    between atoms: N_1  and  C_9
REMARK    2  A    between atoms: N_2  and  C_4
REMARK    3  A    between atoms: N_2  and  C_17
REMARK    4  A    between atoms: N_15  and  C_17
REMARK    5  A    between atoms: N_15  and  C_20
REMARK                            x       y       z     vdW  Elec       q    Type
REMARK                         _______ _______ _______ _____ _____    ______ ____
ROOT
ATOM      1  N   UNL     1      33.501 -12.946 -24.920  0.00  0.00    -0.325 N 
ATOM      2  N   UNL     1      33.303 -15.211 -24.928  0.00  0.00    -0.369 N 
ATOM      3  C   UNL     1      33.740 -14.113 -24.209  0.00  0.00    +0.203 C 
ATOM      4  H   UNL     1      33.044 -13.070 -25.784  0.00  0.00    +0.169 HD
ATOM      5  H   UNL     1      32.877 -15.086 -25.807  0.00  0.00    +0.159 HD
ATOM      6  H   UNL     1      33.420 -16.118 -24.562  0.00  0.00    +0.159 HD
ENDROOT
BRANCH   1   8
ATOM      7 CL   UNL     1      34.813  -7.336 -23.556  0.00  0.00    -0.082 Cl
ATOM      8  C   UNL     1      33.814 -11.609 -24.596  0.00  0.00    +0.059 C 
ATOM      9  C   UNL     1      34.868 -10.964 -25.241  0.00  0.00    +0.018 C 
ATOM     10  C   UNL     1      33.069 -10.935 -23.630  0.00  0.00    +0.018 C 
ATOM     11  C   UNL     1      35.177  -9.642 -24.919  0.00  0.00    +0.013 C 
ATOM     12  C   UNL     1      33.377  -9.612 -23.308  0.00  0.00    +0.013 C 
ATOM     13  C   UNL     1      34.431  -8.966 -23.953  0.00  0.00    +0.058 C 
ENDBRANCH   1   8
BRANCH   3  14
ATOM     14  N   UNL     1      34.318 -14.163 -23.036  0.00  0.00    -0.179 NA
BRANCH  14  16
ATOM     15  N   UNL     1      32.847 -15.210 -21.504  0.00  0.00    -0.368 N 
ATOM     16  C   UNL     1      34.030 -15.230 -22.209  0.00  0.00    +0.220 C 
ATOM     17  H   UNL     1      32.616 -15.958 -20.907  0.00  0.00    +0.159 HD
ATOM     18  H   UNL     1      32.232 -14.446 -21.597  0.00  0.00    +0.159 HD
BRANCH  16  19
ATOM     19  N   UNL     1      34.947 -16.145 -22.175  0.00  0.00    -0.240 NA
BRANCH  19  20
ATOM     20  C   UNL     1      34.528 -17.520 -22.411  0.00  0.00    +0.106 C 
ATOM     21  C   UNL     1      35.165 -18.017 -23.700  0.00  0.00    +0.026 C 
ATOM     22  C   UNL     1      34.933 -18.372 -21.216  0.00  0.00    +0.026 C 
ENDBRANCH  19  20
ENDBRANCH  16  19
ENDBRANCH  14  16
ENDBRANCH   3  14
TORSDOF 5
ENDMDL
MODEL 9
REMARK VINA RESULT:      -7.0      2.945      6.116
REMARK  Name = 4923
REMARK  5 active torsions:
REMARK  status: ('A' for Active; 'I' for Inactive)
REMARK    1  A    between atoms: N_1  and  C_9
REMARK    2  A    between atoms: N_2  and  C_4
REMARK    3  A    between atoms: N_2  and  C_17
REMARK    4  A    between atoms: N_15  and  C_17
REMARK    5  A    between atoms: N_15  and  C_20
REMARK                            x       y       z     vdW  Elec       q    Type
REMARK                         _______ _______ _______ _____ _____    ______ ____
ROOT
ATOM      1  N   UNL     1      34.781 -16.701 -22.952  0.00  0.00    -0.325 N 
ATOM      2  N   UNL     1      36.070 -18.518 -23.402  0.00  0.00    -0.369 N 
ATOM      3  C   UNL     1      35.467 -17.775 -22.404  0.00  0.00    +0.203 C 
ATOM      4  H   UNL     1      34.800 -16.652 -23.936  0.00  0.00    +0.169 HD
ATOM      5  H   UNL     1      35.959 -18.259 -24.345  0.00  0.00    +0.159 HD
ATOM      6  H   UNL     1      36.612 -19.308 -23.170  0.00  0.00    +0.159 HD
ENDROOT
BRANCH   1   8
ATOM      7 CL   UNL     1      31.760 -12.365 -20.281  0.00  0.00    -0.082 Cl
ATOM      8  C   UNL     1      34.061 -15.668 -22.316  0.00  0.00    +0.059 C 
ATOM      9  C   UNL     1      33.884 -14.443 -22.960  0.00  0.00    +0.018 C 
ATOM     10  C   UNL     1      33.528 -15.871 -21.045  0.00  0.00    +0.018 C 
ATOM     11  C   UNL     1      33.172 -13.422 -22.330  0.00  0.00    +0.013 C 
ATOM     12  C   UNL     1      32.815 -14.850 -20.415  0.00  0.00    +0.013 C 
ATOM     13  C   UNL     1      32.638 -13.626 -21.058  0.00  0.00    +0.058 C 
ENDBRANCH   1   8
BRANCH   3  14
ATOM     14  N   UNL     1      35.548 -18.028 -21.123  0.00  0.00    -0.179 NA
BRANCH  14  16
ATOM     15  N   UNL     1      37.069 -19.542 -20.121  0.00  0.00    -0.368 N 
ATOM     16  C   UNL     1      35.853 -19.315 -20.728  0.00  0.00    +0.220 C 
ATOM     17  H   UNL     1      37.313 -20.449 -19.829  0.00  0.00    +0.159 HD
ATOM     18  H   UNL     1      37.695 -18.794 -19.979  0.00  0.00    +0.159 HD
BRANCH  16  19
ATOM     19  N   UNL     1      34.941 -20.192 -21.004  0.00  0.00    -0.240 NA
BRANCH  19  20
ATOM     20  C   UNL     1      33.833 -20.322 -20.067  0.00  0.00    +0.106 C 
ATOM     21  C   UNL     1      32.549 -19.884 -20.756  0.00  0.00    +0.026 C 
ATOM     22  C   UNL     1      33.754 -21.766 -19.593  0.00  0.00    +0.026 C 
ENDBRANCH  19  20
ENDBRANCH  16  19
ENDBRANCH  14  16
ENDBRANCH   3  14
TORSDOF 5
ENDMDL
