MODEL 1
REMARK VINA RESULT:      -9.6      0.000      0.000
REMARK  Name = 3869
REMARK  10 active torsions:
REMARK  status: ('A' for Active; 'I' for Inactive)
REMARK    1  A    between atoms: C_1  and  C_2
REMARK    2  A    between atoms: C_1  and  O_15
REMARK    3  A    between atoms: C_1  and  C_17
REMARK    4  A    between atoms: C_5  and  C_10
REMARK    5  A    between atoms: C_7  and  O_13
REMARK    6  A    between atoms: C_17  and  N_18
REMARK    7  A    between atoms: N_18  and  C_21
REMARK    8  A    between atoms: C_21  and  C_23
REMARK    9  A    between atoms: C_23  and  C_24
REMARK   10  A    between atoms: C_24  and  C_25
REMARK                            x       y       z     vdW  Elec       q    Type
REMARK                         _______ _______ _______ _____ _____    ______ ____
ROOT
ATOM      1  C   UNL     1      34.057 -24.025 -13.408  0.00  0.00    +0.112 C 
ENDROOT
BRANCH   1   2
ATOM      2  C   UNL     1      35.398 -23.937 -14.101  0.00  0.00    +0.002 C 
ATOM      3  C   UNL     1      36.328 -24.944 -13.905  0.00  0.00    +0.006 C 
ATOM      4  C   UNL     1      35.668 -22.851 -14.915  0.00  0.00    +0.001 C 
ATOM      5  C   UNL     1      37.565 -24.862 -14.543  0.00  0.00    +0.086 C 
ATOM      6  C   UNL     1      36.905 -22.769 -15.553  0.00  0.00    +0.037 C 
ATOM      7  C   UNL     1      37.854 -23.774 -15.368  0.00  0.00    +0.138 C 
BRANCH   5  10
ATOM      8  O   UNL     1      38.256 -27.114 -14.532  0.00  0.00    -0.270 OA
ATOM      9  N   UNL     1      39.819 -25.549 -13.925  0.00  0.00    -0.325 N 
ATOM     10  C   UNL     1      38.543 -25.921 -14.335  0.00  0.00    +0.246 C 
ATOM     11  H   UNL     1      40.507 -26.238 -13.774  0.00  0.00    +0.145 HD
ATOM     12  H   UNL     1      40.035 -24.599 -13.786  0.00  0.00    +0.145 HD
ENDBRANCH   5  10
BRANCH   7  13
ATOM     13  O   UNL     1      39.059 -23.674 -15.997  0.00  0.00    -0.505 OA
ATOM     14  H   UNL     1      39.223 -22.965 -16.587  0.00  0.00    +0.292 HD
ENDBRANCH   7  13
ENDBRANCH   1   2
BRANCH   1  15
ATOM     15  O   UNL     1      34.168 -24.964 -12.338  0.00  0.00    -0.382 OA
ATOM     16  H   UNL     1      33.659 -24.647 -11.575  0.00  0.00    +0.211 HD
ENDBRANCH   1  15
BRANCH   1  17
ATOM     17  C   UNL     1      32.950 -24.455 -14.378  0.00  0.00    -0.047 C 
BRANCH  17  18
ATOM     18  N   UNL     1      32.207 -23.302 -14.858  0.00  0.00    +0.387 N 
ATOM     19  H   UNL     1      31.474 -23.072 -14.188  0.00  0.00    -0.084 HD
ATOM     20  H   UNL     1      32.851 -22.517 -14.961  0.00  0.00    -0.084 HD
BRANCH  18  21
ATOM     21  C   UNL     1      31.598 -23.583 -16.158  0.00  0.00    -0.062 C 
ATOM     22  C   UNL     1      30.079 -23.445 -16.053  0.00  0.00    -0.023 C 
BRANCH  21  23
ATOM     23  C   UNL     1      32.149 -22.636 -17.241  0.00  0.00    -0.017 C 
BRANCH  23  24
ATOM     24  C   UNL     1      33.467 -23.089 -17.888  0.00  0.00    +0.024 C 
BRANCH  24  25
ATOM     25  C   UNL     1      34.061 -22.076 -18.834  0.00  0.00    -0.022 C 
ATOM     26  C   UNL     1      35.440 -21.972 -18.942  0.00  0.00    -0.004 C 
ATOM     27  C   UNL     1      33.219 -21.266 -19.582  0.00  0.00    -0.004 C 
ATOM     28  C   UNL     1      35.989 -21.035 -19.817  0.00  0.00    -0.000 C 
ATOM     29  C   UNL     1      33.769 -20.330 -20.458  0.00  0.00    -0.000 C 
ATOM     30  C   UNL     1      35.154 -20.214 -20.575  0.00  0.00    -0.000 C 
ENDBRANCH  24  25
ENDBRANCH  23  24
ENDBRANCH  21  23
ENDBRANCH  18  21
ENDBRANCH  17  18
ENDBRANCH   1  17
TORSDOF 10
ENDMDL
MODEL 2
REMARK VINA RESULT:      -9.4      8.587     12.401
REMARK  Name = 3869
REMARK  10 active torsions:
REMARK  status: ('A' for Active; 'I' for Inactive)
REMARK    1  A    between atoms: C_1  and  C_2
REMARK    2  A    between atoms: C_1  and  O_15
REMARK    3  A    between atoms: C_1  and  C_17
REMARK    4  A    between atoms: C_5  and  C_10
REMARK    5  A    between atoms: C_7  and  O_13
REMARK    6  A    between atoms: C_17  and  N_18
REMARK    7  A    between atoms: N_18  and  C_21
REMARK    8  A    between atoms: C_21  and  C_23
REMARK    9  A    between atoms: C_23  and  C_24
REMARK   10  A    between atoms: C_24  and  C_25
REMARK                            x       y       z     vdW  Elec       q    Type
REMARK                         _______ _______ _______ _____ _____    ______ ____
ROOT
ATOM      1  C   UNL     1      33.137 -15.214 -22.374  0.00  0.00    +0.112 C 
ENDROOT
BRANCH   1   2
ATOM      2  C   UNL     1      32.965 -13.735 -22.643  0.00  0.00    +0.002 C 
ATOM      3  C   UNL     1      33.718 -13.137 -23.638  0.00  0.00    +0.006 C 
ATOM      4  C   UNL     1      32.059 -13.012 -21.887  0.00  0.00    +0.001 C 
ATOM      5  C   UNL     1      33.561 -11.773 -23.885  0.00  0.00    +0.086 C 
ATOM      6  C   UNL     1      31.902 -11.649 -22.134  0.00  0.00    +0.037 C 
ATOM      7  C   UNL     1      32.652 -11.029 -23.132  0.00  0.00    +0.138 C 
BRANCH   5  10
ATOM      8  O   UNL     1      34.206 -11.450 -26.127  0.00  0.00    -0.270 OA
ATOM      9  N   UNL     1      35.276 -10.176 -24.549  0.00  0.00    -0.325 N 
ATOM     10  C   UNL     1      34.355 -11.146 -24.932  0.00  0.00    +0.246 C 
ATOM     11  H   UNL     1      35.831  -9.729 -25.228  0.00  0.00    +0.145 HD
ATOM     12  H   UNL     1      35.372  -9.936 -23.599  0.00  0.00    +0.145 HD
ENDBRANCH   5  10
BRANCH   7  13
ATOM     13  O   UNL     1      32.487  -9.694 -23.356  0.00  0.00    -0.505 OA
ATOM     14  H   UNL     1      33.209  -9.176 -23.653  0.00  0.00    +0.292 HD
ENDBRANCH   7  13
ENDBRANCH   1   2
BRANCH   1  15
ATOM     15  O   UNL     1      32.216 -15.591 -21.350  0.00  0.00    -0.382 OA
ATOM     16  H   UNL     1      32.703 -15.795 -20.536  0.00  0.00    +0.211 HD
ENDBRANCH   1  15
BRANCH   1  17
ATOM     17  C   UNL     1      34.572 -15.545 -21.946  0.00  0.00    -0.047 C 
BRANCH  17  18
ATOM     18  N   UNL     1      35.338 -16.065 -23.067  0.00  0.00    +0.387 N 
ATOM     19  H   UNL     1      35.433 -15.338 -23.775  0.00  0.00    -0.084 HD
ATOM     20  H   UNL     1      36.257 -16.353 -22.730  0.00  0.00    -0.084 HD
BRANCH  18  21
ATOM     21  C   UNL     1      34.669 -17.225 -23.657  0.00  0.00    -0.062 C 
ATOM     22  C   UNL     1      34.577 -17.048 -25.172  0.00  0.00    -0.023 C 
BRANCH  21  23
ATOM     23  C   UNL     1      35.419 -18.526 -23.313  0.00  0.00    -0.017 C 
BRANCH  23  24
ATOM     24  C   UNL     1      35.873 -18.646 -21.850  0.00  0.00    +0.024 C 
BRANCH  24  25
ATOM     25  C   UNL     1      35.042 -19.599 -21.029  0.00  0.00    -0.022 C 
ATOM     26  C   UNL     1      35.668 -20.611 -20.319  0.00  0.00    -0.004 C 
ATOM     27  C   UNL     1      33.663 -19.446 -20.998  0.00  0.00    -0.004 C 
ATOM     28  C   UNL     1      34.899 -21.492 -19.560  0.00  0.00    -0.000 C 
ATOM     29  C   UNL     1      32.894 -20.327 -20.238  0.00  0.00    -0.000 C 
ATOM     30  C   UNL     1      33.512 -21.351 -19.519  0.00  0.00    -0.000 C 
ENDBRANCH  24  25
ENDBRANCH  23  24
ENDBRANCH  21  23
ENDBRANCH  18  21
ENDBRANCH  17  18
ENDBRANCH   1  17
TORSDOF 10
ENDMDL
MODEL 3
REMARK VINA RESULT:      -9.4      6.425      9.509
REMARK  Name = 3869
REMARK  10 active torsions:
REMARK  status: ('A' for Active; 'I' for Inactive)
REMARK    1  A    between atoms: C_1  and  C_2
REMARK    2  A    between atoms: C_1  and  O_15
REMARK    3  A    between atoms: C_1  and  C_17
REMARK    4  A    between atoms: C_5  and  C_10
REMARK    5  A    between atoms: C_7  and  O_13
REMARK    6  A    between atoms: C_17  and  N_18
REMARK    7  A    between atoms: N_18  and  C_21
REMARK    8  A    between atoms: C_21  and  C_23
REMARK    9  A    between atoms: C_23  and  C_24
REMARK   10  A    between atoms: C_24  and  C_25
REMARK                            x       y       z     vdW  Elec       q    Type
REMARK                         _______ _______ _______ _____ _____    ______ ____
ROOT
ATOM      1  C   UNL     1      35.603 -18.704 -22.928  0.00  0.00    +0.112 C 
ENDROOT
BRANCH   1   2
ATOM      2  C   UNL     1      34.819 -19.428 -21.855  0.00  0.00    +0.002 C 
ATOM      3  C   UNL     1      35.498 -20.185 -20.916  0.00  0.00    +0.006 C 
ATOM      4  C   UNL     1      33.440 -19.318 -21.837  0.00  0.00    +0.001 C 
ATOM      5  C   UNL     1      34.775 -20.852 -19.928  0.00  0.00    +0.086 C 
ATOM      6  C   UNL     1      32.717 -19.985 -20.849  0.00  0.00    +0.037 C 
ATOM      7  C   UNL     1      33.384 -20.752 -19.894  0.00  0.00    +0.138 C 
BRANCH   5  10
ATOM      8  O   UNL     1      35.056 -22.749 -18.560  0.00  0.00    -0.270 OA
ATOM      9  N   UNL     1      36.693 -21.145 -18.454  0.00  0.00    -0.325 N 
ATOM     10  C   UNL     1      35.491 -21.649 -18.941  0.00  0.00    +0.246 C 
ATOM     11  H   UNL     1      37.206 -21.656 -17.786  0.00  0.00    +0.145 HD
ATOM     12  H   UNL     1      37.031 -20.279 -18.777  0.00  0.00    +0.145 HD
ENDBRANCH   5  10
BRANCH   7  13
ATOM     13  O   UNL     1      32.660 -21.401 -18.938  0.00  0.00    -0.505 OA
ATOM     14  H   UNL     1      31.925 -20.978 -18.540  0.00  0.00    +0.292 HD
ENDBRANCH   7  13
ENDBRANCH   1   2
BRANCH   1  15
ATOM     15  O   UNL     1      36.815 -18.224 -22.347  0.00  0.00    -0.382 OA
ATOM     16  H   UNL     1      36.623 -17.817 -21.488  0.00  0.00    +0.211 HD
ENDBRANCH   1  15
BRANCH   1  17
ATOM     17  C   UNL     1      34.801 -17.540 -23.522  0.00  0.00    -0.047 C 
BRANCH  17  18
ATOM     18  N   UNL     1      35.238 -16.272 -22.962  0.00  0.00    +0.387 N 
ATOM     19  H   UNL     1      36.078 -16.424 -22.403  0.00  0.00    -0.084 HD
ATOM     20  H   UNL     1      35.435 -15.626 -23.726  0.00  0.00    -0.084 HD
BRANCH  18  21
ATOM     21  C   UNL     1      34.195 -15.694 -22.114  0.00  0.00    -0.062 C 
ATOM     22  C   UNL     1      34.594 -15.831 -20.645  0.00  0.00    -0.023 C 
BRANCH  21  23
ATOM     23  C   UNL     1      33.954 -14.215 -22.470  0.00  0.00    -0.017 C 
BRANCH  23  24
ATOM     24  C   UNL     1      32.478 -13.809 -22.594  0.00  0.00    +0.024 C 
BRANCH  24  25
ATOM     25  C   UNL     1      32.113 -12.581 -21.800  0.00  0.00    -0.022 C 
ATOM     26  C   UNL     1      31.944 -11.371 -22.455  0.00  0.00    -0.004 C 
ATOM     27  C   UNL     1      31.953 -12.682 -20.425  0.00  0.00    -0.004 C 
ATOM     28  C   UNL     1      31.607 -10.235 -21.720  0.00  0.00    -0.000 C 
ATOM     29  C   UNL     1      31.616 -11.545 -19.690  0.00  0.00    -0.000 C 
ATOM     30  C   UNL     1      31.443 -10.321 -20.337  0.00  0.00    -0.000 C 
ENDBRANCH  24  25
ENDBRANCH  23  24
ENDBRANCH  21  23
ENDBRANCH  18  21
ENDBRANCH  17  18
ENDBRANCH   1  17
TORSDOF 10
ENDMDL
MODEL 4
REMARK VINA RESULT:      -9.3      6.296      9.417
REMARK  Name = 3869
REMARK  10 active torsions:
REMARK  status: ('A' for Active; 'I' for Inactive)
REMARK    1  A    between atoms: C_1  and  C_2
REMARK    2  A    between atoms: C_1  and  O_15
REMARK    3  A    between atoms: C_1  and  C_17
REMARK    4  A    between atoms: C_5  and  C_10
REMARK    5  A    between atoms: C_7  and  O_13
REMARK    6  A    between atoms: C_17  and  N_18
REMARK    7  A    between atoms: N_18  and  C_21
REMARK    8  A    between atoms: C_21  and  C_23
REMARK    9  A    between atoms: C_23  and  C_24
REMARK   10  A    between atoms: C_24  and  C_25
REMARK                            x       y       z     vdW  Elec       q    Type
REMARK                         _______ _______ _______ _____ _____    ______ ____
ROOT
ATOM      1  C   UNL     1      35.666 -18.803 -22.897  0.00  0.00    +0.112 C 
ENDROOT
BRANCH   1   2
ATOM      2  C   UNL     1      34.862 -19.508 -21.827  0.00  0.00    +0.002 C 
ATOM      3  C   UNL     1      35.522 -20.266 -20.875  0.00  0.00    +0.006 C 
ATOM      4  C   UNL     1      33.484 -19.379 -21.822  0.00  0.00    +0.001 C 
ATOM      5  C   UNL     1      34.781 -20.917 -19.889  0.00  0.00    +0.086 C 
ATOM      6  C   UNL     1      32.743 -20.030 -20.836  0.00  0.00    +0.037 C 
ATOM      7  C   UNL     1      33.391 -20.798 -19.869  0.00  0.00    +0.138 C 
BRANCH   5  10
ATOM      8  O   UNL     1      35.026 -22.809 -18.508  0.00  0.00    -0.270 OA
ATOM      9  N   UNL     1      36.678 -21.222 -18.390  0.00  0.00    -0.325 N 
ATOM     10  C   UNL     1      35.477 -21.716 -18.890  0.00  0.00    +0.246 C 
ATOM     11  H   UNL     1      37.177 -21.734 -17.714  0.00  0.00    +0.145 HD
ATOM     12  H   UNL     1      37.027 -20.360 -18.713  0.00  0.00    +0.145 HD
ENDBRANCH   5  10
BRANCH   7  13
ATOM     13  O   UNL     1      32.649 -21.430 -18.916  0.00  0.00    -0.505 OA
ATOM     14  H   UNL     1      32.084 -22.138 -19.154  0.00  0.00    +0.292 HD
ENDBRANCH   7  13
ENDBRANCH   1   2
BRANCH   1  15
ATOM     15  O   UNL     1      36.879 -18.335 -22.309  0.00  0.00    -0.382 OA
ATOM     16  H   UNL     1      36.673 -17.779 -21.541  0.00  0.00    +0.211 HD
ENDBRANCH   1  15
BRANCH   1  17
ATOM     17  C   UNL     1      34.885 -17.632 -23.507  0.00  0.00    -0.047 C 
BRANCH  17  18
ATOM     18  N   UNL     1      35.384 -16.362 -23.007  0.00  0.00    +0.387 N 
ATOM     19  H   UNL     1      36.247 -16.521 -22.489  0.00  0.00    -0.084 HD
ATOM     20  H   UNL     1      35.556 -15.742 -23.799  0.00  0.00    -0.084 HD
BRANCH  18  21
ATOM     21  C   UNL     1      34.402 -15.733 -22.123  0.00  0.00    -0.062 C 
ATOM     22  C   UNL     1      34.727 -16.076 -20.669  0.00  0.00    -0.023 C 
BRANCH  21  23
ATOM     23  C   UNL     1      34.382 -14.205 -22.323  0.00  0.00    -0.017 C 
BRANCH  23  24
ATOM     24  C   UNL     1      33.120 -13.658 -23.006  0.00  0.00    +0.024 C 
BRANCH  24  25
ATOM     25  C   UNL     1      33.252 -13.508 -24.501  0.00  0.00    -0.022 C 
ATOM     26  C   UNL     1      33.627 -12.284 -25.033  0.00  0.00    -0.004 C 
ATOM     27  C   UNL     1      32.995 -14.598 -25.320  0.00  0.00    -0.004 C 
ATOM     28  C   UNL     1      33.748 -12.146 -26.415  0.00  0.00    -0.000 C 
ATOM     29  C   UNL     1      33.116 -14.460 -26.702  0.00  0.00    -0.000 C 
ATOM     30  C   UNL     1      33.493 -13.234 -27.250  0.00  0.00    -0.000 C 
ENDBRANCH  24  25
ENDBRANCH  23  24
ENDBRANCH  21  23
ENDBRANCH  18  21
ENDBRANCH  17  18
ENDBRANCH   1  17
TORSDOF 10
ENDMDL
MODEL 5
REMARK VINA RESULT:      -9.3      6.334      9.385
REMARK  Name = 3869
REMARK  10 active torsions:
REMARK  status: ('A' for Active; 'I' for Inactive)
REMARK    1  A    between atoms: C_1  and  C_2
REMARK    2  A    between atoms: C_1  and  O_15
REMARK    3  A    between atoms: C_1  and  C_17
REMARK    4  A    between atoms: C_5  and  C_10
REMARK    5  A    between atoms: C_7  and  O_13
REMARK    6  A    between atoms: C_17  and  N_18
REMARK    7  A    between atoms: N_18  and  C_21
REMARK    8  A    between atoms: C_21  and  C_23
REMARK    9  A    between atoms: C_23  and  C_24
REMARK   10  A    between atoms: C_24  and  C_25
REMARK                            x       y       z     vdW  Elec       q    Type
REMARK                         _______ _______ _______ _____ _____    ______ ____
ROOT
ATOM      1  C   UNL     1      34.412 -18.262 -22.089  0.00  0.00    +0.112 C 
ENDROOT
BRANCH   1   2
ATOM      2  C   UNL     1      34.967 -19.307 -21.147  0.00  0.00    +0.002 C 
ATOM      3  C   UNL     1      34.128 -20.296 -20.663  0.00  0.00    +0.006 C 
ATOM      4  C   UNL     1      36.303 -19.252 -20.789  0.00  0.00    +0.001 C 
ATOM      5  C   UNL     1      34.640 -21.259 -19.794  0.00  0.00    +0.086 C 
ATOM      6  C   UNL     1      36.815 -20.215 -19.920  0.00  0.00    +0.037 C 
ATOM      7  C   UNL     1      35.984 -21.218 -19.422  0.00  0.00    +0.138 C 
BRANCH   5  10
ATOM      8  O   UNL     1      34.039 -23.502 -19.397  0.00  0.00    -0.270 OA
ATOM      9  N   UNL     1      32.585 -21.893 -18.649  0.00  0.00    -0.325 N 
ATOM     10  C   UNL     1      33.755 -22.297 -19.285  0.00  0.00    +0.246 C 
ATOM     11  H   UNL     1      31.962 -22.566 -18.291  0.00  0.00    +0.145 HD
ATOM     12  H   UNL     1      32.381 -20.934 -18.557  0.00  0.00    +0.145 HD
ENDBRANCH   5  10
BRANCH   7  13
ATOM     13  O   UNL     1      36.502 -22.149 -18.570  0.00  0.00    -0.505 OA
ATOM     14  H   UNL     1      37.116 -21.890 -17.911  0.00  0.00    +0.292 HD
ENDBRANCH   7  13
ENDBRANCH   1   2
BRANCH   1  15
ATOM     15  O   UNL     1      34.544 -18.750 -23.424  0.00  0.00    -0.382 OA
ATOM     16  H   UNL     1      34.917 -19.645 -23.406  0.00  0.00    +0.211 HD
ENDBRANCH   1  15
BRANCH   1  17
ATOM     17  C   UNL     1      35.144 -16.923 -21.938  0.00  0.00    -0.047 C 
BRANCH  17  18
ATOM     18  N   UNL     1      35.302 -16.272 -23.228  0.00  0.00    +0.387 N 
ATOM     19  H   UNL     1      36.293 -16.103 -23.400  0.00  0.00    -0.084 HD
ATOM     20  H   UNL     1      34.917 -16.880 -23.952  0.00  0.00    -0.084 HD
BRANCH  18  21
ATOM     21  C   UNL     1      34.586 -14.997 -23.256  0.00  0.00    -0.062 C 
ATOM     22  C   UNL     1      33.455 -15.066 -24.283  0.00  0.00    -0.023 C 
BRANCH  21  23
ATOM     23  C   UNL     1      34.025 -14.651 -21.863  0.00  0.00    -0.017 C 
BRANCH  23  24
ATOM     24  C   UNL     1      32.512 -14.389 -21.820  0.00  0.00    +0.024 C 
BRANCH  24  25
ATOM     25  C   UNL     1      32.149 -12.964 -21.485  0.00  0.00    -0.022 C 
ATOM     26  C   UNL     1      32.051 -12.028 -22.503  0.00  0.00    -0.004 C 
ATOM     27  C   UNL     1      31.918 -12.614 -20.162  0.00  0.00    -0.004 C 
ATOM     28  C   UNL     1      31.716 -10.711 -22.192  0.00  0.00    -0.000 C 
ATOM     29  C   UNL     1      31.581 -11.296 -19.852  0.00  0.00    -0.000 C 
ATOM     30  C   UNL     1      31.480 -10.344 -20.867  0.00  0.00    -0.000 C 
ENDBRANCH  24  25
ENDBRANCH  23  24
ENDBRANCH  21  23
ENDBRANCH  18  21
ENDBRANCH  17  18
ENDBRANCH   1  17
TORSDOF 10
ENDMDL
MODEL 6
REMARK VINA RESULT:      -9.2      2.784      4.755
REMARK  Name = 3869
REMARK  10 active torsions:
REMARK  status: ('A' for Active; 'I' for Inactive)
REMARK    1  A    between atoms: C_1  and  C_2
REMARK    2  A    between atoms: C_1  and  O_15
REMARK    3  A    between atoms: C_1  and  C_17
REMARK    4  A    between atoms: C_5  and  C_10
REMARK    5  A    between atoms: C_7  and  O_13
REMARK    6  A    between atoms: C_17  and  N_18
REMARK    7  A    between atoms: N_18  and  C_21
REMARK    8  A    between atoms: C_21  and  C_23
REMARK    9  A    between atoms: C_23  and  C_24
REMARK   10  A    between atoms: C_24  and  C_25
REMARK                            x       y       z     vdW  Elec       q    Type
REMARK                         _______ _______ _______ _____ _____    ______ ____
ROOT
ATOM      1  C   UNL     1      36.931 -22.408 -16.666  0.00  0.00    +0.112 C 
ENDROOT
BRANCH   1   2
ATOM      2  C   UNL     1      36.219 -23.069 -15.507  0.00  0.00    +0.002 C 
ATOM      3  C   UNL     1      36.965 -23.613 -14.476  0.00  0.00    +0.006 C 
ATOM      4  C   UNL     1      34.836 -23.117 -15.503  0.00  0.00    +0.001 C 
ATOM      5  C   UNL     1      36.308 -24.224 -13.408  0.00  0.00    +0.086 C 
ATOM      6  C   UNL     1      34.179 -23.727 -14.435  0.00  0.00    +0.037 C 
ATOM      7  C   UNL     1      34.914 -24.281 -13.387  0.00  0.00    +0.138 C 
BRANCH   5  10
ATOM      8  O   UNL     1      36.896 -25.956 -11.923  0.00  0.00    -0.270 OA
ATOM      9  N   UNL     1      38.096 -24.008 -11.767  0.00  0.00    -0.325 N 
ATOM     10  C   UNL     1      37.096 -24.797 -12.325  0.00  0.00    +0.246 C 
ATOM     11  H   UNL     1      38.650 -24.361 -11.033  0.00  0.00    +0.145 HD
ATOM     12  H   UNL     1      38.251 -23.097 -12.106  0.00  0.00    +0.145 HD
ENDBRANCH   5  10
BRANCH   7  13
ATOM     13  O   UNL     1      34.254 -24.877 -12.354  0.00  0.00    -0.505 OA
ATOM     14  H   UNL     1      34.701 -25.046 -11.548  0.00  0.00    +0.292 HD
ENDBRANCH   7  13
ENDBRANCH   1   2
BRANCH   1  15
ATOM     15  O   UNL     1      37.599 -21.246 -16.174  0.00  0.00    -0.382 OA
ATOM     16  H   UNL     1      36.944 -20.564 -15.957  0.00  0.00    +0.211 HD
ENDBRANCH   1  15
BRANCH   1  17
ATOM     17  C   UNL     1      35.952 -22.025 -17.783  0.00  0.00    -0.047 C 
BRANCH  17  18
ATOM     18  N   UNL     1      36.534 -21.020 -18.657  0.00  0.00    +0.387 N 
ATOM     19  H   UNL     1      36.417 -20.099 -18.235  0.00  0.00    -0.084 HD
ATOM     20  H   UNL     1      37.525 -21.228 -18.782  0.00  0.00    -0.084 HD
BRANCH  18  21
ATOM     21  C   UNL     1      35.883 -21.035 -19.967  0.00  0.00    -0.062 C 
ATOM     22  C   UNL     1      34.370 -21.161 -19.786  0.00  0.00    -0.023 C 
BRANCH  21  23
ATOM     23  C   UNL     1      36.224 -19.763 -20.766  0.00  0.00    -0.017 C 
BRANCH  23  24
ATOM     24  C   UNL     1      35.046 -18.801 -20.987  0.00  0.00    +0.024 C 
BRANCH  24  25
ATOM     25  C   UNL     1      34.901 -18.332 -22.413  0.00  0.00    -0.022 C 
ATOM     26  C   UNL     1      34.713 -19.266 -23.421  0.00  0.00    -0.004 C 
ATOM     27  C   UNL     1      34.958 -16.975 -22.692  0.00  0.00    -0.004 C 
ATOM     28  C   UNL     1      34.579 -18.831 -24.740  0.00  0.00    -0.000 C 
ATOM     29  C   UNL     1      34.824 -16.541 -24.011  0.00  0.00    -0.000 C 
ATOM     30  C   UNL     1      34.634 -17.469 -25.035  0.00  0.00    -0.000 C 
ENDBRANCH  24  25
ENDBRANCH  23  24
ENDBRANCH  21  23
ENDBRANCH  18  21
ENDBRANCH  17  18
ENDBRANCH   1  17
TORSDOF 10
ENDMDL
MODEL 7
REMARK VINA RESULT:      -9.1      3.534      6.759
REMARK  Name = 3869
REMARK  10 active torsions:
REMARK  status: ('A' for Active; 'I' for Inactive)
REMARK    1  A    between atoms: C_1  and  C_2
REMARK    2  A    between atoms: C_1  and  O_15
REMARK    3  A    between atoms: C_1  and  C_17
REMARK    4  A    between atoms: C_5  and  C_10
REMARK    5  A    between atoms: C_7  and  O_13
REMARK    6  A    between atoms: C_17  and  N_18
REMARK    7  A    between atoms: N_18  and  C_21
REMARK    8  A    between atoms: C_21  and  C_23
REMARK    9  A    between atoms: C_23  and  C_24
REMARK   10  A    between atoms: C_24  and  C_25
REMARK                            x       y       z     vdW  Elec       q    Type
REMARK                         _______ _______ _______ _____ _____    ______ ____
ROOT
ATOM      1  C   UNL     1      34.029 -23.023 -18.017  0.00  0.00    +0.112 C 
ENDROOT
BRANCH   1   2
ATOM      2  C   UNL     1      33.062 -23.118 -16.858  0.00  0.00    +0.002 C 
ATOM      3  C   UNL     1      31.704 -23.004 -17.100  0.00  0.00    +0.006 C 
ATOM      4  C   UNL     1      33.556 -23.317 -15.581  0.00  0.00    +0.001 C 
ATOM      5  C   UNL     1      30.812 -23.091 -16.031  0.00  0.00    +0.086 C 
ATOM      6  C   UNL     1      32.664 -23.404 -14.512  0.00  0.00    +0.037 C 
ATOM      7  C   UNL     1      31.293 -23.291 -14.736  0.00  0.00    +0.138 C 
BRANCH   5  10
ATOM      8  O   UNL     1      28.919 -21.998 -16.909  0.00  0.00    -0.270 OA
ATOM      9  N   UNL     1      28.556 -23.988 -15.827  0.00  0.00    -0.325 N 
ATOM     10  C   UNL     1      29.384 -22.968 -16.287  0.00  0.00    +0.246 C 
ATOM     11  H   UNL     1      27.584 -23.940 -15.981  0.00  0.00    +0.145 HD
ATOM     12  H   UNL     1      28.941 -24.756 -15.347  0.00  0.00    +0.145 HD
ENDBRANCH   5  10
BRANCH   7  13
ATOM     13  O   UNL     1      30.437 -23.374 -13.678  0.00  0.00    -0.505 OA
ATOM     14  H   UNL     1      30.184 -24.213 -13.345  0.00  0.00    +0.292 HD
ENDBRANCH   7  13
ENDBRANCH   1   2
BRANCH   1  15
ATOM     15  O   UNL     1      35.328 -22.751 -17.493  0.00  0.00    -0.382 OA
ATOM     16  H   UNL     1      35.244 -22.338 -16.618  0.00  0.00    +0.211 HD
ENDBRANCH   1  15
BRANCH   1  17
ATOM     17  C   UNL     1      33.615 -21.927 -19.007  0.00  0.00    -0.047 C 
BRANCH  17  18
ATOM     18  N   UNL     1      34.779 -21.208 -19.498  0.00  0.00    +0.387 N 
ATOM     19  H   UNL     1      35.087 -20.544 -18.788  0.00  0.00    -0.084 HD
ATOM     20  H   UNL     1      35.520 -21.881 -19.698  0.00  0.00    -0.084 HD
BRANCH  18  21
ATOM     21  C   UNL     1      34.458 -20.483 -20.727  0.00  0.00    -0.062 C 
ATOM     22  C   UNL     1      33.043 -19.913 -20.632  0.00  0.00    -0.023 C 
BRANCH  21  23
ATOM     23  C   UNL     1      35.476 -19.356 -20.982  0.00  0.00    -0.017 C 
BRANCH  23  24
ATOM     24  C   UNL     1      35.323 -18.636 -22.331  0.00  0.00    +0.024 C 
BRANCH  24  25
ATOM     25  C   UNL     1      34.979 -17.173 -22.206  0.00  0.00    -0.022 C 
ATOM     26  C   UNL     1      34.843 -16.406 -23.353  0.00  0.00    -0.004 C 
ATOM     27  C   UNL     1      34.804 -16.620 -20.946  0.00  0.00    -0.004 C 
ATOM     28  C   UNL     1      34.526 -15.053 -23.238  0.00  0.00    -0.000 C 
ATOM     29  C   UNL     1      34.485 -15.266 -20.832  0.00  0.00    -0.000 C 
ATOM     30  C   UNL     1      34.347 -14.482 -21.977  0.00  0.00    -0.000 C 
ENDBRANCH  24  25
ENDBRANCH  23  24
ENDBRANCH  21  23
ENDBRANCH  18  21
ENDBRANCH  17  18
ENDBRANCH   1  17
TORSDOF 10
ENDMDL
MODEL 8
REMARK VINA RESULT:      -9.1      6.029      8.978
REMARK  Name = 3869
REMARK  10 active torsions:
REMARK  status: ('A' for Active; 'I' for Inactive)
REMARK    1  A    between atoms: C_1  and  C_2
REMARK    2  A    between atoms: C_1  and  O_15
REMARK    3  A    between atoms: C_1  and  C_17
REMARK    4  A    between atoms: C_5  and  C_10
REMARK    5  A    between atoms: C_7  and  O_13
REMARK    6  A    between atoms: C_17  and  N_18
REMARK    7  A    between atoms: N_18  and  C_21
REMARK    8  A    between atoms: C_21  and  C_23
REMARK    9  A    between atoms: C_23  and  C_24
REMARK   10  A    between atoms: C_24  and  C_25
REMARK                            x       y       z     vdW  Elec       q    Type
REMARK                         _______ _______ _______ _____ _____    ______ ____
ROOT
ATOM      1  C   UNL     1      34.583 -18.785 -22.014  0.00  0.00    +0.112 C 
ENDROOT
BRANCH   1   2
ATOM      2  C   UNL     1      35.086 -19.737 -20.951  0.00  0.00    +0.002 C 
ATOM      3  C   UNL     1      34.201 -20.627 -20.367  0.00  0.00    +0.006 C 
ATOM      4  C   UNL     1      36.420 -19.697 -20.586  0.00  0.00    +0.001 C 
ATOM      5  C   UNL     1      34.665 -21.504 -19.387  0.00  0.00    +0.086 C 
ATOM      6  C   UNL     1      36.884 -20.574 -19.606  0.00  0.00    +0.037 C 
ATOM      7  C   UNL     1      36.007 -21.478 -19.006  0.00  0.00    +0.138 C 
BRANCH   5  10
ATOM      8  O   UNL     1      34.076 -23.595 -18.475  0.00  0.00    -0.270 OA
ATOM      9  N   UNL     1      32.443 -21.984 -18.509  0.00  0.00    -0.325 N 
ATOM     10  C   UNL     1      33.732 -22.438 -18.772  0.00  0.00    +0.246 C 
ATOM     11  H   UNL     1      31.784 -22.587 -18.094  0.00  0.00    +0.145 HD
ATOM     12  H   UNL     1      32.190 -21.061 -18.739  0.00  0.00    +0.145 HD
ENDBRANCH   5  10
BRANCH   7  13
ATOM     13  O   UNL     1      36.478 -22.324 -18.047  0.00  0.00    -0.505 OA
ATOM     14  H   UNL     1      37.353 -22.653 -18.100  0.00  0.00    +0.292 HD
ENDBRANCH   7  13
ENDBRANCH   1   2
BRANCH   1  15
ATOM     15  O   UNL     1      34.720 -19.421 -23.284  0.00  0.00    -0.382 OA
ATOM     16  H   UNL     1      35.599 -19.230 -23.648  0.00  0.00    +0.211 HD
ENDBRANCH   1  15
BRANCH   1  17
ATOM     17  C   UNL     1      35.359 -17.462 -21.996  0.00  0.00    -0.047 C 
BRANCH  17  18
ATOM     18  N   UNL     1      34.788 -16.541 -21.027  0.00  0.00    +0.387 N 
ATOM     19  H   UNL     1      34.380 -17.073 -20.258  0.00  0.00    -0.084 HD
ATOM     20  H   UNL     1      35.528 -15.930 -20.680  0.00  0.00    -0.084 HD
BRANCH  18  21
ATOM     21  C   UNL     1      33.749 -15.717 -21.645  0.00  0.00    -0.062 C 
ATOM     22  C   UNL     1      32.705 -15.337 -20.596  0.00  0.00    -0.023 C 
BRANCH  21  23
ATOM     23  C   UNL     1      34.357 -14.453 -22.281  0.00  0.00    -0.017 C 
BRANCH  23  24
ATOM     24  C   UNL     1      33.335 -13.462 -22.859  0.00  0.00    +0.024 C 
BRANCH  24  25
ATOM     25  C   UNL     1      33.354 -13.373 -24.364  0.00  0.00    -0.022 C 
ATOM     26  C   UNL     1      32.980 -14.476 -25.117  0.00  0.00    -0.004 C 
ATOM     27  C   UNL     1      33.746 -12.189 -24.971  0.00  0.00    -0.004 C 
ATOM     28  C   UNL     1      32.999 -14.393 -26.509  0.00  0.00    -0.000 C 
ATOM     29  C   UNL     1      33.764 -12.106 -26.364  0.00  0.00    -0.000 C 
ATOM     30  C   UNL     1      33.391 -13.209 -27.133  0.00  0.00    -0.000 C 
ENDBRANCH  24  25
ENDBRANCH  23  24
ENDBRANCH  21  23
ENDBRANCH  18  21
ENDBRANCH  17  18
ENDBRANCH   1  17
TORSDOF 10
ENDMDL
MODEL 9
REMARK VINA RESULT:      -9.1     10.543     13.395
REMARK  Name = 3869
REMARK  10 active torsions:
REMARK  status: ('A' for Active; 'I' for Inactive)
REMARK    1  A    between atoms: C_1  and  C_2
REMARK    2  A    between atoms: C_1  and  O_15
REMARK    3  A    between atoms: C_1  and  C_17
REMARK    4  A    between atoms: C_5  and  C_10
REMARK    5  A    between atoms: C_7  and  O_13
REMARK    6  A    between atoms: C_17  and  N_18
REMARK    7  A    between atoms: N_18  and  C_21
REMARK    8  A    between atoms: C_21  and  C_23
REMARK    9  A    between atoms: C_23  and  C_24
REMARK   10  A    between atoms: C_24  and  C_25
REMARK                            x       y       z     vdW  Elec       q    Type
REMARK                         _______ _______ _______ _____ _____    ______ ____
ROOT
ATOM      1  C   UNL     1      33.407 -14.282 -21.188  0.00  0.00    +0.112 C 
ENDROOT
BRANCH   1   2
ATOM      2  C   UNL     1      33.798 -15.042 -22.436  0.00  0.00    +0.002 C 
ATOM      3  C   UNL     1      33.267 -14.659 -23.655  0.00  0.00    +0.006 C 
ATOM      4  C   UNL     1      34.679 -16.104 -22.331  0.00  0.00    +0.001 C 
ATOM      5  C   UNL     1      33.628 -15.360 -24.806  0.00  0.00    +0.086 C 
ATOM      6  C   UNL     1      35.039 -16.805 -23.482  0.00  0.00    +0.037 C 
ATOM      7  C   UNL     1      34.514 -16.434 -24.719  0.00  0.00    +0.138 C 
BRANCH   5  10
ATOM      8  O   UNL     1      32.542 -15.784 -26.853  0.00  0.00    -0.270 OA
ATOM      9  N   UNL     1      33.119 -13.606 -26.419  0.00  0.00    -0.325 N 
ATOM     10  C   UNL     1      33.066 -14.956 -26.088  0.00  0.00    +0.246 C 
ATOM     11  H   UNL     1      32.749 -13.295 -27.277  0.00  0.00    +0.145 HD
ATOM     12  H   UNL     1      33.526 -12.962 -25.795  0.00  0.00    +0.145 HD
ENDBRANCH   5  10
BRANCH   7  13
ATOM     13  O   UNL     1      34.875 -17.134 -25.832  0.00  0.00    -0.505 OA
ATOM     14  H   UNL     1      34.321 -17.132 -26.587  0.00  0.00    +0.292 HD
ENDBRANCH   7  13
ENDBRANCH   1   2
BRANCH   1  15
ATOM     15  O   UNL     1      33.003 -15.227 -20.198  0.00  0.00    -0.382 OA
ATOM     16  H   UNL     1      32.311 -15.802 -20.562  0.00  0.00    +0.211 HD
ENDBRANCH   1  15
BRANCH   1  17
ATOM     17  C   UNL     1      32.273 -13.288 -21.467  0.00  0.00    -0.047 C 
BRANCH  17  18
ATOM     18  N   UNL     1      31.997 -12.476 -20.293  0.00  0.00    +0.387 N 
ATOM     19  H   UNL     1      31.683 -13.080 -19.534  0.00  0.00    -0.084 HD
ATOM     20  H   UNL     1      32.851 -11.986 -20.025  0.00  0.00    -0.084 HD
BRANCH  18  21
ATOM     21  C   UNL     1      30.959 -11.486 -20.581  0.00  0.00    -0.062 C 
ATOM     22  C   UNL     1      31.080 -10.318 -19.602  0.00  0.00    -0.023 C 
BRANCH  21  23
ATOM     23  C   UNL     1      31.066 -10.983 -22.033  0.00  0.00    -0.017 C 
BRANCH  23  24
ATOM     24  C   UNL     1      31.713  -9.599 -22.194  0.00  0.00    +0.024 C 
BRANCH  24  25
ATOM     25  C   UNL     1      32.927  -9.593 -23.087  0.00  0.00    -0.022 C 
ATOM     26  C   UNL     1      33.274 -10.746 -23.775  0.00  0.00    -0.004 C 
ATOM     27  C   UNL     1      33.678  -8.432 -23.207  0.00  0.00    -0.004 C 
ATOM     28  C   UNL     1      34.398 -10.740 -24.600  0.00  0.00    -0.000 C 
ATOM     29  C   UNL     1      34.802  -8.426 -24.034  0.00  0.00    -0.000 C 
ATOM     30  C   UNL     1      35.162  -9.581 -24.730  0.00  0.00    -0.000 C 
ENDBRANCH  24  25
ENDBRANCH  23  24
ENDBRANCH  21  23
ENDBRANCH  18  21
ENDBRANCH  17  18
ENDBRANCH   1  17
TORSDOF 10
ENDMDL
