MODEL 1
REMARK VINA RESULT:      -7.9      0.000      0.000
REMARK  Name = 68844
REMARK  8 active torsions:
REMARK  status: ('A' for Active; 'I' for Inactive)
REMARK    1  A    between atoms: N_5  and  C_23
REMARK    2  A    between atoms: C_6  and  N_18
REMARK    3  A    between atoms: C_11  and  S_12
REMARK    4  A    between atoms: S_12  and  N_15
REMARK    5  A    between atoms: N_18  and  C_21
REMARK    6  A    between atoms: C_23  and  C_24
REMARK    7  A    between atoms: C_24  and  C_25
REMARK    8  A    between atoms: C_25  and  O_26
REMARK                            x       y       z     vdW  Elec       q    Type
REMARK                         _______ _______ _______ _____ _____    ______ ____
ROOT
ATOM      1  S   UNL     1      31.726 -24.351 -14.294  0.00  0.00    +0.069 S 
ATOM      2  S   UNL     1      34.618 -24.454 -13.590  0.00  0.00    -0.048 S 
ATOM      3  O   UNL     1      31.385 -23.430 -13.227  0.00  0.00    -0.152 OA
ATOM      4  O   UNL     1      31.640 -25.788 -14.135  0.00  0.00    -0.152 OA
ATOM      5  N   UNL     1      30.939 -23.874 -15.761  0.00  0.00    -0.157 NA
ATOM      6  C   UNL     1      32.944 -22.820 -16.867  0.00  0.00    -0.019 C 
ATOM      7  C   UNL     1      31.482 -22.619 -16.393  0.00  0.00    +0.079 C 
ATOM      8  C   UNL     1      33.866 -23.316 -15.781  0.00  0.00    -0.014 C 
ATOM      9  C   UNL     1      33.406 -23.993 -14.672  0.00  0.00    +0.147 C 
ATOM     10  C   UNL     1      35.287 -23.178 -15.724  0.00  0.00    +0.022 C 
ATOM     11  C   UNL     1      35.824 -23.755 -14.590  0.00  0.00    +0.152 C 
ENDROOT
BRANCH  11  12
ATOM     12  S   UNL     1      37.464 -23.904 -13.978  0.00  0.00    +0.063 S 
ATOM     13  O   UNL     1      37.699 -22.715 -13.167  0.00  0.00    -0.153 OA
ATOM     14  O   UNL     1      37.526 -25.233 -13.381  0.00  0.00    -0.153 OA
BRANCH  12  15
ATOM     15  N   UNL     1      38.553 -23.856 -15.306  0.00  0.00    -0.203 NA
ATOM     16  H   UNL     1      38.061 -24.122 -16.159  0.00  0.00    +0.144 HD
ATOM     17  H   UNL     1      39.321 -24.507 -15.140  0.00  0.00    +0.144 HD
ENDBRANCH  12  15
ENDBRANCH  11  12
BRANCH   6  18
ATOM     18  N   UNL     1      33.000 -23.775 -17.976  0.00  0.00    +0.389 N 
ATOM     19  H   UNL     1      32.056 -23.943 -18.321  0.00  0.00    -0.084 HD
ATOM     20  H   UNL     1      33.414 -24.645 -17.640  0.00  0.00    -0.084 HD
BRANCH  18  21
ATOM     21  C   UNL     1      33.819 -23.256 -19.060  0.00  0.00    -0.081 C 
ATOM     22  C   UNL     1      33.561 -21.776 -19.283  0.00  0.00    -0.026 C 
ENDBRANCH  18  21
ENDBRANCH   6  18
BRANCH   5  23
ATOM     23  C   UNL     1      29.458 -23.918 -15.748  0.00  0.00    +0.098 C 
BRANCH  23  24
ATOM     24  C   UNL     1      28.887 -22.512 -15.612  0.00  0.00    +0.051 C 
BRANCH  24  25
ATOM     25  C   UNL     1      27.449 -22.407 -16.106  0.00  0.00    +0.144 C 
BRANCH  25  26
ATOM     26  O   UNL     1      27.419 -21.569 -17.253  0.00  0.00    -0.351 OA
ATOM     27  C   UNL     1      26.088 -21.238 -17.623  0.00  0.00    +0.174 C 
ENDBRANCH  25  26
ENDBRANCH  24  25
ENDBRANCH  23  24
ENDBRANCH   5  23
TORSDOF 8
ENDMDL
MODEL 2
REMARK VINA RESULT:      -7.6      3.666      6.505
REMARK  Name = 68844
REMARK  8 active torsions:
REMARK  status: ('A' for Active; 'I' for Inactive)
REMARK    1  A    between atoms: N_5  and  C_23
REMARK    2  A    between atoms: C_6  and  N_18
REMARK    3  A    between atoms: C_11  and  S_12
REMARK    4  A    between atoms: S_12  and  N_15
REMARK    5  A    between atoms: N_18  and  C_21
REMARK    6  A    between atoms: C_23  and  C_24
REMARK    7  A    between atoms: C_24  and  C_25
REMARK    8  A    between atoms: C_25  and  O_26
REMARK                            x       y       z     vdW  Elec       q    Type
REMARK                         _______ _______ _______ _____ _____    ______ ____
ROOT
ATOM      1  S   UNL     1      34.172 -22.537 -18.847  0.00  0.00    +0.069 S 
ATOM      2  S   UNL     1      32.323 -23.464 -16.704  0.00  0.00    -0.048 S 
ATOM      3  O   UNL     1      33.462 -21.294 -19.077  0.00  0.00    -0.152 OA
ATOM      4  O   UNL     1      33.894 -23.740 -19.602  0.00  0.00    -0.152 OA
ATOM      5  N   UNL     1      35.879 -22.244 -18.814  0.00  0.00    -0.157 NA
ATOM      6  C   UNL     1      36.168 -22.334 -16.311  0.00  0.00    -0.019 C 
ATOM      7  C   UNL     1      36.372 -21.499 -17.601  0.00  0.00    +0.079 C 
ATOM      8  C   UNL     1      34.747 -22.799 -16.115  0.00  0.00    -0.014 C 
ATOM      9  C   UNL     1      33.858 -22.925 -17.160  0.00  0.00    +0.147 C 
ATOM     10  C   UNL     1      34.121 -23.169 -14.885  0.00  0.00    +0.022 C 
ATOM     11  C   UNL     1      32.807 -23.554 -15.061  0.00  0.00    +0.152 C 
ENDROOT
BRANCH  11  12
ATOM     12  S   UNL     1      31.555 -24.101 -13.955  0.00  0.00    +0.063 S 
ATOM     13  O   UNL     1      31.694 -25.550 -13.880  0.00  0.00    -0.153 OA
ATOM     14  O   UNL     1      31.715 -23.277 -12.763  0.00  0.00    -0.153 OA
BRANCH  12  15
ATOM     15  N   UNL     1      30.021 -23.757 -14.649  0.00  0.00    -0.203 NA
ATOM     16  H   UNL     1      29.317 -23.713 -13.911  0.00  0.00    +0.144 HD
ATOM     17  H   UNL     1      29.774 -24.493 -15.310  0.00  0.00    +0.144 HD
ENDBRANCH  12  15
ENDBRANCH  11  12
BRANCH   6  18
ATOM     18  N   UNL     1      37.032 -23.517 -16.321  0.00  0.00    +0.389 N 
ATOM     19  H   UNL     1      37.729 -23.417 -17.058  0.00  0.00    -0.084 HD
ATOM     20  H   UNL     1      36.456 -24.342 -16.490  0.00  0.00    -0.084 HD
BRANCH  18  21
ATOM     21  C   UNL     1      37.705 -23.672 -15.043  0.00  0.00    -0.081 C 
ATOM     22  C   UNL     1      37.698 -25.122 -14.589  0.00  0.00    -0.026 C 
ENDBRANCH  18  21
ENDBRANCH   6  18
BRANCH   5  23
ATOM     23  C   UNL     1      36.478 -21.750 -20.077  0.00  0.00    +0.098 C 
BRANCH  23  24
ATOM     24  C   UNL     1      36.670 -20.241 -20.017  0.00  0.00    +0.051 C 
BRANCH  24  25
ATOM     25  C   UNL     1      35.744 -19.487 -20.964  0.00  0.00    +0.144 C 
BRANCH  25  26
ATOM     26  O   UNL     1      35.735 -18.114 -20.599  0.00  0.00    -0.351 OA
ATOM     27  C   UNL     1      34.934 -17.344 -21.484  0.00  0.00    +0.174 C 
ENDBRANCH  25  26
ENDBRANCH  24  25
ENDBRANCH  23  24
ENDBRANCH   5  23
TORSDOF 8
ENDMDL
MODEL 3
REMARK VINA RESULT:      -6.8      9.426     11.730
REMARK  Name = 68844
REMARK  8 active torsions:
REMARK  status: ('A' for Active; 'I' for Inactive)
REMARK    1  A    between atoms: N_5  and  C_23
REMARK    2  A    between atoms: C_6  and  N_18
REMARK    3  A    between atoms: C_11  and  S_12
REMARK    4  A    between atoms: S_12  and  N_15
REMARK    5  A    between atoms: N_18  and  C_21
REMARK    6  A    between atoms: C_23  and  C_24
REMARK    7  A    between atoms: C_24  and  C_25
REMARK    8  A    between atoms: C_25  and  O_26
REMARK                            x       y       z     vdW  Elec       q    Type
REMARK                         _______ _______ _______ _____ _____    ______ ____
ROOT
ATOM      1  S   UNL     1      34.720 -18.184 -23.394  0.00  0.00    +0.069 S 
ATOM      2  S   UNL     1      34.090 -16.175 -25.500  0.00  0.00    -0.048 S 
ATOM      3  O   UNL     1      36.131 -18.246 -23.718  0.00  0.00    -0.152 OA
ATOM      4  O   UNL     1      33.750 -19.090 -23.973  0.00  0.00    -0.152 OA
ATOM      5  N   UNL     1      34.511 -18.119 -21.675  0.00  0.00    -0.157 NA
ATOM      6  C   UNL     1      34.026 -15.651 -21.508  0.00  0.00    -0.019 C 
ATOM      7  C   UNL     1      34.926 -16.821 -21.034  0.00  0.00    +0.079 C 
ATOM      8  C   UNL     1      33.961 -15.512 -23.008  0.00  0.00    -0.014 C 
ATOM      9  C   UNL     1      34.226 -16.562 -23.861  0.00  0.00    +0.147 C 
ATOM     10  C   UNL     1      33.631 -14.339 -23.754  0.00  0.00    +0.022 C 
ATOM     11  C   UNL     1      33.659 -14.559 -25.117  0.00  0.00    +0.152 C 
ENDROOT
BRANCH  11  12
ATOM     12  S   UNL     1      33.353 -13.531 -26.508  0.00  0.00    +0.063 S 
ATOM     13  O   UNL     1      33.600 -12.165 -26.059  0.00  0.00    -0.153 OA
ATOM     14  O   UNL     1      34.141 -14.110 -27.589  0.00  0.00    -0.153 OA
BRANCH  12  15
ATOM     15  N   UNL     1      31.691 -13.651 -26.926  0.00  0.00    -0.203 NA
ATOM     16  H   UNL     1      31.373 -14.610 -26.781  0.00  0.00    +0.144 HD
ATOM     17  H   UNL     1      31.567 -13.398 -27.906  0.00  0.00    +0.144 HD
ENDBRANCH  12  15
ENDBRANCH  11  12
BRANCH   6  18
ATOM     18  N   UNL     1      32.658 -15.819 -21.012  0.00  0.00    +0.389 N 
ATOM     19  H   UNL     1      32.557 -16.755 -20.620  0.00  0.00    -0.084 HD
ATOM     20  H   UNL     1      32.009 -15.688 -21.788  0.00  0.00    -0.084 HD
BRANCH  18  21
ATOM     21  C   UNL     1      32.361 -14.836 -19.984  0.00  0.00    -0.081 C 
ATOM     22  C   UNL     1      32.339 -13.429 -20.558  0.00  0.00    -0.026 C 
ENDBRANCH  18  21
ENDBRANCH   6  18
BRANCH   5  23
ATOM     23  C   UNL     1      34.971 -19.308 -20.920  0.00  0.00    +0.098 C 
BRANCH  23  24
ATOM     24  C   UNL     1      33.788 -20.196 -20.558  0.00  0.00    +0.051 C 
BRANCH  24  25
ATOM     25  C   UNL     1      34.172 -21.349 -19.638  0.00  0.00    +0.144 C 
BRANCH  25  26
ATOM     26  O   UNL     1      32.991 -22.033 -19.243  0.00  0.00    -0.351 OA
ATOM     27  C   UNL     1      33.203 -22.807 -18.071  0.00  0.00    +0.174 C 
ENDBRANCH  25  26
ENDBRANCH  24  25
ENDBRANCH  23  24
ENDBRANCH   5  23
TORSDOF 8
ENDMDL
MODEL 4
REMARK VINA RESULT:      -6.6      3.494      5.187
REMARK  Name = 68844
REMARK  8 active torsions:
REMARK  status: ('A' for Active; 'I' for Inactive)
REMARK    1  A    between atoms: N_5  and  C_23
REMARK    2  A    between atoms: C_6  and  N_18
REMARK    3  A    between atoms: C_11  and  S_12
REMARK    4  A    between atoms: S_12  and  N_15
REMARK    5  A    between atoms: N_18  and  C_21
REMARK    6  A    between atoms: C_23  and  C_24
REMARK    7  A    between atoms: C_24  and  C_25
REMARK    8  A    between atoms: C_25  and  O_26
REMARK                            x       y       z     vdW  Elec       q    Type
REMARK                         _______ _______ _______ _____ _____    ______ ____
ROOT
ATOM      1  S   UNL     1      36.389 -22.222 -16.781  0.00  0.00    +0.069 S 
ATOM      2  S   UNL     1      37.098 -22.987 -13.991  0.00  0.00    -0.048 S 
ATOM      3  O   UNL     1      37.353 -23.117 -17.390  0.00  0.00    -0.152 OA
ATOM      4  O   UNL     1      36.697 -20.841 -16.477  0.00  0.00    -0.152 OA
ATOM      5  N   UNL     1      34.879 -22.315 -17.626  0.00  0.00    -0.157 NA
ATOM      6  C   UNL     1      33.668 -23.761 -15.954  0.00  0.00    -0.019 C 
ATOM      7  C   UNL     1      34.120 -23.600 -17.429  0.00  0.00    +0.079 C 
ATOM      8  C   UNL     1      34.800 -23.649 -14.963  0.00  0.00    -0.014 C 
ATOM      9  C   UNL     1      35.974 -22.987 -15.253  0.00  0.00    +0.147 C 
ATOM     10  C   UNL     1      34.842 -24.175 -13.636  0.00  0.00    +0.022 C 
ATOM     11  C   UNL     1      36.029 -23.885 -12.994  0.00  0.00    +0.152 C 
ENDROOT
BRANCH  11  12
ATOM     12  S   UNL     1      36.653 -24.253 -11.393  0.00  0.00    +0.063 S 
ATOM     13  O   UNL     1      37.592 -25.354 -11.573  0.00  0.00    -0.153 OA
ATOM     14  O   UNL     1      37.103 -22.974 -10.858  0.00  0.00    -0.153 OA
BRANCH  12  15
ATOM     15  N   UNL     1      35.359 -24.823 -10.417  0.00  0.00    -0.203 NA
ATOM     16  H   UNL     1      35.736 -25.325  -9.612  0.00  0.00    +0.144 HD
ATOM     17  H   UNL     1      34.771 -25.453 -10.964  0.00  0.00    +0.144 HD
ENDBRANCH  12  15
ENDBRANCH  11  12
BRANCH   6  18
ATOM     18  N   UNL     1      32.665 -22.751 -15.609  0.00  0.00    +0.389 N 
ATOM     19  H   UNL     1      32.952 -21.850 -15.990  0.00  0.00    -0.084 HD
ATOM     20  H   UNL     1      32.589 -22.698 -14.593  0.00  0.00    -0.084 HD
BRANCH  18  21
ATOM     21  C   UNL     1      31.367 -23.109 -16.157  0.00  0.00    -0.081 C 
ATOM     22  C   UNL     1      30.323 -23.233 -15.060  0.00  0.00    -0.026 C 
ENDBRANCH  18  21
ENDBRANCH   6  18
BRANCH   5  23
ATOM     23  C   UNL     1      34.898 -21.868 -19.039  0.00  0.00    +0.098 C 
BRANCH  23  24
ATOM     24  C   UNL     1      33.480 -21.615 -19.534  0.00  0.00    +0.051 C 
BRANCH  24  25
ATOM     25  C   UNL     1      33.358 -20.337 -20.354  0.00  0.00    +0.144 C 
BRANCH  25  26
ATOM     26  O   UNL     1      34.662 -19.879 -20.686  0.00  0.00    -0.351 OA
ATOM     27  C   UNL     1      34.726 -19.410 -22.025  0.00  0.00    +0.174 C 
ENDBRANCH  25  26
ENDBRANCH  24  25
ENDBRANCH  23  24
ENDBRANCH   5  23
TORSDOF 8
ENDMDL
MODEL 5
REMARK VINA RESULT:      -6.5     12.690     14.551
REMARK  Name = 68844
REMARK  8 active torsions:
REMARK  status: ('A' for Active; 'I' for Inactive)
REMARK    1  A    between atoms: N_5  and  C_23
REMARK    2  A    between atoms: C_6  and  N_18
REMARK    3  A    between atoms: C_11  and  S_12
REMARK    4  A    between atoms: S_12  and  N_15
REMARK    5  A    between atoms: N_18  and  C_21
REMARK    6  A    between atoms: C_23  and  C_24
REMARK    7  A    between atoms: C_24  and  C_25
REMARK    8  A    between atoms: C_25  and  O_26
REMARK                            x       y       z     vdW  Elec       q    Type
REMARK                         _______ _______ _______ _____ _____    ______ ____
ROOT
ATOM      1  S   UNL     1      31.725 -10.601 -22.129  0.00  0.00    +0.069 S 
ATOM      2  S   UNL     1      32.329 -13.395 -21.292  0.00  0.00    -0.048 S 
ATOM      3  O   UNL     1      32.329 -10.001 -20.956  0.00  0.00    -0.152 OA
ATOM      4  O   UNL     1      30.317 -10.929 -22.194  0.00  0.00    -0.152 OA
ATOM      5  N   UNL     1      32.192  -9.723 -23.548  0.00  0.00    -0.157 NA
ATOM      6  C   UNL     1      33.931 -11.352 -24.370  0.00  0.00    -0.019 C 
ATOM      7  C   UNL     1      33.633  -9.889 -23.951  0.00  0.00    +0.079 C 
ATOM      8  C   UNL     1      33.547 -12.367 -23.323  0.00  0.00    -0.014 C 
ATOM      9  C   UNL     1      32.598 -12.111 -22.357  0.00  0.00    +0.147 C 
ATOM     10  C   UNL     1      34.068 -13.689 -23.168  0.00  0.00    +0.022 C 
ATOM     11  C   UNL     1      33.491 -14.358 -22.107  0.00  0.00    +0.152 C 
ENDROOT
BRANCH  11  12
ATOM     12  S   UNL     1      33.713 -15.967 -21.436  0.00  0.00    +0.063 S 
ATOM     13  O   UNL     1      32.443 -16.318 -20.811  0.00  0.00    -0.153 OA
ATOM     14  O   UNL     1      34.245 -16.766 -22.534  0.00  0.00    -0.153 OA
BRANCH  12  15
ATOM     15  N   UNL     1      34.901 -15.887 -20.199  0.00  0.00    -0.203 NA
ATOM     16  H   UNL     1      35.564 -15.141 -20.411  0.00  0.00    +0.144 HD
ATOM     17  H   UNL     1      35.398 -16.777 -20.146  0.00  0.00    +0.144 HD
ENDBRANCH  12  15
ENDBRANCH  11  12
BRANCH   6  18
ATOM     18  N   UNL     1      33.222 -11.689 -25.606  0.00  0.00    +0.389 N 
ATOM     19  H   UNL     1      32.805 -10.844 -25.994  0.00  0.00    -0.084 HD
ATOM     20  H   UNL     1      32.498 -12.375 -25.392  0.00  0.00    -0.084 HD
BRANCH  18  21
ATOM     21  C   UNL     1      34.134 -12.262 -26.582  0.00  0.00    -0.081 C 
ATOM     22  C   UNL     1      33.480 -13.403 -27.343  0.00  0.00    -0.026 C 
ENDBRANCH  18  21
ENDBRANCH   6  18
BRANCH   5  23
ATOM     23  C   UNL     1      31.731  -8.317 -23.622  0.00  0.00    +0.098 C 
BRANCH  23  24
ATOM     24  C   UNL     1      32.824  -7.375 -23.135  0.00  0.00    +0.051 C 
BRANCH  24  25
ATOM     25  C   UNL     1      32.385  -6.519 -21.952  0.00  0.00    +0.144 C 
BRANCH  25  26
ATOM     26  O   UNL     1      31.009  -6.199 -22.105  0.00  0.00    -0.351 OA
ATOM     27  C   UNL     1      30.826  -4.839 -22.472  0.00  0.00    +0.174 C 
ENDBRANCH  25  26
ENDBRANCH  24  25
ENDBRANCH  23  24
ENDBRANCH   5  23
TORSDOF 8
ENDMDL
MODEL 6
REMARK VINA RESULT:      -6.4     10.530     12.254
REMARK  Name = 68844
REMARK  8 active torsions:
REMARK  status: ('A' for Active; 'I' for Inactive)
REMARK    1  A    between atoms: N_5  and  C_23
REMARK    2  A    between atoms: C_6  and  N_18
REMARK    3  A    between atoms: C_11  and  S_12
REMARK    4  A    between atoms: S_12  and  N_15
REMARK    5  A    between atoms: N_18  and  C_21
REMARK    6  A    between atoms: C_23  and  C_24
REMARK    7  A    between atoms: C_24  and  C_25
REMARK    8  A    between atoms: C_25  and  O_26
REMARK                            x       y       z     vdW  Elec       q    Type
REMARK                         _______ _______ _______ _____ _____    ______ ____
ROOT
ATOM      1  S   UNL     1      32.780 -14.111 -21.331  0.00  0.00    +0.069 S 
ATOM      2  S   UNL     1      34.099 -16.776 -21.507  0.00  0.00    -0.048 S 
ATOM      3  O   UNL     1      33.765 -13.560 -20.421  0.00  0.00    -0.152 OA
ATOM      4  O   UNL     1      31.566 -14.747 -20.867  0.00  0.00    -0.152 OA
ATOM      5  N   UNL     1      32.405 -12.956 -22.567  0.00  0.00    -0.157 NA
ATOM      6  C   UNL     1      33.781 -13.998 -24.404  0.00  0.00    -0.019 C 
ATOM      7  C   UNL     1      33.503 -12.721 -23.570  0.00  0.00    +0.079 C 
ATOM      8  C   UNL     1      34.076 -15.214 -23.561  0.00  0.00    -0.014 C 
ATOM      9  C   UNL     1      33.657 -15.327 -22.253  0.00  0.00    +0.147 C 
ATOM     10  C   UNL     1      34.794 -16.385 -23.955  0.00  0.00    +0.022 C 
ATOM     11  C   UNL     1      34.877 -17.315 -22.938  0.00  0.00    +0.152 C 
ENDROOT
BRANCH  11  12
ATOM     12  S   UNL     1      35.614 -18.905 -22.819  0.00  0.00    +0.063 S 
ATOM     13  O   UNL     1      35.231 -19.615 -24.035  0.00  0.00    -0.153 OA
ATOM     14  O   UNL     1      37.018 -18.652 -22.520  0.00  0.00    -0.153 OA
BRANCH  12  15
ATOM     15  N   UNL     1      34.917 -19.736 -21.487  0.00  0.00    -0.203 NA
ATOM     16  H   UNL     1      34.564 -19.058 -20.811  0.00  0.00    +0.144 HD
ATOM     17  H   UNL     1      35.625 -20.321 -21.042  0.00  0.00    +0.144 HD
ENDBRANCH  12  15
ENDBRANCH  11  12
BRANCH   6  18
ATOM     18  N   UNL     1      32.637 -14.312 -25.263  0.00  0.00    +0.389 N 
ATOM     19  H   UNL     1      31.980 -13.533 -25.244  0.00  0.00    -0.084 HD
ATOM     20  H   UNL     1      32.190 -15.161 -24.916  0.00  0.00    -0.084 HD
BRANCH  18  21
ATOM     21  C   UNL     1      33.070 -14.538 -26.632  0.00  0.00    -0.081 C 
ATOM     22  C   UNL     1      33.431 -13.232 -27.318  0.00  0.00    -0.026 C 
ENDBRANCH  18  21
ENDBRANCH   6  18
BRANCH   5  23
ATOM     23  C   UNL     1      31.765 -11.701 -22.108  0.00  0.00    +0.098 C 
BRANCH  23  24
ATOM     24  C   UNL     1      32.365 -10.504 -22.834  0.00  0.00    +0.051 C 
BRANCH  24  25
ATOM     25  C   UNL     1      31.762  -9.177 -22.388  0.00  0.00    +0.144 C 
BRANCH  25  26
ATOM     26  O   UNL     1      32.709  -8.493 -21.579  0.00  0.00    -0.351 OA
ATOM     27  C   UNL     1      32.320  -8.486 -20.212  0.00  0.00    +0.174 C 
ENDBRANCH  25  26
ENDBRANCH  24  25
ENDBRANCH  23  24
ENDBRANCH   5  23
TORSDOF 8
ENDMDL
MODEL 7
REMARK VINA RESULT:      -6.2     13.499     15.328
REMARK  Name = 68844
REMARK  8 active torsions:
REMARK  status: ('A' for Active; 'I' for Inactive)
REMARK    1  A    between atoms: N_5  and  C_23
REMARK    2  A    between atoms: C_6  and  N_18
REMARK    3  A    between atoms: C_11  and  S_12
REMARK    4  A    between atoms: S_12  and  N_15
REMARK    5  A    between atoms: N_18  and  C_21
REMARK    6  A    between atoms: C_23  and  C_24
REMARK    7  A    between atoms: C_24  and  C_25
REMARK    8  A    between atoms: C_25  and  O_26
REMARK                            x       y       z     vdW  Elec       q    Type
REMARK                         _______ _______ _______ _____ _____    ______ ____
ROOT
ATOM      1  S   UNL     1      33.704 -10.195 -24.143  0.00  0.00    +0.069 S 
ATOM      2  S   UNL     1      33.926 -13.047 -23.313  0.00  0.00    -0.048 S 
ATOM      3  O   UNL     1      33.155 -10.502 -25.449  0.00  0.00    -0.152 OA
ATOM      4  O   UNL     1      35.124 -10.024 -23.920  0.00  0.00    -0.152 OA
ATOM      5  N   UNL     1      32.834  -8.878 -23.430  0.00  0.00    -0.157 NA
ATOM      6  C   UNL     1      31.437 -10.246 -21.839  0.00  0.00    -0.019 C 
ATOM      7  C   UNL     1      31.432  -9.208 -22.990  0.00  0.00    +0.079 C 
ATOM      8  C   UNL     1      32.207 -11.501 -22.164  0.00  0.00    -0.014 C 
ATOM      9  C   UNL     1      33.198 -11.534 -23.121  0.00  0.00    +0.147 C 
ATOM     10  C   UNL     1      32.051 -12.790 -21.568  0.00  0.00    +0.022 C 
ATOM     11  C   UNL     1      32.923 -13.721 -22.095  0.00  0.00    +0.152 C 
ENDROOT
BRANCH  11  12
ATOM     12  S   UNL     1      33.200 -15.427 -21.776  0.00  0.00    +0.063 S 
ATOM     13  O   UNL     1      31.981 -15.918 -21.144  0.00  0.00    -0.153 OA
ATOM     14  O   UNL     1      33.652 -15.981 -23.047  0.00  0.00    -0.153 OA
BRANCH  12  15
ATOM     15  N   UNL     1      34.477 -15.573 -20.636  0.00  0.00    -0.203 NA
ATOM     16  H   UNL     1      34.358 -16.434 -20.102  0.00  0.00    +0.144 HD
ATOM     17  H   UNL     1      34.460 -14.775 -20.002  0.00  0.00    +0.144 HD
ENDBRANCH  12  15
ENDBRANCH  11  12
BRANCH   6  18
ATOM     18  N   UNL     1      32.015  -9.665 -20.624  0.00  0.00    +0.389 N 
ATOM     19  H   UNL     1      32.228  -8.682 -20.792  0.00  0.00    -0.084 HD
ATOM     20  H   UNL     1      32.866 -10.176 -20.389  0.00  0.00    -0.084 HD
BRANCH  18  21
ATOM     21  C   UNL     1      31.085  -9.770 -19.512  0.00  0.00    -0.081 C 
ATOM     22  C   UNL     1      31.472 -10.903 -18.577  0.00  0.00    -0.026 C 
ENDBRANCH  18  21
ENDBRANCH   6  18
BRANCH   5  23
ATOM     23  C   UNL     1      32.925  -7.581 -24.140  0.00  0.00    +0.098 C 
BRANCH  23  24
ATOM     24  C   UNL     1      32.294  -6.474 -23.304  0.00  0.00    +0.051 C 
BRANCH  24  25
ATOM     25  C   UNL     1      31.356  -5.584 -24.110  0.00  0.00    +0.144 C 
BRANCH  25  26
ATOM     26  O   UNL     1      30.609  -4.775 -23.213  0.00  0.00    -0.351 OA
ATOM     27  C   UNL     1      30.515  -5.372 -21.926  0.00  0.00    +0.174 C 
ENDBRANCH  25  26
ENDBRANCH  24  25
ENDBRANCH  23  24
ENDBRANCH   5  23
TORSDOF 8
ENDMDL
MODEL 8
REMARK VINA RESULT:      -6.2     13.600     15.781
REMARK  Name = 68844
REMARK  8 active torsions:
REMARK  status: ('A' for Active; 'I' for Inactive)
REMARK    1  A    between atoms: N_5  and  C_23
REMARK    2  A    between atoms: C_6  and  N_18
REMARK    3  A    between atoms: C_11  and  S_12
REMARK    4  A    between atoms: S_12  and  N_15
REMARK    5  A    between atoms: N_18  and  C_21
REMARK    6  A    between atoms: C_23  and  C_24
REMARK    7  A    between atoms: C_24  and  C_25
REMARK    8  A    between atoms: C_25  and  O_26
REMARK                            x       y       z     vdW  Elec       q    Type
REMARK                         _______ _______ _______ _____ _____    ______ ____
ROOT
ATOM      1  S   UNL     1      31.762 -10.745 -20.416  0.00  0.00    +0.069 S 
ATOM      2  S   UNL     1      31.624  -7.947 -21.427  0.00  0.00    -0.048 S 
ATOM      3  O   UNL     1      30.336 -10.848 -20.178  0.00  0.00    -0.152 OA
ATOM      4  O   UNL     1      32.692 -10.324 -19.389  0.00  0.00    -0.152 OA
ATOM      5  N   UNL     1      32.340 -12.191 -21.175  0.00  0.00    -0.157 NA
ATOM      6  C   UNL     1      32.508 -11.274 -23.517  0.00  0.00    -0.019 C 
ATOM      7  C   UNL     1      31.906 -12.374 -22.606  0.00  0.00    +0.079 C 
ATOM      8  C   UNL     1      32.216  -9.873 -23.042  0.00  0.00    -0.014 C 
ATOM      9  C   UNL     1      31.913  -9.584 -21.729  0.00  0.00    +0.147 C 
ATOM     10  C   UNL     1      32.207  -8.678 -23.826  0.00  0.00    +0.022 C 
ATOM     11  C   UNL     1      31.906  -7.560 -23.075  0.00  0.00    +0.152 C 
ENDROOT
BRANCH  11  12
ATOM     12  S   UNL     1      31.749  -5.854 -23.466  0.00  0.00    +0.063 S 
ATOM     13  O   UNL     1      32.877  -5.537 -24.334  0.00  0.00    -0.153 OA
ATOM     14  O   UNL     1      30.380  -5.698 -23.942  0.00  0.00    -0.153 OA
BRANCH  12  15
ATOM     15  N   UNL     1      31.927  -4.941 -22.021  0.00  0.00    -0.203 NA
ATOM     16  H   UNL     1      32.196  -5.562 -21.258  0.00  0.00    +0.144 HD
ATOM     17  H   UNL     1      31.042  -4.488 -21.794  0.00  0.00    +0.144 HD
ENDBRANCH  12  15
ENDBRANCH  11  12
BRANCH   6  18
ATOM     18  N   UNL     1      33.963 -11.423 -23.612  0.00  0.00    +0.389 N 
ATOM     19  H   UNL     1      34.238 -12.302 -23.178  0.00  0.00    -0.084 HD
ATOM     20  H   UNL     1      34.405 -10.638 -23.134  0.00  0.00    -0.084 HD
BRANCH  18  21
ATOM     21  C   UNL     1      34.389 -11.422 -25.002  0.00  0.00    -0.081 C 
ATOM     22  C   UNL     1      35.299 -10.243 -25.297  0.00  0.00    -0.026 C 
ENDBRANCH  18  21
ENDBRANCH   6  18
BRANCH   5  23
ATOM     23  C   UNL     1      32.227 -13.434 -20.376  0.00  0.00    +0.098 C 
BRANCH  23  24
ATOM     24  C   UNL     1      32.729 -14.627 -21.178  0.00  0.00    +0.051 C 
BRANCH  24  25
ATOM     25  C   UNL     1      34.247 -14.760 -21.155  0.00  0.00    +0.144 C 
BRANCH  25  26
ATOM     26  O   UNL     1      34.767 -14.282 -22.388  0.00  0.00    -0.351 OA
ATOM     27  C   UNL     1      34.365 -15.102 -23.477  0.00  0.00    +0.174 C 
ENDBRANCH  25  26
ENDBRANCH  24  25
ENDBRANCH  23  24
ENDBRANCH   5  23
TORSDOF 8
ENDMDL
MODEL 9
REMARK VINA RESULT:      -6.1     10.692     13.091
REMARK  Name = 68844
REMARK  8 active torsions:
REMARK  status: ('A' for Active; 'I' for Inactive)
REMARK    1  A    between atoms: N_5  and  C_23
REMARK    2  A    between atoms: C_6  and  N_18
REMARK    3  A    between atoms: C_11  and  S_12
REMARK    4  A    between atoms: S_12  and  N_15
REMARK    5  A    between atoms: N_18  and  C_21
REMARK    6  A    between atoms: C_23  and  C_24
REMARK    7  A    between atoms: C_24  and  C_25
REMARK    8  A    between atoms: C_25  and  O_26
REMARK                            x       y       z     vdW  Elec       q    Type
REMARK                         _______ _______ _______ _____ _____    ______ ____
ROOT
ATOM      1  S   UNL     1      33.489 -15.159 -21.907  0.00  0.00    +0.069 S 
ATOM      2  S   UNL     1      32.504 -12.805 -20.371  0.00  0.00    -0.048 S 
ATOM      3  O   UNL     1      32.306 -15.959 -21.656  0.00  0.00    -0.152 OA
ATOM      4  O   UNL     1      34.660 -15.219 -21.058  0.00  0.00    -0.152 OA
ATOM      5  N   UNL     1      33.959 -15.305 -23.568  0.00  0.00    -0.157 NA
ATOM      6  C   UNL     1      33.049 -13.088 -24.351  0.00  0.00    -0.019 C 
ATOM      7  C   UNL     1      33.040 -14.626 -24.550  0.00  0.00    +0.079 C 
ATOM      8  C   UNL     1      32.734 -12.663 -22.938  0.00  0.00    -0.014 C 
ATOM      9  C   UNL     1      32.921 -13.495 -21.856  0.00  0.00    +0.147 C 
ATOM     10  C   UNL     1      32.222 -11.400 -22.510  0.00  0.00    +0.022 C 
ATOM     11  C   UNL     1      32.054 -11.340 -21.141  0.00  0.00    +0.152 C 
ENDROOT
BRANCH  11  12
ATOM     12  S   UNL     1      31.475 -10.086 -20.054  0.00  0.00    +0.063 S 
ATOM     13  O   UNL     1      31.474  -8.852 -20.830  0.00  0.00    -0.153 OA
ATOM     14  O   UNL     1      30.235 -10.612 -19.495  0.00  0.00    -0.153 OA
BRANCH  12  15
ATOM     15  N   UNL     1      32.609  -9.900 -18.776  0.00  0.00    -0.203 NA
ATOM     16  H   UNL     1      32.459  -9.002 -18.317  0.00  0.00    +0.144 HD
ATOM     17  H   UNL     1      33.556  -9.934 -19.154  0.00  0.00    +0.144 HD
ENDBRANCH  12  15
ENDBRANCH  11  12
BRANCH   6  18
ATOM     18  N   UNL     1      34.354 -12.530 -24.709  0.00  0.00    +0.389 N 
ATOM     19  H   UNL     1      34.930 -13.262 -25.123  0.00  0.00    -0.084 HD
ATOM     20  H   UNL     1      34.798 -12.166 -23.866  0.00  0.00    -0.084 HD
BRANCH  18  21
ATOM     21  C   UNL     1      34.203 -11.443 -25.663  0.00  0.00    -0.081 C 
ATOM     22  C   UNL     1      35.288 -10.395 -25.480  0.00  0.00    -0.026 C 
ENDBRANCH  18  21
ENDBRANCH   6  18
BRANCH   5  23
ATOM     23  C   UNL     1      34.375 -16.658 -24.008  0.00  0.00    +0.098 C 
BRANCH  23  24
ATOM     24  C   UNL     1      35.296 -17.291 -22.975  0.00  0.00    +0.051 C 
BRANCH  24  25
ATOM     25  C   UNL     1      34.916 -18.730 -22.645  0.00  0.00    +0.144 C 
BRANCH  25  26
ATOM     26  O   UNL     1      34.726 -18.842 -21.241  0.00  0.00    -0.351 OA
ATOM     27  C   UNL     1      33.489 -19.469 -20.930  0.00  0.00    +0.174 C 
ENDBRANCH  25  26
ENDBRANCH  24  25
ENDBRANCH  23  24
ENDBRANCH   5  23
TORSDOF 8
ENDMDL
