MODEL 1
REMARK VINA RESULT:     -12.9      0.000      0.000
REMARK  Name = 5289179
REMARK  4 active torsions:
REMARK  status: ('A' for Active; 'I' for Inactive)
REMARK    1  A    between atoms: C_3  and  C_14
REMARK    2  A    between atoms: C_6  and  C_22
REMARK    3  A    between atoms: C_14  and  C_15
REMARK    4  A    between atoms: C_22  and  C_25
REMARK                            x       y       z     vdW  Elec       q    Type
REMARK                         _______ _______ _______ _____ _____    ______ ____
ROOT
ATOM      1  N   UNL     1      33.784 -15.420 -24.192  0.00  0.00    -0.249 N 
ATOM      2  N   UNL     1      33.633 -15.666 -26.410  0.00  0.00    -0.375 NA
ATOM      3  C   UNL     1      33.236 -14.259 -24.675  0.00  0.00    +0.208 C 
ATOM      4  C   UNL     1      34.008 -16.248 -25.289  0.00  0.00    +0.189 C 
ATOM      5  C   UNL     1      34.086 -15.778 -22.880  0.00  0.00    +0.071 C 
ATOM      6  C   UNL     1      34.624 -16.987 -22.649  0.00  0.00    +0.054 C 
ATOM      7  C   UNL     1      33.156 -14.435 -26.036  0.00  0.00    +0.182 C 
ATOM      8  C   UNL     1      34.579 -17.528 -25.030  0.00  0.00    +0.048 C 
ATOM      9  C   UNL     1      34.876 -17.886 -23.765  0.00  0.00    +0.008 C 
ATOM     10  N   UNL     1      32.674 -13.543 -26.930  0.00  0.00    -0.335 N 
ATOM     11  H   UNL     1      32.658 -13.766 -27.888  0.00  0.00    +0.144 HD
ATOM     12  H   UNL     1      32.338 -12.670 -26.621  0.00  0.00    +0.144 HD
ENDROOT
BRANCH   3  14
ATOM     13  O   UNL     1      31.986 -13.150 -22.987  0.00  0.00    -0.289 OA
ATOM     14  C   UNL     1      32.850 -13.128 -23.889  0.00  0.00    +0.200 C 
BRANCH  14  15
ATOM     15  C   UNL     1      33.490 -11.787 -24.087  0.00  0.00    +0.037 C 
ATOM     16  C   UNL     1      34.496 -11.673 -25.014  0.00  0.00    +0.003 C 
ATOM     17  C   UNL     1      33.042 -10.733 -23.330  0.00  0.00    +0.003 C 
ATOM     18  C   UNL     1      35.091 -10.425 -25.197  0.00  0.00    +0.000 C 
ATOM     19  C   UNL     1      33.637  -9.484 -23.513  0.00  0.00    +0.000 C 
ATOM     20  C   UNL     1      34.662  -9.331 -24.447  0.00  0.00    +0.000 C 
ENDBRANCH  14  15
ENDBRANCH   3  14
BRANCH   6  22
ATOM     21  O   UNL     1      35.290 -16.518 -20.450  0.00  0.00    -0.286 OA
ATOM     22  C   UNL     1      34.946 -17.367 -21.274  0.00  0.00    +0.201 C 
BRANCH  22  25
ATOM     23  F   UNL     1      32.469 -18.565 -20.730  0.00  0.00    -0.204 F 
ATOM     24  F   UNL     1      37.188 -19.030 -21.001  0.00  0.00    -0.204 F 
ATOM     25  C   UNL     1      34.829 -18.794 -20.866  0.00  0.00    +0.094 C 
ATOM     26  C   UNL     1      33.576 -19.312 -20.615  0.00  0.00    +0.145 C 
ATOM     27  C   UNL     1      35.978 -19.548 -20.753  0.00  0.00    +0.145 C 
ATOM     28  C   UNL     1      33.467 -20.649 -20.232  0.00  0.00    +0.030 C 
ATOM     29  C   UNL     1      35.867 -20.885 -20.371  0.00  0.00    +0.030 C 
ATOM     30  C   UNL     1      34.612 -21.435 -20.110  0.00  0.00    +0.005 C 
ENDBRANCH  22  25
ENDBRANCH   6  22
TORSDOF 4
ENDMDL
MODEL 2
REMARK VINA RESULT:     -12.7      0.357      1.844
REMARK  Name = 5289179
REMARK  4 active torsions:
REMARK  status: ('A' for Active; 'I' for Inactive)
REMARK    1  A    between atoms: C_3  and  C_14
REMARK    2  A    between atoms: C_6  and  C_22
REMARK    3  A    between atoms: C_14  and  C_15
REMARK    4  A    between atoms: C_22  and  C_25
REMARK                            x       y       z     vdW  Elec       q    Type
REMARK                         _______ _______ _______ _____ _____    ______ ____
ROOT
ATOM      1  N   UNL     1      33.780 -15.714 -24.057  0.00  0.00    -0.249 N 
ATOM      2  N   UNL     1      33.565 -15.981 -26.268  0.00  0.00    -0.375 NA
ATOM      3  C   UNL     1      33.187 -14.571 -24.530  0.00  0.00    +0.208 C 
ATOM      4  C   UNL     1      33.991 -16.545 -25.155  0.00  0.00    +0.189 C 
ATOM      5  C   UNL     1      34.132 -16.054 -22.753  0.00  0.00    +0.071 C 
ATOM      6  C   UNL     1      34.709 -17.248 -22.531  0.00  0.00    +0.054 C 
ATOM      7  C   UNL     1      33.068 -14.760 -25.887  0.00  0.00    +0.182 C 
ATOM      8  C   UNL     1      34.603 -17.807 -24.906  0.00  0.00    +0.048 C 
ATOM      9  C   UNL     1      34.949 -18.148 -23.649  0.00  0.00    +0.008 C 
ATOM     10  N   UNL     1      32.535 -13.887 -26.770  0.00  0.00    -0.335 N 
ATOM     11  H   UNL     1      32.495 -14.117 -27.726  0.00  0.00    +0.144 HD
ATOM     12  H   UNL     1      32.187 -13.021 -26.457  0.00  0.00    +0.144 HD
ENDROOT
BRANCH   3  14
ATOM     13  O   UNL     1      31.974 -13.485 -22.801  0.00  0.00    -0.289 OA
ATOM     14  C   UNL     1      32.797 -13.445 -23.740  0.00  0.00    +0.200 C 
BRANCH  14  15
ATOM     15  C   UNL     1      33.382 -12.085 -23.979  0.00  0.00    +0.037 C 
ATOM     16  C   UNL     1      32.930 -11.037 -23.216  0.00  0.00    +0.003 C 
ATOM     17  C   UNL     1      34.341 -11.950 -24.952  0.00  0.00    +0.003 C 
ATOM     18  C   UNL     1      33.474  -9.772 -23.440  0.00  0.00    +0.000 C 
ATOM     19  C   UNL     1      34.885 -10.685 -25.176  0.00  0.00    +0.000 C 
ATOM     20  C   UNL     1      34.451  -9.596 -24.419  0.00  0.00    +0.000 C 
ENDBRANCH  14  15
ENDBRANCH   3  14
BRANCH   6  22
ATOM     21  O   UNL     1      35.404 -16.742 -20.349  0.00  0.00    -0.286 OA
ATOM     22  C   UNL     1      35.084 -17.609 -21.164  0.00  0.00    +0.201 C 
BRANCH  22  25
ATOM     23  F   UNL     1      37.423 -19.127 -20.864  0.00  0.00    -0.204 F 
ATOM     24  F   UNL     1      32.681 -18.959 -20.642  0.00  0.00    -0.204 F 
ATOM     25  C   UNL     1      35.052 -19.039 -20.755  0.00  0.00    +0.094 C 
ATOM     26  C   UNL     1      36.245 -19.721 -20.628  0.00  0.00    +0.145 C 
ATOM     27  C   UNL     1      33.832 -19.635 -20.515  0.00  0.00    +0.145 C 
ATOM     28  C   UNL     1      36.215 -21.061 -20.244  0.00  0.00    +0.030 C 
ATOM     29  C   UNL     1      33.803 -20.975 -20.132  0.00  0.00    +0.030 C 
ATOM     30  C   UNL     1      34.994 -21.689 -19.997  0.00  0.00    +0.005 C 
ENDBRANCH  22  25
ENDBRANCH   6  22
TORSDOF 4
ENDMDL
MODEL 3
REMARK VINA RESULT:     -11.6      1.297      2.014
REMARK  Name = 5289179
REMARK  4 active torsions:
REMARK  status: ('A' for Active; 'I' for Inactive)
REMARK    1  A    between atoms: C_3  and  C_14
REMARK    2  A    between atoms: C_6  and  C_22
REMARK    3  A    between atoms: C_14  and  C_15
REMARK    4  A    between atoms: C_22  and  C_25
REMARK                            x       y       z     vdW  Elec       q    Type
REMARK                         _______ _______ _______ _____ _____    ______ ____
ROOT
ATOM      1  N   UNL     1      33.946 -15.229 -24.369  0.00  0.00    -0.249 N 
ATOM      2  N   UNL     1      33.461 -15.580 -26.524  0.00  0.00    -0.375 NA
ATOM      3  C   UNL     1      33.645 -14.002 -24.903  0.00  0.00    +0.208 C 
ATOM      4  C   UNL     1      33.820 -16.160 -25.396  0.00  0.00    +0.189 C 
ATOM      5  C   UNL     1      34.313 -15.561 -23.066  0.00  0.00    +0.071 C 
ATOM      6  C   UNL     1      34.562 -16.849 -22.775  0.00  0.00    +0.054 C 
ATOM      7  C   UNL     1      33.353 -14.245 -26.225  0.00  0.00    +0.182 C 
ATOM      8  C   UNL     1      34.086 -17.523 -25.074  0.00  0.00    +0.048 C 
ATOM      9  C   UNL     1      34.442 -17.856 -23.818  0.00  0.00    +0.008 C 
ATOM     10  N   UNL     1      32.998 -13.323 -27.147  0.00  0.00    -0.335 N 
ATOM     11  H   UNL     1      32.807 -13.600 -28.072  0.00  0.00    +0.144 HD
ATOM     12  H   UNL     1      32.929 -12.374 -26.892  0.00  0.00    +0.144 HD
ENDROOT
BRANCH   3  14
ATOM     13  O   UNL     1      34.302 -11.749 -24.540  0.00  0.00    -0.289 OA
ATOM     14  C   UNL     1      33.652 -12.759 -24.197  0.00  0.00    +0.200 C 
BRANCH  14  15
ATOM     15  C   UNL     1      32.834 -12.565 -22.955  0.00  0.00    +0.037 C 
ATOM     16  C   UNL     1      32.877 -13.536 -21.987  0.00  0.00    +0.003 C 
ATOM     17  C   UNL     1      32.079 -11.423 -22.844  0.00  0.00    +0.003 C 
ATOM     18  C   UNL     1      32.115 -13.355 -20.832  0.00  0.00    +0.000 C 
ATOM     19  C   UNL     1      31.318 -11.242 -21.689  0.00  0.00    +0.000 C 
ATOM     20  C   UNL     1      31.336 -12.209 -20.683  0.00  0.00    +0.000 C 
ENDBRANCH  14  15
ENDBRANCH   3  14
BRANCH   6  22
ATOM     21  O   UNL     1      35.310 -16.336 -20.613  0.00  0.00    -0.286 OA
ATOM     22  C   UNL     1      34.950 -17.204 -21.410  0.00  0.00    +0.201 C 
BRANCH  22  25
ATOM     23  F   UNL     1      32.524 -18.449 -20.754  0.00  0.00    -0.204 F 
ATOM     24  F   UNL     1      37.239 -18.811 -21.204  0.00  0.00    -0.204 F 
ATOM     25  C   UNL     1      34.882 -18.626 -20.980  0.00  0.00    +0.094 C 
ATOM     26  C   UNL     1      33.653 -19.170 -20.673  0.00  0.00    +0.145 C 
ATOM     27  C   UNL     1      36.051 -19.353 -20.903  0.00  0.00    +0.145 C 
ATOM     28  C   UNL     1      33.589 -20.503 -20.269  0.00  0.00    +0.030 C 
ATOM     29  C   UNL     1      35.987 -20.686 -20.499  0.00  0.00    +0.030 C 
ATOM     30  C   UNL     1      34.756 -21.262 -20.182  0.00  0.00    +0.005 C 
ENDBRANCH  22  25
ENDBRANCH   6  22
TORSDOF 4
ENDMDL
MODEL 4
REMARK VINA RESULT:     -11.2      7.211     10.686
REMARK  Name = 5289179
REMARK  4 active torsions:
REMARK  status: ('A' for Active; 'I' for Inactive)
REMARK    1  A    between atoms: C_3  and  C_14
REMARK    2  A    between atoms: C_6  and  C_22
REMARK    3  A    between atoms: C_14  and  C_15
REMARK    4  A    between atoms: C_22  and  C_25
REMARK                            x       y       z     vdW  Elec       q    Type
REMARK                         _______ _______ _______ _____ _____    ______ ____
ROOT
ATOM      1  N   UNL     1      34.552 -23.075 -16.196  0.00  0.00    -0.249 N 
ATOM      2  N   UNL     1      36.638 -22.337 -15.867  0.00  0.00    -0.375 NA
ATOM      3  C   UNL     1      35.018 -22.668 -17.421  0.00  0.00    +0.208 C 
ATOM      4  C   UNL     1      35.577 -22.854 -15.280  0.00  0.00    +0.189 C 
ATOM      5  C   UNL     1      33.314 -23.615 -15.855  0.00  0.00    +0.071 C 
ATOM      6  C   UNL     1      33.085 -23.942 -14.572  0.00  0.00    +0.054 C 
ATOM      7  C   UNL     1      36.297 -22.219 -17.191  0.00  0.00    +0.182 C 
ATOM      8  C   UNL     1      35.321 -23.206 -13.923  0.00  0.00    +0.048 C 
ATOM      9  C   UNL     1      34.127 -23.728 -13.580  0.00  0.00    +0.008 C 
ATOM     10  N   UNL     1      37.147 -21.721 -18.116  0.00  0.00    -0.335 N 
ATOM     11  H   UNL     1      38.047 -21.426 -17.849  0.00  0.00    +0.144 HD
ATOM     12  H   UNL     1      36.865 -21.655 -19.057  0.00  0.00    +0.144 HD
ENDROOT
BRANCH   3  14
ATOM     13  O   UNL     1      33.728 -23.736 -19.105  0.00  0.00    -0.289 OA
ATOM     14  C   UNL     1      34.288 -22.716 -18.649  0.00  0.00    +0.200 C 
BRANCH  14  15
ATOM     15  C   UNL     1      34.121 -21.496 -19.505  0.00  0.00    +0.037 C 
ATOM     16  C   UNL     1      32.871 -20.939 -19.610  0.00  0.00    +0.003 C 
ATOM     17  C   UNL     1      35.226 -20.993 -20.146  0.00  0.00    +0.003 C 
ATOM     18  C   UNL     1      32.716 -19.804 -20.407  0.00  0.00    +0.000 C 
ATOM     19  C   UNL     1      35.071 -19.859 -20.943  0.00  0.00    +0.000 C 
ATOM     20  C   UNL     1      33.815 -19.264 -21.073  0.00  0.00    +0.000 C 
ENDBRANCH  14  15
ENDBRANCH   3  14
BRANCH   6  22
ATOM     21  O   UNL     1      31.693 -25.339 -13.303  0.00  0.00    -0.286 OA
ATOM     22  C   UNL     1      31.786 -24.507 -14.207  0.00  0.00    +0.201 C 
BRANCH  22  25
ATOM     23  F   UNL     1      30.942 -21.833 -14.149  0.00  0.00    -0.204 F 
ATOM     24  F   UNL     1      30.182 -26.258 -15.700  0.00  0.00    -0.204 F 
ATOM     25  C   UNL     1      30.565 -24.047 -14.922  0.00  0.00    +0.094 C 
ATOM     26  C   UNL     1      30.213 -22.716 -14.847  0.00  0.00    +0.145 C 
ATOM     27  C   UNL     1      29.827 -24.968 -15.636  0.00  0.00    +0.145 C 
ATOM     28  C   UNL     1      29.068 -22.285 -15.517  0.00  0.00    +0.030 C 
ATOM     29  C   UNL     1      28.683 -24.536 -16.305  0.00  0.00    +0.030 C 
ATOM     30  C   UNL     1      28.303 -23.195 -16.246  0.00  0.00    +0.005 C 
ENDBRANCH  22  25
ENDBRANCH   6  22
TORSDOF 4
ENDMDL
MODEL 5
REMARK VINA RESULT:     -11.0      2.538      7.888
REMARK  Name = 5289179
REMARK  4 active torsions:
REMARK  status: ('A' for Active; 'I' for Inactive)
REMARK    1  A    between atoms: C_3  and  C_14
REMARK    2  A    between atoms: C_6  and  C_22
REMARK    3  A    between atoms: C_14  and  C_15
REMARK    4  A    between atoms: C_22  and  C_25
REMARK                            x       y       z     vdW  Elec       q    Type
REMARK                         _______ _______ _______ _____ _____    ______ ____
ROOT
ATOM      1  N   UNL     1      33.990 -15.969 -23.106  0.00  0.00    -0.249 N 
ATOM      2  N   UNL     1      34.418 -17.051 -25.016  0.00  0.00    -0.375 NA
ATOM      3  C   UNL     1      34.619 -17.137 -22.757  0.00  0.00    +0.208 C 
ATOM      4  C   UNL     1      33.890 -15.962 -24.495  0.00  0.00    +0.189 C 
ATOM      5  C   UNL     1      33.514 -14.943 -22.292  0.00  0.00    +0.071 C 
ATOM      6  C   UNL     1      32.925 -13.882 -22.870  0.00  0.00    +0.054 C 
ATOM      7  C   UNL     1      34.869 -17.781 -23.946  0.00  0.00    +0.182 C 
ATOM      8  C   UNL     1      33.263 -14.831 -25.095  0.00  0.00    +0.048 C 
ATOM      9  C   UNL     1      32.800 -13.832 -24.319  0.00  0.00    +0.008 C 
ATOM     10  N   UNL     1      35.480 -18.978 -24.092  0.00  0.00    -0.335 N 
ATOM     11  H   UNL     1      35.614 -19.356 -24.990  0.00  0.00    +0.144 HD
ATOM     12  H   UNL     1      35.792 -19.471 -23.298  0.00  0.00    +0.144 HD
ENDROOT
BRANCH   3  14
ATOM     13  O   UNL     1      35.510 -16.850 -20.574  0.00  0.00    -0.289 OA
ATOM     14  C   UNL     1      34.925 -17.555 -21.425  0.00  0.00    +0.200 C 
BRANCH  14  15
ATOM     15  C   UNL     1      34.537 -18.914 -20.926  0.00  0.00    +0.037 C 
ATOM     16  C   UNL     1      33.202 -19.211 -20.810  0.00  0.00    +0.003 C 
ATOM     17  C   UNL     1      35.536 -19.800 -20.605  0.00  0.00    +0.003 C 
ATOM     18  C   UNL     1      32.842 -20.476 -20.345  0.00  0.00    +0.000 C 
ATOM     19  C   UNL     1      35.176 -21.065 -20.140  0.00  0.00    +0.000 C 
ATOM     20  C   UNL     1      33.828 -21.403 -20.010  0.00  0.00    +0.000 C 
ENDBRANCH  14  15
ENDBRANCH   3  14
BRANCH   6  22
ATOM     21  O   UNL     1      32.111 -13.017 -20.848  0.00  0.00    -0.286 OA
ATOM     22  C   UNL     1      32.422 -12.802 -22.021  0.00  0.00    +0.201 C 
BRANCH  22  25
ATOM     23  F   UNL     1      30.198 -11.167 -21.527  0.00  0.00    -0.204 F 
ATOM     24  F   UNL     1      34.424 -11.681 -23.634  0.00  0.00    -0.204 F 
ATOM     25  C   UNL     1      32.311 -11.428 -22.580  0.00  0.00    +0.094 C 
ATOM     26  C   UNL     1      31.186 -10.683 -22.294  0.00  0.00    +0.145 C 
ATOM     27  C   UNL     1      33.337 -10.945 -23.365  0.00  0.00    +0.145 C 
ATOM     28  C   UNL     1      31.082  -9.395 -22.817  0.00  0.00    +0.030 C 
ATOM     29  C   UNL     1      33.231  -9.657 -23.888  0.00  0.00    +0.030 C 
ATOM     30  C   UNL     1      32.104  -8.882 -23.615  0.00  0.00    +0.005 C 
ENDBRANCH  22  25
ENDBRANCH   6  22
TORSDOF 4
ENDMDL
MODEL 6
REMARK VINA RESULT:     -11.0      7.146     11.570
REMARK  Name = 5289179
REMARK  4 active torsions:
REMARK  status: ('A' for Active; 'I' for Inactive)
REMARK    1  A    between atoms: C_3  and  C_14
REMARK    2  A    between atoms: C_6  and  C_22
REMARK    3  A    between atoms: C_14  and  C_15
REMARK    4  A    between atoms: C_22  and  C_25
REMARK                            x       y       z     vdW  Elec       q    Type
REMARK                         _______ _______ _______ _____ _____    ______ ____
ROOT
ATOM      1  N   UNL     1      34.570 -23.363 -15.484  0.00  0.00    -0.249 N 
ATOM      2  N   UNL     1      36.012 -23.036 -13.806  0.00  0.00    -0.375 NA
ATOM      3  C   UNL     1      33.995 -23.911 -14.367  0.00  0.00    +0.208 C 
ATOM      4  C   UNL     1      35.800 -22.841 -15.092  0.00  0.00    +0.189 C 
ATOM      5  C   UNL     1      34.085 -23.300 -16.789  0.00  0.00    +0.071 C 
ATOM      6  C   UNL     1      34.839 -22.705 -17.729  0.00  0.00    +0.054 C 
ATOM      7  C   UNL     1      34.899 -23.698 -13.353  0.00  0.00    +0.182 C 
ATOM      8  C   UNL     1      36.589 -22.212 -16.098  0.00  0.00    +0.048 C 
ATOM      9  C   UNL     1      36.132 -22.145 -17.364  0.00  0.00    +0.008 C 
ATOM     10  N   UNL     1      34.753 -24.071 -12.062  0.00  0.00    -0.335 N 
ATOM     11  H   UNL     1      35.461 -23.869 -11.409  0.00  0.00    +0.144 HD
ATOM     12  H   UNL     1      33.938 -24.543 -11.775  0.00  0.00    +0.144 HD
ENDROOT
BRANCH   3  14
ATOM     13  O   UNL     1      32.517 -25.687 -13.817  0.00  0.00    -0.289 OA
ATOM     14  C   UNL     1      32.722 -24.560 -14.316  0.00  0.00    +0.200 C 
BRANCH  14  15
ATOM     15  C   UNL     1      31.490 -23.904 -14.863  0.00  0.00    +0.037 C 
ATOM     16  C   UNL     1      30.678 -24.631 -15.697  0.00  0.00    +0.003 C 
ATOM     17  C   UNL     1      31.231 -22.603 -14.506  0.00  0.00    +0.003 C 
ATOM     18  C   UNL     1      29.532 -24.019 -16.206  0.00  0.00    +0.000 C 
ATOM     19  C   UNL     1      30.085 -21.991 -15.015  0.00  0.00    +0.000 C 
ATOM     20  C   UNL     1      29.236 -22.700 -15.865  0.00  0.00    +0.000 C 
ENDBRANCH  14  15
ENDBRANCH   3  14
BRANCH   6  22
ATOM     21  O   UNL     1      33.882 -23.640 -19.654  0.00  0.00    -0.286 OA
ATOM     22  C   UNL     1      34.337 -22.638 -19.101  0.00  0.00    +0.201 C 
BRANCH  22  25
ATOM     23  F   UNL     1      32.079 -20.980 -19.245  0.00  0.00    -0.204 F 
ATOM     24  F   UNL     1      36.633 -21.684 -20.400  0.00  0.00    -0.204 F 
ATOM     25  C   UNL     1      34.356 -21.336 -19.821  0.00  0.00    +0.094 C 
ATOM     26  C   UNL     1      33.206 -20.575 -19.849  0.00  0.00    +0.145 C 
ATOM     27  C   UNL     1      35.523 -20.934 -20.436  0.00  0.00    +0.145 C 
ATOM     28  C   UNL     1      33.224 -19.355 -20.524  0.00  0.00    +0.030 C 
ATOM     29  C   UNL     1      35.540 -19.713 -21.111  0.00  0.00    +0.030 C 
ATOM     30  C   UNL     1      34.391 -18.924 -21.155  0.00  0.00    +0.005 C 
ENDBRANCH  22  25
ENDBRANCH   6  22
TORSDOF 4
ENDMDL
MODEL 7
REMARK VINA RESULT:     -10.8      1.908      3.071
REMARK  Name = 5289179
REMARK  4 active torsions:
REMARK  status: ('A' for Active; 'I' for Inactive)
REMARK    1  A    between atoms: C_3  and  C_14
REMARK    2  A    between atoms: C_6  and  C_22
REMARK    3  A    between atoms: C_14  and  C_15
REMARK    4  A    between atoms: C_22  and  C_25
REMARK                            x       y       z     vdW  Elec       q    Type
REMARK                         _______ _______ _______ _____ _____    ______ ____
ROOT
ATOM      1  N   UNL     1      33.194 -14.565 -22.525  0.00  0.00    -0.249 N 
ATOM      2  N   UNL     1      32.227 -13.169 -21.070  0.00  0.00    -0.375 NA
ATOM      3  C   UNL     1      32.808 -13.463 -23.243  0.00  0.00    +0.208 C 
ATOM      4  C   UNL     1      32.818 -14.340 -21.204  0.00  0.00    +0.189 C 
ATOM      5  C   UNL     1      33.838 -15.722 -22.958  0.00  0.00    +0.071 C 
ATOM      6  C   UNL     1      34.117 -16.680 -22.058  0.00  0.00    +0.054 C 
ATOM      7  C   UNL     1      32.218 -12.623 -22.328  0.00  0.00    +0.182 C 
ATOM      8  C   UNL     1      33.120 -15.363 -20.259  0.00  0.00    +0.048 C 
ATOM      9  C   UNL     1      33.743 -16.487 -20.665  0.00  0.00    +0.008 C 
ATOM     10  N   UNL     1      31.686 -11.408 -22.586  0.00  0.00    -0.335 N 
ATOM     11  H   UNL     1      31.285 -10.881 -21.858  0.00  0.00    +0.144 HD
ATOM     12  H   UNL     1      31.700 -11.049 -23.503  0.00  0.00    +0.144 HD
ENDROOT
BRANCH   3  14
ATOM     13  O   UNL     1      32.442 -13.948 -25.539  0.00  0.00    -0.289 OA
ATOM     14  C   UNL     1      32.998 -13.272 -24.648  0.00  0.00    +0.200 C 
BRANCH  14  15
ATOM     15  C   UNL     1      33.899 -12.195 -25.173  0.00  0.00    +0.037 C 
ATOM     16  C   UNL     1      34.302 -12.263 -26.484  0.00  0.00    +0.003 C 
ATOM     17  C   UNL     1      34.282 -11.191 -24.319  0.00  0.00    +0.003 C 
ATOM     18  C   UNL     1      35.141 -11.261 -26.971  0.00  0.00    +0.000 C 
ATOM     19  C   UNL     1      35.122 -10.189 -24.806  0.00  0.00    +0.000 C 
ATOM     20  C   UNL     1      35.551 -10.225 -26.134  0.00  0.00    +0.000 C 
ENDBRANCH  14  15
ENDBRANCH   3  14
BRANCH   6  22
ATOM     21  O   UNL     1      35.169 -18.015 -23.673  0.00  0.00    -0.286 OA
ATOM     22  C   UNL     1      34.792 -17.898 -22.506  0.00  0.00    +0.201 C 
BRANCH  22  25
ATOM     23  F   UNL     1      37.366 -18.498 -21.569  0.00  0.00    -0.204 F 
ATOM     24  F   UNL     1      32.722 -19.493 -21.486  0.00  0.00    -0.204 F 
ATOM     25  C   UNL     1      35.043 -18.993 -21.531  0.00  0.00    +0.094 C 
ATOM     26  C   UNL     1      36.338 -19.229 -21.116  0.00  0.00    +0.145 C 
ATOM     27  C   UNL     1      33.975 -19.734 -21.074  0.00  0.00    +0.145 C 
ATOM     28  C   UNL     1      36.573 -20.255 -20.202  0.00  0.00    +0.030 C 
ATOM     29  C   UNL     1      34.212 -20.761 -20.160  0.00  0.00    +0.030 C 
ATOM     30  C   UNL     1      35.511 -21.022 -19.724  0.00  0.00    +0.005 C 
ENDBRANCH  22  25
ENDBRANCH   6  22
TORSDOF 4
ENDMDL
MODEL 8
REMARK VINA RESULT:     -10.8      2.557      7.504
REMARK  Name = 5289179
REMARK  4 active torsions:
REMARK  status: ('A' for Active; 'I' for Inactive)
REMARK    1  A    between atoms: C_3  and  C_14
REMARK    2  A    between atoms: C_6  and  C_22
REMARK    3  A    between atoms: C_14  and  C_15
REMARK    4  A    between atoms: C_22  and  C_25
REMARK                            x       y       z     vdW  Elec       q    Type
REMARK                         _______ _______ _______ _____ _____    ______ ____
ROOT
ATOM      1  N   UNL     1      34.577 -17.019 -23.601  0.00  0.00    -0.249 N 
ATOM      2  N   UNL     1      34.170 -18.069 -25.533  0.00  0.00    -0.375 NA
ATOM      3  C   UNL     1      35.039 -18.301 -23.450  0.00  0.00    +0.208 C 
ATOM      4  C   UNL     1      34.056 -16.925 -24.889  0.00  0.00    +0.189 C 
ATOM      5  C   UNL     1      34.591 -15.961 -22.695  0.00  0.00    +0.071 C 
ATOM      6  C   UNL     1      34.074 -14.779 -23.075  0.00  0.00    +0.054 C 
ATOM      7  C   UNL     1      34.776 -18.924 -24.647  0.00  0.00    +0.182 C 
ATOM      8  C   UNL     1      33.512 -15.667 -25.279  0.00  0.00    +0.048 C 
ATOM      9  C   UNL     1      33.519 -14.636 -24.412  0.00  0.00    +0.008 C 
ATOM     10  N   UNL     1      35.062 -20.208 -24.959  0.00  0.00    -0.335 N 
ATOM     11  H   UNL     1      34.833 -20.560 -25.849  0.00  0.00    +0.144 HD
ATOM     12  H   UNL     1      35.500 -20.789 -24.296  0.00  0.00    +0.144 HD
ENDROOT
BRANCH   3  14
ATOM     13  O   UNL     1      36.842 -18.643 -21.943  0.00  0.00    -0.289 OA
ATOM     14  C   UNL     1      35.653 -18.834 -22.274  0.00  0.00    +0.200 C 
BRANCH  14  15
ATOM     15  C   UNL     1      34.881 -19.681 -21.307  0.00  0.00    +0.037 C 
ATOM     16  C   UNL     1      35.568 -20.589 -20.540  0.00  0.00    +0.003 C 
ATOM     17  C   UNL     1      33.520 -19.512 -21.234  0.00  0.00    +0.003 C 
ATOM     18  C   UNL     1      34.849 -21.377 -19.641  0.00  0.00    +0.000 C 
ATOM     19  C   UNL     1      32.801 -20.300 -20.335  0.00  0.00    +0.000 C 
ATOM     20  C   UNL     1      33.467 -21.233 -19.539  0.00  0.00    +0.000 C 
ENDBRANCH  14  15
ENDBRANCH   3  14
BRANCH   6  22
ATOM     21  O   UNL     1      34.922 -13.613 -21.226  0.00  0.00    -0.286 OA
ATOM     22  C   UNL     1      34.083 -13.665 -22.127  0.00  0.00    +0.201 C 
BRANCH  22  25
ATOM     23  F   UNL     1      31.792 -13.519 -20.516  0.00  0.00    -0.204 F 
ATOM     24  F   UNL     1      34.365 -11.626 -24.032  0.00  0.00    -0.204 F 
ATOM     25  C   UNL     1      33.081 -12.576 -22.274  0.00  0.00    +0.094 C 
ATOM     26  C   UNL     1      31.979 -12.571 -21.446  0.00  0.00    +0.145 C 
ATOM     27  C   UNL     1      33.288 -11.608 -23.234  0.00  0.00    +0.145 C 
ATOM     28  C   UNL     1      31.039 -11.549 -21.584  0.00  0.00    +0.030 C 
ATOM     29  C   UNL     1      32.348 -10.587 -23.372  0.00  0.00    +0.030 C 
ATOM     30  C   UNL     1      31.223 -10.558 -22.547  0.00  0.00    +0.005 C 
ENDBRANCH  22  25
ENDBRANCH   6  22
TORSDOF 4
ENDMDL
MODEL 9
REMARK VINA RESULT:     -10.6      3.917      6.289
REMARK  Name = 5289179
REMARK  4 active torsions:
REMARK  status: ('A' for Active; 'I' for Inactive)
REMARK    1  A    between atoms: C_3  and  C_14
REMARK    2  A    between atoms: C_6  and  C_22
REMARK    3  A    between atoms: C_14  and  C_15
REMARK    4  A    between atoms: C_22  and  C_25
REMARK                            x       y       z     vdW  Elec       q    Type
REMARK                         _______ _______ _______ _____ _____    ______ ____
ROOT
ATOM      1  N   UNL     1      32.738 -10.052 -22.493  0.00  0.00    -0.249 N 
ATOM      2  N   UNL     1      31.565  -9.661 -20.629  0.00  0.00    -0.375 NA
ATOM      3  C   UNL     1      32.922  -8.727 -22.189  0.00  0.00    +0.208 C 
ATOM      4  C   UNL     1      31.903 -10.579 -21.512  0.00  0.00    +0.189 C 
ATOM      5  C   UNL     1      33.251 -10.796 -23.553  0.00  0.00    +0.071 C 
ATOM      6  C   UNL     1      32.926 -12.097 -23.644  0.00  0.00    +0.054 C 
ATOM      7  C   UNL     1      32.192  -8.513 -21.044  0.00  0.00    +0.182 C 
ATOM      8  C   UNL     1      31.566 -11.960 -21.619  0.00  0.00    +0.048 C 
ATOM      9  C   UNL     1      32.055 -12.691 -22.640  0.00  0.00    +0.008 C 
ATOM     10  N   UNL     1      32.079  -7.344 -20.375  0.00  0.00    -0.335 N 
ATOM     11  H   UNL     1      31.530  -7.294 -19.560  0.00  0.00    +0.144 HD
ATOM     12  H   UNL     1      32.547  -6.542 -20.704  0.00  0.00    +0.144 HD
ENDROOT
BRANCH   3  14
ATOM     13  O   UNL     1      34.961  -7.740 -22.904  0.00  0.00    -0.289 OA
ATOM     14  C   UNL     1      33.714  -7.801 -22.938  0.00  0.00    +0.200 C 
BRANCH  14  15
ATOM     15  C   UNL     1      33.081  -6.808 -23.866  0.00  0.00    +0.037 C 
ATOM     16  C   UNL     1      31.782  -6.432 -23.633  0.00  0.00    +0.003 C 
ATOM     17  C   UNL     1      33.830  -6.322 -24.909  0.00  0.00    +0.003 C 
ATOM     18  C   UNL     1      31.194  -5.508 -24.498  0.00  0.00    +0.000 C 
ATOM     19  C   UNL     1      33.242  -5.398 -25.774  0.00  0.00    +0.000 C 
ATOM     20  C   UNL     1      31.923  -4.992 -25.568  0.00  0.00    +0.000 C 
ENDBRANCH  14  15
ENDBRANCH   3  14
BRANCH   6  22
ATOM     21  O   UNL     1      33.624 -12.373 -25.865  0.00  0.00    -0.286 OA
ATOM     22  C   UNL     1      33.459 -12.884 -24.756  0.00  0.00    +0.201 C 
BRANCH  22  25
ATOM     23  F   UNL     1      32.831 -14.895 -26.606  0.00  0.00    -0.204 F 
ATOM     24  F   UNL     1      34.823 -13.728 -22.455  0.00  0.00    -0.204 F 
ATOM     25  C   UNL     1      33.826 -14.308 -24.531  0.00  0.00    +0.094 C 
ATOM     26  C   UNL     1      33.483 -15.241 -25.486  0.00  0.00    +0.145 C 
ATOM     27  C   UNL     1      34.496 -14.646 -23.374  0.00  0.00    +0.145 C 
ATOM     28  C   UNL     1      33.827 -16.576 -25.275  0.00  0.00    +0.030 C 
ATOM     29  C   UNL     1      34.839 -15.982 -23.164  0.00  0.00    +0.030 C 
ATOM     30  C   UNL     1      34.504 -16.947 -24.114  0.00  0.00    +0.005 C 
ENDBRANCH  22  25
ENDBRANCH   6  22
TORSDOF 4
ENDMDL
