MODEL 1
REMARK VINA RESULT:      -7.7      0.000      0.000
REMARK  Name = 657144
REMARK  8 active torsions:
REMARK  status: ('A' for Active; 'I' for Inactive)
REMARK    1  A    between atoms: C_1  and  N_3
REMARK    2  A    between atoms: C_1  and  C_11
REMARK    3  A    between atoms: C_1  and  C_18
REMARK    4  A    between atoms: C_4  and  C_6
REMARK    5  A    between atoms: C_6  and  C_8
REMARK    6  A    between atoms: C_8  and  O_9
REMARK    7  A    between atoms: C_11  and  C_12
REMARK    8  A    between atoms: C_18  and  S_19
REMARK                            x       y       z     vdW  Elec       q    Type
REMARK                         _______ _______ _______ _____ _____    ______ ____
ROOT
ATOM      1  C   UNL     1      36.080 -24.133 -15.209  0.00  0.00    +0.086 C 
ENDROOT
BRANCH   1   3
ATOM      2  O   UNL     1      37.622 -26.549 -15.342  0.00  0.00    -0.274 OA
ATOM      3  N   UNL     1      37.341 -24.384 -14.554  0.00  0.00    -0.304 N 
ATOM      4  C   UNL     1      38.011 -25.591 -14.681  0.00  0.00    +0.234 C 
ATOM      5  H   UNL     1      37.740 -23.675 -13.998  0.00  0.00    +0.149 HD
BRANCH   4   6
ATOM      6  C   UNL     1      39.296 -25.613 -13.883  0.00  0.00    +0.194 C 
BRANCH   6   8
ATOM      7  O   UNL     1      41.380 -26.816 -14.069  0.00  0.00    -0.250 OA
ATOM      8  C   UNL     1      40.482 -26.186 -14.611  0.00  0.00    +0.323 C 
BRANCH   8   9
ATOM      9  O   UNL     1      40.455 -25.917 -15.941  0.00  0.00    -0.480 OA
ATOM     10  H   UNL     1      41.221 -26.060 -16.463  0.00  0.00    +0.295 HD
ENDBRANCH   8   9
ENDBRANCH   6   8
ENDBRANCH   4   6
ENDBRANCH   1   3
BRANCH   1  11
ATOM     11  C   UNL     1      35.917 -22.631 -15.512  0.00  0.00    +0.047 C 
BRANCH  11  12
ATOM     12  C   UNL     1      35.687 -22.343 -16.977  0.00  0.00    -0.021 C 
ATOM     13  C   UNL     1      36.686 -21.726 -17.712  0.00  0.00    -0.004 C 
ATOM     14  C   UNL     1      34.482 -22.704 -17.559  0.00  0.00    -0.004 C 
ATOM     15  C   UNL     1      36.474 -21.461 -19.065  0.00  0.00    -0.000 C 
ATOM     16  C   UNL     1      34.270 -22.439 -18.911  0.00  0.00    -0.000 C 
ATOM     17  C   UNL     1      35.265 -21.818 -19.665  0.00  0.00    -0.000 C 
ENDBRANCH  11  12
ENDBRANCH   1  11
BRANCH   1  18
ATOM     18  C   UNL     1      34.914 -24.621 -14.340  0.00  0.00    +0.073 C 
BRANCH  18  19
ATOM     19  S   UNL     1      35.119 -24.164 -12.589  0.00  0.00    -0.166 S 
ATOM     20  H   UNL     1      36.440 -24.003 -12.314  0.00  0.00    +0.102 HD
ENDBRANCH  18  19
ENDBRANCH   1  18
TORSDOF 8
ENDMDL
MODEL 2
REMARK VINA RESULT:      -7.7      8.664     11.022
REMARK  Name = 657144
REMARK  8 active torsions:
REMARK  status: ('A' for Active; 'I' for Inactive)
REMARK    1  A    between atoms: C_1  and  N_3
REMARK    2  A    between atoms: C_1  and  C_11
REMARK    3  A    between atoms: C_1  and  C_18
REMARK    4  A    between atoms: C_4  and  C_6
REMARK    5  A    between atoms: C_6  and  C_8
REMARK    6  A    between atoms: C_8  and  O_9
REMARK    7  A    between atoms: C_11  and  C_12
REMARK    8  A    between atoms: C_18  and  S_19
REMARK                            x       y       z     vdW  Elec       q    Type
REMARK                         _______ _______ _______ _____ _____    ______ ____
ROOT
ATOM      1  C   UNL     1      34.709 -18.119 -22.530  0.00  0.00    +0.086 C 
ENDROOT
BRANCH   1   3
ATOM      2  O   UNL     1      33.189 -16.205 -21.027  0.00  0.00    -0.274 OA
ATOM      3  N   UNL     1      34.825 -16.682 -22.603  0.00  0.00    -0.304 N 
ATOM      4  C   UNL     1      34.040 -15.838 -21.832  0.00  0.00    +0.234 C 
ATOM      5  H   UNL     1      35.481 -16.287 -23.222  0.00  0.00    +0.149 HD
BRANCH   4   6
ATOM      6  C   UNL     1      34.335 -14.380 -22.106  0.00  0.00    +0.194 C 
BRANCH   6   8
ATOM      7  O   UNL     1      33.143 -14.529 -24.199  0.00  0.00    -0.250 OA
ATOM      8  C   UNL     1      33.828 -13.871 -23.428  0.00  0.00    +0.323 C 
BRANCH   8   9
ATOM      9  O   UNL     1      34.224 -12.598 -23.681  0.00  0.00    -0.480 OA
ATOM     10  H   UNL     1      35.068 -12.305 -23.397  0.00  0.00    +0.295 HD
ENDBRANCH   8   9
ENDBRANCH   6   8
ENDBRANCH   4   6
ENDBRANCH   1   3
BRANCH   1  11
ATOM     11  C   UNL     1      35.704 -18.690 -21.502  0.00  0.00    +0.047 C 
BRANCH  11  12
ATOM     12  C   UNL     1      35.140 -19.846 -20.709  0.00  0.00    -0.021 C 
ATOM     13  C   UNL     1      36.007 -20.734 -20.095  0.00  0.00    -0.004 C 
ATOM     14  C   UNL     1      33.766 -19.993 -20.609  0.00  0.00    -0.004 C 
ATOM     15  C   UNL     1      35.486 -21.801 -19.363  0.00  0.00    -0.000 C 
ATOM     16  C   UNL     1      33.245 -21.059 -19.876  0.00  0.00    -0.000 C 
ATOM     17  C   UNL     1      34.105 -21.963 -19.253  0.00  0.00    -0.000 C 
ENDBRANCH  11  12
ENDBRANCH   1  11
BRANCH   1  18
ATOM     18  C   UNL     1      34.955 -18.752 -23.905  0.00  0.00    +0.073 C 
BRANCH  18  19
ATOM     19  S   UNL     1      34.482 -17.643 -25.271  0.00  0.00    -0.166 S 
ATOM     20  H   UNL     1      33.237 -17.147 -25.042  0.00  0.00    +0.102 HD
ENDBRANCH  18  19
ENDBRANCH   1  18
TORSDOF 8
ENDMDL
MODEL 3
REMARK VINA RESULT:      -7.7      8.648     11.049
REMARK  Name = 657144
REMARK  8 active torsions:
REMARK  status: ('A' for Active; 'I' for Inactive)
REMARK    1  A    between atoms: C_1  and  N_3
REMARK    2  A    between atoms: C_1  and  C_11
REMARK    3  A    between atoms: C_1  and  C_18
REMARK    4  A    between atoms: C_4  and  C_6
REMARK    5  A    between atoms: C_6  and  C_8
REMARK    6  A    between atoms: C_8  and  O_9
REMARK    7  A    between atoms: C_11  and  C_12
REMARK    8  A    between atoms: C_18  and  S_19
REMARK                            x       y       z     vdW  Elec       q    Type
REMARK                         _______ _______ _______ _____ _____    ______ ____
ROOT
ATOM      1  C   UNL     1      34.726 -18.128 -22.525  0.00  0.00    +0.086 C 
ENDROOT
BRANCH   1   3
ATOM      2  O   UNL     1      33.214 -16.223 -21.002  0.00  0.00    -0.274 OA
ATOM      3  N   UNL     1      34.837 -16.690 -22.595  0.00  0.00    -0.304 N 
ATOM      4  C   UNL     1      34.057 -15.852 -21.814  0.00  0.00    +0.234 C 
ATOM      5  H   UNL     1      35.487 -16.291 -23.218  0.00  0.00    +0.149 HD
BRANCH   4   6
ATOM      6  C   UNL     1      34.344 -14.392 -22.086  0.00  0.00    +0.194 C 
BRANCH   6   8
ATOM      7  O   UNL     1      33.150 -14.541 -24.178  0.00  0.00    -0.250 OA
ATOM      8  C   UNL     1      33.845 -13.886 -23.412  0.00  0.00    +0.323 C 
BRANCH   8   9
ATOM      9  O   UNL     1      34.260 -12.622 -23.676  0.00  0.00    -0.480 OA
ATOM     10  H   UNL     1      34.839 -12.185 -23.081  0.00  0.00    +0.295 HD
ENDBRANCH   8   9
ENDBRANCH   6   8
ENDBRANCH   4   6
ENDBRANCH   1   3
BRANCH   1  11
ATOM     11  C   UNL     1      35.726 -18.698 -21.501  0.00  0.00    +0.047 C 
BRANCH  11  12
ATOM     12  C   UNL     1      35.162 -19.847 -20.698  0.00  0.00    -0.021 C 
ATOM     13  C   UNL     1      33.789 -19.998 -20.602  0.00  0.00    -0.004 C 
ATOM     14  C   UNL     1      36.030 -20.729 -20.075  0.00  0.00    -0.004 C 
ATOM     15  C   UNL     1      33.269 -21.058 -19.860  0.00  0.00    -0.000 C 
ATOM     16  C   UNL     1      35.510 -21.790 -19.334  0.00  0.00    -0.000 C 
ATOM     17  C   UNL     1      34.130 -21.955 -19.226  0.00  0.00    -0.000 C 
ENDBRANCH  11  12
ENDBRANCH   1  11
BRANCH   1  18
ATOM     18  C   UNL     1      34.972 -18.756 -23.903  0.00  0.00    +0.073 C 
BRANCH  18  19
ATOM     19  S   UNL     1      34.487 -17.647 -25.264  0.00  0.00    -0.166 S 
ATOM     20  H   UNL     1      34.746 -16.359 -24.913  0.00  0.00    +0.102 HD
ENDBRANCH  18  19
ENDBRANCH   1  18
TORSDOF 8
ENDMDL
MODEL 4
REMARK VINA RESULT:      -7.7      5.286      7.081
REMARK  Name = 657144
REMARK  8 active torsions:
REMARK  status: ('A' for Active; 'I' for Inactive)
REMARK    1  A    between atoms: C_1  and  N_3
REMARK    2  A    between atoms: C_1  and  C_11
REMARK    3  A    between atoms: C_1  and  C_18
REMARK    4  A    between atoms: C_4  and  C_6
REMARK    5  A    between atoms: C_6  and  C_8
REMARK    6  A    between atoms: C_8  and  O_9
REMARK    7  A    between atoms: C_11  and  C_12
REMARK    8  A    between atoms: C_18  and  S_19
REMARK                            x       y       z     vdW  Elec       q    Type
REMARK                         _______ _______ _______ _____ _____    ______ ____
ROOT
ATOM      1  C   UNL     1      33.061 -23.026 -16.820  0.00  0.00    +0.086 C 
ENDROOT
BRANCH   1   3
ATOM      2  O   UNL     1      31.044 -22.446 -14.862  0.00  0.00    -0.274 OA
ATOM      3  N   UNL     1      31.731 -23.584 -16.765  0.00  0.00    -0.304 N 
ATOM      4  C   UNL     1      30.826 -23.239 -15.774  0.00  0.00    +0.234 C 
ATOM      5  H   UNL     1      31.457 -24.232 -17.454  0.00  0.00    +0.149 HD
BRANCH   4   6
ATOM      6  C   UNL     1      29.513 -23.974 -15.923  0.00  0.00    +0.194 C 
BRANCH   6   8
ATOM      7  O   UNL     1      27.655 -23.945 -17.464  0.00  0.00    -0.250 OA
ATOM      8  C   UNL     1      28.534 -23.334 -16.871  0.00  0.00    +0.323 C 
BRANCH   8   9
ATOM      9  O   UNL     1      28.741 -22.001 -17.009  0.00  0.00    -0.480 OA
ATOM     10  H   UNL     1      28.078 -21.462 -17.395  0.00  0.00    +0.295 HD
ENDBRANCH   8   9
ENDBRANCH   6   8
ENDBRANCH   4   6
ENDBRANCH   1   3
BRANCH   1  11
ATOM     11  C   UNL     1      33.736 -23.366 -18.162  0.00  0.00    +0.047 C 
BRANCH  11  12
ATOM     12  C   UNL     1      33.977 -22.153 -19.030  0.00  0.00    -0.021 C 
ATOM     13  C   UNL     1      35.273 -21.818 -19.383  0.00  0.00    -0.004 C 
ATOM     14  C   UNL     1      32.895 -21.400 -19.458  0.00  0.00    -0.004 C 
ATOM     15  C   UNL     1      35.496 -20.698 -20.184  0.00  0.00    -0.000 C 
ATOM     16  C   UNL     1      33.118 -20.280 -20.259  0.00  0.00    -0.000 C 
ATOM     17  C   UNL     1      34.417 -19.929 -20.623  0.00  0.00    -0.000 C 
ENDBRANCH  11  12
ENDBRANCH   1  11
BRANCH   1  18
ATOM     18  C   UNL     1      33.915 -23.548 -15.657  0.00  0.00    +0.073 C 
BRANCH  18  19
ATOM     19  S   UNL     1      35.607 -22.875 -15.687  0.00  0.00    -0.166 S 
ATOM     20  H   UNL     1      35.572 -21.545 -15.407  0.00  0.00    +0.102 HD
ENDBRANCH  18  19
ENDBRANCH   1  18
TORSDOF 8
ENDMDL
MODEL 5
REMARK VINA RESULT:      -7.5      8.328     10.768
REMARK  Name = 657144
REMARK  8 active torsions:
REMARK  status: ('A' for Active; 'I' for Inactive)
REMARK    1  A    between atoms: C_1  and  N_3
REMARK    2  A    between atoms: C_1  and  C_11
REMARK    3  A    between atoms: C_1  and  C_18
REMARK    4  A    between atoms: C_4  and  C_6
REMARK    5  A    between atoms: C_6  and  C_8
REMARK    6  A    between atoms: C_8  and  O_9
REMARK    7  A    between atoms: C_11  and  C_12
REMARK    8  A    between atoms: C_18  and  S_19
REMARK                            x       y       z     vdW  Elec       q    Type
REMARK                         _______ _______ _______ _____ _____    ______ ____
ROOT
ATOM      1  C   UNL     1      34.924 -17.517 -21.657  0.00  0.00    +0.086 C 
ENDROOT
BRANCH   1   3
ATOM      2  O   UNL     1      35.067 -18.923 -24.155  0.00  0.00    -0.274 OA
ATOM      3  N   UNL     1      34.845 -16.935 -22.976  0.00  0.00    -0.304 N 
ATOM      4  C   UNL     1      34.926 -17.704 -24.127  0.00  0.00    +0.234 C 
ATOM      5  H   UNL     1      34.731 -15.961 -23.062  0.00  0.00    +0.149 HD
BRANCH   4   6
ATOM      6  C   UNL     1      34.839 -16.860 -25.379  0.00  0.00    +0.194 C 
BRANCH   6   8
ATOM      7  O   UNL     1      33.416 -15.100 -24.542  0.00  0.00    -0.250 OA
ATOM      8  C   UNL     1      33.672 -15.911 -25.423  0.00  0.00    +0.323 C 
BRANCH   8   9
ATOM      9  O   UNL     1      32.922 -16.059 -26.543  0.00  0.00    -0.480 OA
ATOM     10  H   UNL     1      31.986 -16.032 -26.487  0.00  0.00    +0.295 HD
ENDBRANCH   8   9
ENDBRANCH   6   8
ENDBRANCH   4   6
ENDBRANCH   1   3
BRANCH   1  11
ATOM     11  C   UNL     1      33.746 -18.480 -21.420  0.00  0.00    +0.047 C 
BRANCH  11  12
ATOM     12  C   UNL     1      34.149 -19.745 -20.698  0.00  0.00    -0.021 C 
ATOM     13  C   UNL     1      35.486 -20.106 -20.658  0.00  0.00    -0.004 C 
ATOM     14  C   UNL     1      33.175 -20.518 -20.088  0.00  0.00    -0.004 C 
ATOM     15  C   UNL     1      35.858 -21.273 -19.992  0.00  0.00    -0.000 C 
ATOM     16  C   UNL     1      33.547 -21.685 -19.422  0.00  0.00    -0.000 C 
ATOM     17  C   UNL     1      34.889 -22.063 -19.373  0.00  0.00    -0.000 C 
ENDBRANCH  11  12
ENDBRANCH   1  11
BRANCH   1  18
ATOM     18  C   UNL     1      34.929 -16.422 -20.583  0.00  0.00    +0.073 C 
BRANCH  18  19
ATOM     19  S   UNL     1      34.073 -14.911 -21.133  0.00  0.00    -0.166 S 
ATOM     20  H   UNL     1      34.941 -14.124 -21.823  0.00  0.00    +0.102 HD
ENDBRANCH  18  19
ENDBRANCH   1  18
TORSDOF 8
ENDMDL
MODEL 6
REMARK VINA RESULT:      -7.4      4.392      5.884
REMARK  Name = 657144
REMARK  8 active torsions:
REMARK  status: ('A' for Active; 'I' for Inactive)
REMARK    1  A    between atoms: C_1  and  N_3
REMARK    2  A    between atoms: C_1  and  C_11
REMARK    3  A    between atoms: C_1  and  C_18
REMARK    4  A    between atoms: C_4  and  C_6
REMARK    5  A    between atoms: C_6  and  C_8
REMARK    6  A    between atoms: C_8  and  O_9
REMARK    7  A    between atoms: C_11  and  C_12
REMARK    8  A    between atoms: C_18  and  S_19
REMARK                            x       y       z     vdW  Elec       q    Type
REMARK                         _______ _______ _______ _____ _____    ______ ____
ROOT
ATOM      1  C   UNL     1      33.783 -22.875 -16.697  0.00  0.00    +0.086 C 
ENDROOT
BRANCH   1   3
ATOM      2  O   UNL     1      30.935 -22.576 -16.889  0.00  0.00    -0.274 OA
ATOM      3  N   UNL     1      32.789 -23.640 -15.983  0.00  0.00    -0.304 N 
ATOM      4  C   UNL     1      31.430 -23.419 -16.145  0.00  0.00    +0.234 C 
ATOM      5  H   UNL     1      33.085 -24.343 -15.360  0.00  0.00    +0.149 HD
BRANCH   4   6
ATOM      6  C   UNL     1      30.598 -24.332 -15.274  0.00  0.00    +0.194 C 
BRANCH   6   8
ATOM      7  O   UNL     1      30.811 -23.891 -12.911  0.00  0.00    -0.250 OA
ATOM      8  C   UNL     1      31.141 -24.551 -13.888  0.00  0.00    +0.323 C 
BRANCH   8   9
ATOM      9  O   UNL     1      32.052 -25.554 -13.838  0.00  0.00    -0.480 OA
ATOM     10  H   UNL     1      32.031 -26.238 -14.480  0.00  0.00    +0.295 HD
ENDBRANCH   8   9
ENDBRANCH   6   8
ENDBRANCH   4   6
ENDBRANCH   1   3
BRANCH   1  11
ATOM     11  C   UNL     1      33.784 -23.250 -18.191  0.00  0.00    +0.047 C 
BRANCH  11  12
ATOM     12  C   UNL     1      34.047 -22.071 -19.099  0.00  0.00    -0.021 C 
ATOM     13  C   UNL     1      32.984 -21.293 -19.527  0.00  0.00    -0.004 C 
ATOM     14  C   UNL     1      35.348 -21.789 -19.484  0.00  0.00    -0.004 C 
ATOM     15  C   UNL     1      33.227 -20.205 -20.364  0.00  0.00    -0.000 C 
ATOM     16  C   UNL     1      35.591 -20.701 -20.322  0.00  0.00    -0.000 C 
ATOM     17  C   UNL     1      34.531 -19.908 -20.762  0.00  0.00    -0.000 C 
ENDBRANCH  11  12
ENDBRANCH   1  11
BRANCH   1  18
ATOM     18  C   UNL     1      35.176 -23.105 -16.099  0.00  0.00    +0.073 C 
BRANCH  18  19
ATOM     19  S   UNL     1      35.099 -23.675 -14.370  0.00  0.00    -0.166 S 
ATOM     20  H   UNL     1      33.820 -24.018 -14.062  0.00  0.00    +0.102 HD
ENDBRANCH  18  19
ENDBRANCH   1  18
TORSDOF 8
ENDMDL
MODEL 7
REMARK VINA RESULT:      -7.3      2.810      3.675
REMARK  Name = 657144
REMARK  8 active torsions:
REMARK  status: ('A' for Active; 'I' for Inactive)
REMARK    1  A    between atoms: C_1  and  N_3
REMARK    2  A    between atoms: C_1  and  C_11
REMARK    3  A    between atoms: C_1  and  C_18
REMARK    4  A    between atoms: C_4  and  C_6
REMARK    5  A    between atoms: C_6  and  C_8
REMARK    6  A    between atoms: C_8  and  O_9
REMARK    7  A    between atoms: C_11  and  C_12
REMARK    8  A    between atoms: C_18  and  S_19
REMARK                            x       y       z     vdW  Elec       q    Type
REMARK                         _______ _______ _______ _____ _____    ______ ____
ROOT
ATOM      1  C   UNL     1      35.709 -24.125 -15.020  0.00  0.00    +0.086 C 
ENDROOT
BRANCH   1   3
ATOM      2  O   UNL     1      37.859 -23.088 -13.427  0.00  0.00    -0.274 OA
ATOM      3  N   UNL     1      35.685 -23.885 -13.597  0.00  0.00    -0.304 N 
ATOM      4  C   UNL     1      36.782 -23.380 -12.916  0.00  0.00    +0.234 C 
ATOM      5  H   UNL     1      34.864 -24.087 -13.093  0.00  0.00    +0.149 HD
BRANCH   4   6
ATOM      6  C   UNL     1      36.514 -23.240 -11.434  0.00  0.00    +0.194 C 
BRANCH   6   8
ATOM      7  O   UNL     1      35.315 -24.465  -9.735  0.00  0.00    -0.250 OA
ATOM      8  C   UNL     1      35.966 -24.475 -10.771  0.00  0.00    +0.323 C 
BRANCH   8   9
ATOM      9  O   UNL     1      36.287 -25.610 -11.441  0.00  0.00    -0.480 OA
ATOM     10  H   UNL     1      35.771 -25.881 -12.176  0.00  0.00    +0.295 HD
ENDBRANCH   8   9
ENDBRANCH   6   8
ENDBRANCH   4   6
ENDBRANCH   1   3
BRANCH   1  11
ATOM     11  C   UNL     1      34.529 -23.412 -15.708  0.00  0.00    +0.047 C 
BRANCH  11  12
ATOM     12  C   UNL     1      34.912 -22.757 -17.015  0.00  0.00    -0.021 C 
ATOM     13  C   UNL     1      33.989 -22.711 -18.047  0.00  0.00    -0.004 C 
ATOM     14  C   UNL     1      36.178 -22.213 -17.156  0.00  0.00    -0.004 C 
ATOM     15  C   UNL     1      34.342 -22.107 -19.253  0.00  0.00    -0.000 C 
ATOM     16  C   UNL     1      36.531 -21.608 -18.362  0.00  0.00    -0.000 C 
ATOM     17  C   UNL     1      35.613 -21.554 -19.410  0.00  0.00    -0.000 C 
ENDBRANCH  11  12
ENDBRANCH   1  11
BRANCH   1  18
ATOM     18  C   UNL     1      35.657 -25.629 -15.316  0.00  0.00    +0.073 C 
BRANCH  18  19
ATOM     19  S   UNL     1      37.223 -26.467 -14.912  0.00  0.00    -0.166 S 
ATOM     20  H   UNL     1      38.070 -25.583 -14.321  0.00  0.00    +0.102 HD
ENDBRANCH  18  19
ENDBRANCH   1  18
TORSDOF 8
ENDMDL
MODEL 8
REMARK VINA RESULT:      -7.2      9.150     11.742
REMARK  Name = 657144
REMARK  8 active torsions:
REMARK  status: ('A' for Active; 'I' for Inactive)
REMARK    1  A    between atoms: C_1  and  N_3
REMARK    2  A    between atoms: C_1  and  C_11
REMARK    3  A    between atoms: C_1  and  C_18
REMARK    4  A    between atoms: C_4  and  C_6
REMARK    5  A    between atoms: C_6  and  C_8
REMARK    6  A    between atoms: C_8  and  O_9
REMARK    7  A    between atoms: C_11  and  C_12
REMARK    8  A    between atoms: C_18  and  S_19
REMARK                            x       y       z     vdW  Elec       q    Type
REMARK                         _______ _______ _______ _____ _____    ______ ____
ROOT
ATOM      1  C   UNL     1      34.967 -17.304 -22.514  0.00  0.00    +0.086 C 
ENDROOT
BRANCH   1   3
ATOM      2  O   UNL     1      34.835 -16.875 -25.348  0.00  0.00    -0.274 OA
ATOM      3  N   UNL     1      34.257 -16.245 -23.190  0.00  0.00    -0.304 N 
ATOM      4  C   UNL     1      34.254 -16.122 -24.570  0.00  0.00    +0.234 C 
ATOM      5  H   UNL     1      33.757 -15.587 -22.653  0.00  0.00    +0.149 HD
BRANCH   4   6
ATOM      6  C   UNL     1      33.458 -14.923 -25.032  0.00  0.00    +0.194 C 
BRANCH   6   8
ATOM      7  O   UNL     1      33.568 -14.080 -27.291  0.00  0.00    -0.250 OA
ATOM      8  C   UNL     1      33.133 -14.908 -26.501  0.00  0.00    +0.323 C 
BRANCH   8   9
ATOM      9  O   UNL     1      32.289 -15.908 -26.857  0.00  0.00    -0.480 OA
ATOM     10  H   UNL     1      32.367 -16.309 -27.702  0.00  0.00    +0.295 HD
ENDBRANCH   8   9
ENDBRANCH   6   8
ENDBRANCH   4   6
ENDBRANCH   1   3
BRANCH   1  11
ATOM     11  C   UNL     1      34.289 -18.663 -22.775  0.00  0.00    +0.047 C 
BRANCH  11  12
ATOM     12  C   UNL     1      34.367 -19.602 -21.594  0.00  0.00    -0.021 C 
ATOM     13  C   UNL     1      33.202 -19.969 -20.942  0.00  0.00    -0.004 C 
ATOM     14  C   UNL     1      35.602 -20.079 -21.187  0.00  0.00    -0.004 C 
ATOM     15  C   UNL     1      33.273 -20.836 -19.852  0.00  0.00    -0.000 C 
ATOM     16  C   UNL     1      35.674 -20.945 -20.097  0.00  0.00    -0.000 C 
ATOM     17  C   UNL     1      34.510 -21.325 -19.429  0.00  0.00    -0.000 C 
ENDBRANCH  11  12
ENDBRANCH   1  11
BRANCH   1  18
ATOM     18  C   UNL     1      35.033 -17.034 -21.005  0.00  0.00    +0.073 C 
BRANCH  18  19
ATOM     19  S   UNL     1      34.437 -15.367 -20.576  0.00  0.00    -0.166 S 
ATOM     20  H   UNL     1      34.839 -15.053 -19.315  0.00  0.00    +0.102 HD
ENDBRANCH  18  19
ENDBRANCH   1  18
TORSDOF 8
ENDMDL
MODEL 9
REMARK VINA RESULT:      -7.2      8.921     11.506
REMARK  Name = 657144
REMARK  8 active torsions:
REMARK  status: ('A' for Active; 'I' for Inactive)
REMARK    1  A    between atoms: C_1  and  N_3
REMARK    2  A    between atoms: C_1  and  C_11
REMARK    3  A    between atoms: C_1  and  C_18
REMARK    4  A    between atoms: C_4  and  C_6
REMARK    5  A    between atoms: C_6  and  C_8
REMARK    6  A    between atoms: C_8  and  O_9
REMARK    7  A    between atoms: C_11  and  C_12
REMARK    8  A    between atoms: C_18  and  S_19
REMARK                            x       y       z     vdW  Elec       q    Type
REMARK                         _______ _______ _______ _____ _____    ______ ____
ROOT
ATOM      1  C   UNL     1      34.961 -17.299 -22.584  0.00  0.00    +0.086 C 
ENDROOT
BRANCH   1   3
ATOM      2  O   UNL     1      34.762 -16.922 -25.422  0.00  0.00    -0.274 OA
ATOM      3  N   UNL     1      34.272 -16.227 -23.262  0.00  0.00    -0.304 N 
ATOM      4  C   UNL     1      34.234 -16.132 -24.645  0.00  0.00    +0.234 C 
ATOM      5  H   UNL     1      33.815 -15.540 -22.726  0.00  0.00    +0.149 HD
BRANCH   4   6
ATOM      6  C   UNL     1      33.471 -14.912 -25.109  0.00  0.00    +0.194 C 
BRANCH   6   8
ATOM      7  O   UNL     1      32.193 -13.807 -23.386  0.00  0.00    -0.250 OA
ATOM      8  C   UNL     1      33.223 -13.879 -24.044  0.00  0.00    +0.323 C 
BRANCH   8   9
ATOM      9  O   UNL     1      34.263 -13.021 -23.899  0.00  0.00    -0.480 OA
ATOM     10  H   UNL     1      34.706 -12.690 -24.657  0.00  0.00    +0.295 HD
ENDBRANCH   8   9
ENDBRANCH   6   8
ENDBRANCH   4   6
ENDBRANCH   1   3
BRANCH   1  11
ATOM     11  C   UNL     1      34.225 -18.636 -22.798  0.00  0.00    +0.047 C 
BRANCH  11  12
ATOM     12  C   UNL     1      34.354 -19.579 -21.625  0.00  0.00    -0.021 C 
ATOM     13  C   UNL     1      33.217 -19.955 -20.929  0.00  0.00    -0.004 C 
ATOM     14  C   UNL     1      35.607 -20.051 -21.269  0.00  0.00    -0.004 C 
ATOM     15  C   UNL     1      33.336 -20.826 -19.846  0.00  0.00    -0.000 C 
ATOM     16  C   UNL     1      35.726 -20.921 -20.186  0.00  0.00    -0.000 C 
ATOM     17  C   UNL     1      34.591 -21.310 -19.475  0.00  0.00    -0.000 C 
ENDBRANCH  11  12
ENDBRANCH   1  11
BRANCH   1  18
ATOM     18  C   UNL     1      35.080 -17.002 -21.084  0.00  0.00    +0.073 C 
BRANCH  18  19
ATOM     19  S   UNL     1      34.439 -15.353 -20.654  0.00  0.00    -0.166 S 
ATOM     20  H   UNL     1      33.334 -15.486 -19.873  0.00  0.00    +0.102 HD
ENDBRANCH  18  19
ENDBRANCH   1  18
TORSDOF 8
ENDMDL
