MODEL 1
REMARK VINA RESULT:      -8.2      0.000      0.000
REMARK  Name = 449095
REMARK  5 active torsions:
REMARK  status: ('A' for Active; 'I' for Inactive)
REMARK    1  A    between atoms: CA_9  and  CB_13
REMARK    2  A    between atoms: CB_13  and  CG_14
REMARK    3  A    between atoms: CG_14  and  CD_15
REMARK    4  A    between atoms: CD_15  and  NE_16
REMARK    5  A    between atoms: NE_16  and  CZ_19
REMARK                            x       y       z     vdW  Elec       q    Type
REMARK                         _______ _______ _______ _____ _____    ______ ____
ROOT
ATOM      1  O   ARG A   2      34.986 -16.035 -20.615  0.00  0.00    -0.273 OA
ATOM      2  O   PRO A   1      34.956 -16.682 -25.876  0.00  0.00    -0.273 OA
ATOM      3  N   PRO A   1      34.294 -15.336 -22.712  0.00  0.00    -0.272 N 
ATOM      4  N   ARG A   2      35.310 -17.536 -23.759  0.00  0.00    -0.297 N 
ATOM      5  CA  PRO A   1      33.761 -15.701 -24.017  0.00  0.00    +0.152 C 
ATOM      6  CB  PRO A   1      33.586 -14.365 -24.728  0.00  0.00    +0.031 C 
ATOM      7  CD  PRO A   1      34.162 -13.914 -22.450  0.00  0.00    +0.094 C 
ATOM      8  CG  PRO A   1      33.275 -13.408 -23.579  0.00  0.00    +0.024 C 
ATOM      9  CA  ARG A   2      34.803 -17.674 -22.397  0.00  0.00    +0.149 C 
ATOM     10  C   ARG A   2      34.748 -16.272 -21.797  0.00  0.00    +0.244 C 
ATOM     11  C   PRO A   1      34.757 -16.641 -24.665  0.00  0.00    +0.241 C 
ATOM     12  H   ARG A   2      36.068 -18.097 -24.045  0.00  0.00    +0.150 HD
ENDROOT
BRANCH   9  13
ATOM     13  CB  ARG A   2      35.677 -18.610 -21.578  0.00  0.00    +0.031 C 
BRANCH  13  14
ATOM     14  CG  ARG A   2      34.973 -19.943 -21.311  0.00  0.00    +0.029 C 
BRANCH  14  15
ATOM     15  CD  ARG A   2      33.658 -19.768 -20.559  0.00  0.00    +0.129 C 
BRANCH  15  16
ATOM     16  NE  ARG A   2      33.049 -21.076 -20.312  0.00  0.00    -0.240 NA
BRANCH  16  19
ATOM     17  NH1 ARG A   2      32.597 -22.309 -18.402  0.00  0.00    -0.370 N 
ATOM     18  NH2 ARG A   2      34.791 -21.970 -18.920  0.00  0.00    -0.370 N 
ATOM     19  CZ  ARG A   2      33.484 -21.737 -19.285  0.00  0.00    +0.189 C 
ATOM     20 HH11 ARG A   2      31.628 -22.217 -18.548  0.00  0.00    +0.159 HD
ATOM     21 HH12 ARG A   2      32.932 -22.810 -17.623  0.00  0.00    +0.159 HD
ATOM     22 HH21 ARG A   2      35.526 -21.614 -19.470  0.00  0.00    +0.159 HD
ATOM     23 HH22 ARG A   2      34.991 -22.492 -18.109  0.00  0.00    +0.159 HD
ENDBRANCH  16  19
ENDBRANCH  15  16
ENDBRANCH  14  15
ENDBRANCH  13  14
ENDBRANCH   9  13
TORSDOF 5
ENDMDL
MODEL 2
REMARK VINA RESULT:      -8.1      1.269      2.590
REMARK  Name = 449095
REMARK  5 active torsions:
REMARK  status: ('A' for Active; 'I' for Inactive)
REMARK    1  A    between atoms: CA_9  and  CB_13
REMARK    2  A    between atoms: CB_13  and  CG_14
REMARK    3  A    between atoms: CG_14  and  CD_15
REMARK    4  A    between atoms: CD_15  and  NE_16
REMARK    5  A    between atoms: NE_16  and  CZ_19
REMARK                            x       y       z     vdW  Elec       q    Type
REMARK                         _______ _______ _______ _____ _____    ______ ____
ROOT
ATOM      1  O   ARG A   2      34.649 -17.816 -25.609  0.00  0.00    -0.273 OA
ATOM      2  O   PRO A   1      33.174 -14.689 -21.591  0.00  0.00    -0.273 OA
ATOM      3  N   PRO A   1      33.908 -15.759 -24.843  0.00  0.00    -0.272 N 
ATOM      4  N   ARG A   2      34.249 -16.583 -22.359  0.00  0.00    -0.297 N 
ATOM      5  CA  PRO A   1      34.030 -14.699 -23.853  0.00  0.00    +0.152 C 
ATOM      6  CB  PRO A   1      33.035 -13.644 -24.322  0.00  0.00    +0.031 C 
ATOM      7  CD  PRO A   1      33.184 -15.320 -26.022  0.00  0.00    +0.094 C 
ATOM      8  CG  PRO A   1      33.050 -13.815 -25.840  0.00  0.00    +0.024 C 
ATOM      9  CA  ARG A   2      35.175 -17.152 -23.334  0.00  0.00    +0.149 C 
ATOM     10  C   ARG A   2      34.532 -16.989 -24.708  0.00  0.00    +0.244 C 
ATOM     11  C   PRO A   1      33.722 -15.307 -22.500  0.00  0.00    +0.241 C 
ATOM     12  H   ARG A   2      33.991 -17.122 -21.576  0.00  0.00    +0.150 HD
ENDROOT
BRANCH   9  13
ATOM     13  CB  ARG A   2      35.480 -18.608 -23.018  0.00  0.00    +0.031 C 
BRANCH  13  14
ATOM     14  CG  ARG A   2      34.328 -19.268 -22.257  0.00  0.00    +0.029 C 
BRANCH  14  15
ATOM     15  CD  ARG A   2      34.792 -19.959 -20.979  0.00  0.00    +0.129 C 
BRANCH  15  16
ATOM     16  NE  ARG A   2      33.634 -20.446 -20.229  0.00  0.00    -0.240 NA
BRANCH  16  19
ATOM     17  NH1 ARG A   2      35.107 -21.879 -19.156  0.00  0.00    -0.370 N 
ATOM     18  NH2 ARG A   2      32.881 -22.260 -18.845  0.00  0.00    -0.370 N 
ATOM     19  CZ  ARG A   2      33.828 -21.468 -19.456  0.00  0.00    +0.189 C 
ATOM     20 HH11 ARG A   2      35.879 -21.395 -19.530  0.00  0.00    +0.159 HD
ATOM     21 HH12 ARG A   2      35.250 -22.655 -18.569  0.00  0.00    +0.159 HD
ATOM     22 HH21 ARG A   2      31.924 -22.073 -18.978  0.00  0.00    +0.159 HD
ATOM     23 HH22 ARG A   2      33.161 -23.014 -18.277  0.00  0.00    +0.159 HD
ENDBRANCH  16  19
ENDBRANCH  15  16
ENDBRANCH  14  15
ENDBRANCH  13  14
ENDBRANCH   9  13
TORSDOF 5
ENDMDL
MODEL 3
REMARK VINA RESULT:      -8.1      3.865      7.717
REMARK  Name = 449095
REMARK  5 active torsions:
REMARK  status: ('A' for Active; 'I' for Inactive)
REMARK    1  A    between atoms: CA_9  and  CB_13
REMARK    2  A    between atoms: CB_13  and  CG_14
REMARK    3  A    between atoms: CG_14  and  CD_15
REMARK    4  A    between atoms: CD_15  and  NE_16
REMARK    5  A    between atoms: NE_16  and  CZ_19
REMARK                            x       y       z     vdW  Elec       q    Type
REMARK                         _______ _______ _______ _____ _____    ______ ____
ROOT
ATOM      1  O   ARG A   2      32.722 -13.807 -24.204  0.00  0.00    -0.273 OA
ATOM      2  O   PRO A   1      35.029 -15.867 -19.900  0.00  0.00    -0.273 OA
ATOM      3  N   PRO A   1      33.860 -15.548 -23.185  0.00  0.00    -0.272 N 
ATOM      4  N   ARG A   2      33.590 -14.335 -20.856  0.00  0.00    -0.297 N 
ATOM      5  CA  PRO A   1      34.001 -16.410 -22.020  0.00  0.00    +0.152 C 
ATOM      6  CB  PRO A   1      35.118 -17.371 -22.409  0.00  0.00    +0.031 C 
ATOM      7  CD  PRO A   1      34.550 -16.084 -24.344  0.00  0.00    +0.094 C 
ATOM      8  CG  PRO A   1      34.950 -17.491 -23.923  0.00  0.00    +0.024 C 
ATOM      9  CA  ARG A   2      32.504 -14.106 -21.805  0.00  0.00    +0.149 C 
ATOM     10  C   ARG A   2      33.050 -14.424 -23.193  0.00  0.00    +0.244 C 
ATOM     11  C   PRO A   1      34.312 -15.520 -20.834  0.00  0.00    +0.241 C 
ATOM     12  H   ARG A   2      33.816 -13.626 -20.210  0.00  0.00    +0.150 HD
ENDROOT
BRANCH   9  13
ATOM     13  CB  ARG A   2      31.984 -12.680 -21.711  0.00  0.00    +0.031 C 
BRANCH  13  14
ATOM     14  CG  ARG A   2      31.836 -12.233 -20.254  0.00  0.00    +0.029 C 
BRANCH  14  15
ATOM     15  CD  ARG A   2      31.104 -10.902 -20.124  0.00  0.00    +0.129 C 
BRANCH  15  16
ATOM     16  NE  ARG A   2      31.974  -9.917 -19.480  0.00  0.00    -0.240 NA
BRANCH  16  19
ATOM     17  NH1 ARG A   2      31.966  -8.805 -21.514  0.00  0.00    -0.370 N 
ATOM     18  NH2 ARG A   2      32.914  -7.722 -19.745  0.00  0.00    -0.370 N 
ATOM     19  CZ  ARG A   2      32.279  -8.867 -20.175  0.00  0.00    +0.189 C 
ATOM     20 HH11 ARG A   2      31.509  -9.562 -21.947  0.00  0.00    +0.159 HD
ATOM     21 HH12 ARG A   2      32.200  -8.006 -22.038  0.00  0.00    +0.159 HD
ATOM     22 HH21 ARG A   2      33.192  -7.637 -18.805  0.00  0.00    +0.159 HD
ATOM     23 HH22 ARG A   2      33.090  -6.989 -20.379  0.00  0.00    +0.159 HD
ENDBRANCH  16  19
ENDBRANCH  15  16
ENDBRANCH  14  15
ENDBRANCH  13  14
ENDBRANCH   9  13
TORSDOF 5
ENDMDL
MODEL 4
REMARK VINA RESULT:      -8.0      7.097     11.235
REMARK  Name = 449095
REMARK  5 active torsions:
REMARK  status: ('A' for Active; 'I' for Inactive)
REMARK    1  A    between atoms: CA_9  and  CB_13
REMARK    2  A    between atoms: CB_13  and  CG_14
REMARK    3  A    between atoms: CG_14  and  CD_15
REMARK    4  A    between atoms: CD_15  and  NE_16
REMARK    5  A    between atoms: NE_16  and  CZ_19
REMARK                            x       y       z     vdW  Elec       q    Type
REMARK                         _______ _______ _______ _____ _____    ______ ____
ROOT
ATOM      1  O   ARG A   2      36.232 -23.368 -16.073  0.00  0.00    -0.273 OA
ATOM      2  O   PRO A   1      35.482 -24.825 -11.032  0.00  0.00    -0.273 OA
ATOM      3  N   PRO A   1      36.905 -24.589 -14.222  0.00  0.00    -0.272 N 
ATOM      4  N   ARG A   2      34.663 -23.926 -12.996  0.00  0.00    -0.297 N 
ATOM      5  CA  PRO A   1      36.525 -25.459 -13.119  0.00  0.00    +0.152 C 
ATOM      6  CB  PRO A   1      37.850 -25.800 -12.449  0.00  0.00    +0.031 C 
ATOM      7  CD  PRO A   1      38.334 -24.624 -14.476  0.00  0.00    +0.094 C 
ATOM      8  CG  PRO A   1      38.836 -25.775 -13.615  0.00  0.00    +0.024 C 
ATOM      9  CA  ARG A   2      34.563 -24.050 -14.447  0.00  0.00    +0.149 C 
ATOM     10  C   ARG A   2      35.977 -23.919 -15.005  0.00  0.00    +0.244 C 
ATOM     11  C   PRO A   1      35.552 -24.689 -12.251  0.00  0.00    +0.241 C 
ATOM     12  H   ARG A   2      34.081 -23.282 -12.531  0.00  0.00    +0.150 HD
ENDROOT
BRANCH   9  13
ATOM     13  CB  ARG A   2      33.625 -23.002 -15.024  0.00  0.00    +0.031 C 
BRANCH  13  14
ATOM     14  CG  ARG A   2      32.424 -23.647 -15.720  0.00  0.00    +0.029 C 
BRANCH  14  15
ATOM     15  CD  ARG A   2      32.237 -23.144 -17.147  0.00  0.00    +0.129 C 
BRANCH  15  16
ATOM     16  NE  ARG A   2      33.405 -23.497 -17.956  0.00  0.00    -0.240 NA
BRANCH  16  19
ATOM     17  NH1 ARG A   2      33.059 -21.956 -19.652  0.00  0.00    -0.370 N 
ATOM     18  NH2 ARG A   2      35.162 -22.082 -18.781  0.00  0.00    -0.370 N 
ATOM     19  CZ  ARG A   2      33.877 -22.573 -18.733  0.00  0.00    +0.189 C 
ATOM     20 HH11 ARG A   2      32.112 -22.216 -19.721  0.00  0.00    +0.159 HD
ATOM     21 HH12 ARG A   2      33.421 -21.255 -20.240  0.00  0.00    +0.159 HD
ATOM     22 HH21 ARG A   2      35.849 -22.440 -18.173  0.00  0.00    +0.159 HD
ATOM     23 HH22 ARG A   2      35.395 -21.373 -19.424  0.00  0.00    +0.159 HD
ENDBRANCH  16  19
ENDBRANCH  15  16
ENDBRANCH  14  15
ENDBRANCH  13  14
ENDBRANCH   9  13
TORSDOF 5
ENDMDL
MODEL 5
REMARK VINA RESULT:      -7.9      8.529     10.813
REMARK  Name = 449095
REMARK  5 active torsions:
REMARK  status: ('A' for Active; 'I' for Inactive)
REMARK    1  A    between atoms: CA_9  and  CB_13
REMARK    2  A    between atoms: CB_13  and  CG_14
REMARK    3  A    between atoms: CG_14  and  CD_15
REMARK    4  A    between atoms: CD_15  and  NE_16
REMARK    5  A    between atoms: NE_16  and  CZ_19
REMARK                            x       y       z     vdW  Elec       q    Type
REMARK                         _______ _______ _______ _____ _____    ______ ____
ROOT
ATOM      1  O   ARG A   2      35.029 -23.164 -16.975  0.00  0.00    -0.273 OA
ATOM      2  O   PRO A   1      32.005 -25.223 -13.139  0.00  0.00    -0.273 OA
ATOM      3  N   PRO A   1      32.972 -23.332 -15.923  0.00  0.00    -0.272 N 
ATOM      4  N   ARG A   2      34.096 -24.741 -13.994  0.00  0.00    -0.297 N 
ATOM      5  CA  PRO A   1      32.230 -23.366 -14.671  0.00  0.00    +0.152 C 
ATOM      6  CB  PRO A   1      30.774 -23.445 -15.111  0.00  0.00    +0.031 C 
ATOM      7  CD  PRO A   1      32.109 -23.066 -17.060  0.00  0.00    +0.094 C 
ATOM      8  CG  PRO A   1      30.776 -22.680 -16.434  0.00  0.00    +0.024 C 
ATOM      9  CA  ARG A   2      34.960 -23.743 -14.618  0.00  0.00    +0.149 C 
ATOM     10  C   ARG A   2      34.354 -23.417 -15.980  0.00  0.00    +0.244 C 
ATOM     11  C   PRO A   1      32.723 -24.563 -13.886  0.00  0.00    +0.241 C 
ATOM     12  H   ARG A   2      34.500 -25.566 -13.638  0.00  0.00    +0.150 HD
ENDROOT
BRANCH   9  13
ATOM     13  CB  ARG A   2      36.388 -24.251 -14.738  0.00  0.00    +0.031 C 
BRANCH  13  14
ATOM     14  CG  ARG A   2      36.431 -25.776 -14.868  0.00  0.00    +0.029 C 
BRANCH  14  15
ATOM     15  CD  ARG A   2      37.435 -26.415 -13.916  0.00  0.00    +0.129 C 
BRANCH  15  16
ATOM     16  NE  ARG A   2      38.572 -25.516 -13.715  0.00  0.00    -0.240 NA
BRANCH  16  19
ATOM     17  NH1 ARG A   2      39.853 -25.143 -15.611  0.00  0.00    -0.370 N 
ATOM     18  NH2 ARG A   2      40.672 -26.623 -14.082  0.00  0.00    -0.370 N 
ATOM     19  CZ  ARG A   2      39.642 -25.767 -14.402  0.00  0.00    +0.189 C 
ATOM     20 HH11 ARG A   2      39.189 -24.504 -15.957  0.00  0.00    +0.159 HD
ATOM     21 HH12 ARG A   2      40.667 -25.337 -16.129  0.00  0.00    +0.159 HD
ATOM     22 HH21 ARG A   2      40.644 -27.133 -13.240  0.00  0.00    +0.159 HD
ATOM     23 HH22 ARG A   2      41.436 -26.726 -14.695  0.00  0.00    +0.159 HD
ENDBRANCH  16  19
ENDBRANCH  15  16
ENDBRANCH  14  15
ENDBRANCH  13  14
ENDBRANCH   9  13
TORSDOF 5
ENDMDL
MODEL 6
REMARK VINA RESULT:      -7.8      1.127      1.488
REMARK  Name = 449095
REMARK  5 active torsions:
REMARK  status: ('A' for Active; 'I' for Inactive)
REMARK    1  A    between atoms: CA_9  and  CB_13
REMARK    2  A    between atoms: CB_13  and  CG_14
REMARK    3  A    between atoms: CG_14  and  CD_15
REMARK    4  A    between atoms: CD_15  and  NE_16
REMARK    5  A    between atoms: NE_16  and  CZ_19
REMARK                            x       y       z     vdW  Elec       q    Type
REMARK                         _______ _______ _______ _____ _____    ______ ____
ROOT
ATOM      1  O   ARG A   2      34.258 -14.265 -21.621  0.00  0.00    -0.273 OA
ATOM      2  O   PRO A   1      35.022 -17.247 -25.936  0.00  0.00    -0.273 OA
ATOM      3  N   PRO A   1      33.870 -14.666 -23.869  0.00  0.00    -0.272 N 
ATOM      4  N   ARG A   2      35.077 -17.003 -23.640  0.00  0.00    -0.297 N 
ATOM      5  CA  PRO A   1      33.545 -15.633 -24.908  0.00  0.00    +0.152 C 
ATOM      6  CB  PRO A   1      33.448 -14.792 -26.174  0.00  0.00    +0.031 C 
ATOM      7  CD  PRO A   1      33.670 -13.300 -24.317  0.00  0.00    +0.094 C 
ATOM      8  CG  PRO A   1      32.950 -13.446 -25.650  0.00  0.00    +0.024 C 
ATOM      9  CA  ARG A   2      34.376 -16.547 -22.443  0.00  0.00    +0.149 C 
ATOM     10  C   ARG A   2      34.203 -15.036 -22.576  0.00  0.00    +0.244 C 
ATOM     11  C   PRO A   1      34.645 -16.674 -24.918  0.00  0.00    +0.241 C 
ATOM     12  H   ARG A   2      35.880 -17.563 -23.537  0.00  0.00    +0.150 HD
ENDROOT
BRANCH   9  13
ATOM     13  CB  ARG A   2      35.138 -16.923 -21.183  0.00  0.00    +0.031 C 
BRANCH  13  14
ATOM     14  CG  ARG A   2      35.657 -18.362 -21.251  0.00  0.00    +0.029 C 
BRANCH  14  15
ATOM     15  CD  ARG A   2      34.545 -19.391 -21.087  0.00  0.00    +0.129 C 
BRANCH  15  16
ATOM     16  NE  ARG A   2      34.939 -20.396 -20.098  0.00  0.00    -0.240 NA
BRANCH  16  19
ATOM     17  NH1 ARG A   2      32.694 -20.811 -19.693  0.00  0.00    -0.370 N 
ATOM     18  NH2 ARG A   2      34.160 -22.491 -19.218  0.00  0.00    -0.370 N 
ATOM     19  CZ  ARG A   2      34.012 -21.205 -19.689  0.00  0.00    +0.189 C 
ATOM     20 HH11 ARG A   2      32.452 -19.909 -20.007  0.00  0.00    +0.159 HD
ATOM     21 HH12 ARG A   2      31.995 -21.428 -19.381  0.00  0.00    +0.159 HD
ATOM     22 HH21 ARG A   2      35.056 -22.896 -19.164  0.00  0.00    +0.159 HD
ATOM     23 HH22 ARG A   2      33.369 -23.006 -18.935  0.00  0.00    +0.159 HD
ENDBRANCH  16  19
ENDBRANCH  15  16
ENDBRANCH  14  15
ENDBRANCH  13  14
ENDBRANCH   9  13
TORSDOF 5
ENDMDL
MODEL 7
REMARK VINA RESULT:      -7.8      9.577     11.643
REMARK  Name = 449095
REMARK  5 active torsions:
REMARK  status: ('A' for Active; 'I' for Inactive)
REMARK    1  A    between atoms: CA_9  and  CB_13
REMARK    2  A    between atoms: CB_13  and  CG_14
REMARK    3  A    between atoms: CG_14  and  CD_15
REMARK    4  A    between atoms: CD_15  and  NE_16
REMARK    5  A    between atoms: NE_16  and  CZ_19
REMARK                            x       y       z     vdW  Elec       q    Type
REMARK                         _______ _______ _______ _____ _____    ______ ____
ROOT
ATOM      1  O   ARG A   2      36.333 -23.407 -16.143  0.00  0.00    -0.273 OA
ATOM      2  O   PRO A   1      35.252 -24.781 -11.139  0.00  0.00    -0.273 OA
ATOM      3  N   PRO A   1      36.898 -24.572 -14.222  0.00  0.00    -0.272 N 
ATOM      4  N   ARG A   2      34.557 -23.944 -13.176  0.00  0.00    -0.297 N 
ATOM      5  CA  PRO A   1      36.460 -25.430 -13.130  0.00  0.00    +0.152 C 
ATOM      6  CB  PRO A   1      37.741 -25.722 -12.358  0.00  0.00    +0.031 C 
ATOM      7  CD  PRO A   1      38.343 -24.575 -14.370  0.00  0.00    +0.094 C 
ATOM      8  CG  PRO A   1      38.809 -25.694 -13.450  0.00  0.00    +0.024 C 
ATOM      9  CA  ARG A   2      34.567 -24.099 -14.628  0.00  0.00    +0.149 C 
ATOM     10  C   ARG A   2      36.014 -23.943 -15.084  0.00  0.00    +0.244 C 
ATOM     11  C   PRO A   1      35.408 -24.668 -12.352  0.00  0.00    +0.241 C 
ATOM     12  H   ARG A   2      33.927 -23.306 -12.769  0.00  0.00    +0.150 HD
ENDROOT
BRANCH   9  13
ATOM     13  CB  ARG A   2      33.648 -23.088 -15.295  0.00  0.00    +0.031 C 
BRANCH  13  14
ATOM     14  CG  ARG A   2      32.252 -23.100 -14.667  0.00  0.00    +0.029 C 
BRANCH  14  15
ATOM     15  CD  ARG A   2      31.142 -23.095 -15.711  0.00  0.00    +0.129 C 
BRANCH  15  16
ATOM     16  NE  ARG A   2      29.839 -23.200 -15.052  0.00  0.00    -0.240 NA
BRANCH  16  19
ATOM     17  NH1 ARG A   2      28.466 -24.372 -16.507  0.00  0.00    -0.370 N 
ATOM     18  NH2 ARG A   2      28.953 -25.367 -14.514  0.00  0.00    -0.370 N 
ATOM     19  CZ  ARG A   2      29.138 -24.259 -15.311  0.00  0.00    +0.189 C 
ATOM     20 HH11 ARG A   2      28.517 -23.645 -17.170  0.00  0.00    +0.159 HD
ATOM     21 HH12 ARG A   2      27.936 -25.178 -16.699  0.00  0.00    +0.159 HD
ATOM     22 HH21 ARG A   2      29.381 -25.414 -13.629  0.00  0.00    +0.159 HD
ATOM     23 HH22 ARG A   2      28.391 -26.113 -14.830  0.00  0.00    +0.159 HD
ENDBRANCH  16  19
ENDBRANCH  15  16
ENDBRANCH  14  15
ENDBRANCH  13  14
ENDBRANCH   9  13
TORSDOF 5
ENDMDL
MODEL 8
REMARK VINA RESULT:      -7.8      3.007      6.963
REMARK  Name = 449095
REMARK  5 active torsions:
REMARK  status: ('A' for Active; 'I' for Inactive)
REMARK    1  A    between atoms: CA_9  and  CB_13
REMARK    2  A    between atoms: CB_13  and  CG_14
REMARK    3  A    between atoms: CG_14  and  CD_15
REMARK    4  A    between atoms: CD_15  and  NE_16
REMARK    5  A    between atoms: NE_16  and  CZ_19
REMARK                            x       y       z     vdW  Elec       q    Type
REMARK                         _______ _______ _______ _____ _____    ______ ____
ROOT
ATOM      1  O   ARG A   2      34.645 -16.385 -21.029  0.00  0.00    -0.273 OA
ATOM      2  O   PRO A   1      33.346 -16.209 -26.165  0.00  0.00    -0.273 OA
ATOM      3  N   PRO A   1      34.616 -17.382 -23.120  0.00  0.00    -0.272 N 
ATOM      4  N   ARG A   2      33.726 -15.125 -24.162  0.00  0.00    -0.297 N 
ATOM      5  CA  PRO A   1      34.825 -17.239 -24.554  0.00  0.00    +0.152 C 
ATOM      6  CB  PRO A   1      34.580 -18.640 -25.101  0.00  0.00    +0.031 C 
ATOM      7  CD  PRO A   1      34.581 -18.775 -22.712  0.00  0.00    +0.094 C 
ATOM      8  CG  PRO A   1      35.032 -19.537 -23.950  0.00  0.00    +0.024 C 
ATOM      9  CA  ARG A   2      34.601 -14.971 -23.002  0.00  0.00    +0.149 C 
ATOM     10  C   ARG A   2      34.587 -16.301 -22.254  0.00  0.00    +0.244 C 
ATOM     11  C   PRO A   1      33.858 -16.185 -25.049  0.00  0.00    +0.241 C 
ATOM     12  H   ARG A   2      33.021 -14.456 -24.319  0.00  0.00    +0.150 HD
ENDROOT
BRANCH   9  13
ATOM     13  CB  ARG A   2      34.148 -13.818 -22.122  0.00  0.00    +0.031 C 
BRANCH  13  14
ATOM     14  CG  ARG A   2      32.691 -13.440 -22.399  0.00  0.00    +0.029 C 
BRANCH  14  15
ATOM     15  CD  ARG A   2      32.547 -12.017 -22.925  0.00  0.00    +0.129 C 
BRANCH  15  16
ATOM     16  NE  ARG A   2      33.534 -11.773 -23.978  0.00  0.00    -0.240 NA
BRANCH  16  19
ATOM     17  NH1 ARG A   2      35.203 -10.345 -24.720  0.00  0.00    -0.370 N 
ATOM     18  NH2 ARG A   2      33.493  -9.412 -23.535  0.00  0.00    -0.370 N 
ATOM     19  CZ  ARG A   2      34.020 -10.574 -24.055  0.00  0.00    +0.189 C 
ATOM     20 HH11 ARG A   2      35.684 -11.095 -25.140  0.00  0.00    +0.159 HD
ATOM     21 HH12 ARG A   2      35.568  -9.433 -24.776  0.00  0.00    +0.159 HD
ATOM     22 HH21 ARG A   2      32.646  -9.437 -23.034  0.00  0.00    +0.159 HD
ATOM     23 HH22 ARG A   2      33.964  -8.557 -23.664  0.00  0.00    +0.159 HD
ENDBRANCH  16  19
ENDBRANCH  15  16
ENDBRANCH  14  15
ENDBRANCH  13  14
ENDBRANCH   9  13
TORSDOF 5
ENDMDL
MODEL 9
REMARK VINA RESULT:      -7.7      5.214      7.662
REMARK  Name = 449095
REMARK  5 active torsions:
REMARK  status: ('A' for Active; 'I' for Inactive)
REMARK    1  A    between atoms: CA_9  and  CB_13
REMARK    2  A    between atoms: CB_13  and  CG_14
REMARK    3  A    between atoms: CG_14  and  CD_15
REMARK    4  A    between atoms: CD_15  and  NE_16
REMARK    5  A    between atoms: NE_16  and  CZ_19
REMARK                            x       y       z     vdW  Elec       q    Type
REMARK                         _______ _______ _______ _____ _____    ______ ____
ROOT
ATOM      1  O   ARG A   2      32.462 -22.305 -18.672  0.00  0.00    -0.273 OA
ATOM      2  O   PRO A   1      37.448 -21.374 -17.134  0.00  0.00    -0.273 OA
ATOM      3  N   PRO A   1      34.592 -21.532 -19.153  0.00  0.00    -0.272 N 
ATOM      4  N   ARG A   2      35.431 -22.456 -16.827  0.00  0.00    -0.297 N 
ATOM      5  CA  PRO A   1      36.029 -21.745 -19.056  0.00  0.00    +0.152 C 
ATOM      6  CB  PRO A   1      36.626 -20.574 -19.826  0.00  0.00    +0.031 C 
ATOM      7  CD  PRO A   1      34.257 -20.540 -20.159  0.00  0.00    +0.094 C 
ATOM      8  CG  PRO A   1      35.568 -20.295 -20.892  0.00  0.00    +0.024 C 
ATOM      9  CA  ARG A   2      34.346 -23.216 -17.442  0.00  0.00    +0.149 C 
ATOM     10  C   ARG A   2      33.670 -22.292 -18.451  0.00  0.00    +0.244 C 
ATOM     11  C   PRO A   1      36.381 -21.784 -17.584  0.00  0.00    +0.241 C 
ATOM     12  H   ARG A   2      35.491 -22.420 -15.844  0.00  0.00    +0.150 HD
ENDROOT
BRANCH   9  13
ATOM     13  CB  ARG A   2      33.369 -23.725 -16.394  0.00  0.00    +0.031 C 
BRANCH  13  14
ATOM     14  CG  ARG A   2      33.754 -23.247 -14.991  0.00  0.00    +0.029 C 
BRANCH  14  15
ATOM     15  CD  ARG A   2      34.377 -24.353 -14.148  0.00  0.00    +0.129 C 
BRANCH  15  16
ATOM     16  NE  ARG A   2      35.837 -24.292 -14.249  0.00  0.00    -0.240 NA
BRANCH  16  19
ATOM     17  NH1 ARG A   2      37.720 -25.150 -15.293  0.00  0.00    -0.370 N 
ATOM     18  NH2 ARG A   2      35.896 -26.511 -15.168  0.00  0.00    -0.370 N 
ATOM     19  CZ  ARG A   2      36.419 -25.275 -14.862  0.00  0.00    +0.189 C 
ATOM     20 HH11 ARG A   2      38.212 -24.312 -15.136  0.00  0.00    +0.159 HD
ATOM     21 HH12 ARG A   2      38.159 -25.898 -15.758  0.00  0.00    +0.159 HD
ATOM     22 HH21 ARG A   2      34.970 -26.730 -14.914  0.00  0.00    +0.159 HD
ATOM     23 HH22 ARG A   2      36.447 -27.176 -15.641  0.00  0.00    +0.159 HD
ENDBRANCH  16  19
ENDBRANCH  15  16
ENDBRANCH  14  15
ENDBRANCH  13  14
ENDBRANCH   9  13
TORSDOF 5
ENDMDL
