MODEL 1
REMARK VINA RESULT:      -8.8      0.000      0.000
REMARK  Name = 2955
REMARK  4 active torsions:
REMARK  status: ('A' for Active; 'I' for Inactive)
REMARK    1  A    between atoms: S_1  and  C_4
REMARK    2  A    between atoms: S_1  and  C_13
REMARK    3  A    between atoms: C_9  and  N_10
REMARK    4  A    between atoms: C_18  and  N_19
REMARK                            x       y       z     vdW  Elec       q    Type
REMARK                         _______ _______ _______ _____ _____    ______ ____
ROOT
ATOM      1  S   UNL     1      35.608 -18.494 -22.379  0.00  0.00    +0.027 S 
ATOM      2  O   UNL     1      35.381 -18.972 -23.735  0.00  0.00    -0.164 OA
ATOM      3  O   UNL     1      36.970 -18.366 -21.874  0.00  0.00    -0.164 OA
ENDROOT
BRANCH   1   4
ATOM      4  C   UNL     1      34.810 -16.945 -22.262  0.00  0.00    +0.110 C 
ATOM      5  C   UNL     1      34.677 -16.320 -21.023  0.00  0.00    +0.020 C 
ATOM      6  C   UNL     1      34.305 -16.333 -23.410  0.00  0.00    +0.020 C 
ATOM      7  C   UNL     1      34.039 -15.083 -20.931  0.00  0.00    +0.015 C 
ATOM      8  C   UNL     1      33.666 -15.097 -23.318  0.00  0.00    +0.015 C 
ATOM      9  C   UNL     1      33.534 -14.471 -22.079  0.00  0.00    +0.042 C 
BRANCH   9  10
ATOM     10  N   UNL     1      32.888 -13.220 -21.986  0.00  0.00    -0.357 N 
ATOM     11  H   UNL     1      33.296 -12.425 -22.398  0.00  0.00    +0.142 HD
ATOM     12  H   UNL     1      32.030 -13.144 -21.511  0.00  0.00    +0.142 HD
ENDBRANCH   9  10
ENDBRANCH   1   4
BRANCH   1  13
ATOM     13  C   UNL     1      34.812 -19.621 -21.267  0.00  0.00    +0.110 C 
ATOM     14  C   UNL     1      33.432 -19.622 -21.187  0.00  0.00    +0.020 C 
ATOM     15  C   UNL     1      35.588 -20.474 -20.507  0.00  0.00    +0.020 C 
ATOM     16  C   UNL     1      32.805 -20.510 -20.312  0.00  0.00    +0.015 C 
ATOM     17  C   UNL     1      34.961 -21.363 -19.632  0.00  0.00    +0.015 C 
ATOM     18  C   UNL     1      33.570 -21.380 -19.535  0.00  0.00    +0.042 C 
BRANCH  18  19
ATOM     19  N   UNL     1      32.936 -22.278 -18.652  0.00  0.00    -0.357 N 
ATOM     20  H   UNL     1      32.118 -22.006 -18.177  0.00  0.00    +0.142 HD
ATOM     21  H   UNL     1      33.313 -23.177 -18.509  0.00  0.00    +0.142 HD
ENDBRANCH  18  19
ENDBRANCH   1  13
TORSDOF 4
ENDMDL
MODEL 2
REMARK VINA RESULT:      -8.7      0.039      5.766
REMARK  Name = 2955
REMARK  4 active torsions:
REMARK  status: ('A' for Active; 'I' for Inactive)
REMARK    1  A    between atoms: S_1  and  C_4
REMARK    2  A    between atoms: S_1  and  C_13
REMARK    3  A    between atoms: C_9  and  N_10
REMARK    4  A    between atoms: C_18  and  N_19
REMARK                            x       y       z     vdW  Elec       q    Type
REMARK                         _______ _______ _______ _____ _____    ______ ____
ROOT
ATOM      1  S   UNL     1      35.632 -18.523 -22.371  0.00  0.00    +0.027 S 
ATOM      2  O   UNL     1      36.995 -18.371 -21.882  0.00  0.00    -0.164 OA
ATOM      3  O   UNL     1      35.399 -18.962 -23.741  0.00  0.00    -0.164 OA
ENDROOT
BRANCH   1   4
ATOM      4  C   UNL     1      34.838 -19.628 -21.276  0.00  0.00    +0.110 C 
ATOM      5  C   UNL     1      33.447 -19.637 -21.182  0.00  0.00    +0.020 C 
ATOM      6  C   UNL     1      35.596 -20.501 -20.496  0.00  0.00    +0.020 C 
ATOM      7  C   UNL     1      32.813 -20.520 -20.307  0.00  0.00    +0.015 C 
ATOM      8  C   UNL     1      34.962 -21.383 -19.621  0.00  0.00    +0.015 C 
ATOM      9  C   UNL     1      33.571 -21.393 -19.527  0.00  0.00    +0.042 C 
BRANCH   9  10
ATOM     10  N   UNL     1      32.930 -22.285 -18.642  0.00  0.00    -0.357 N 
ATOM     11  H   UNL     1      33.423 -22.657 -17.875  0.00  0.00    +0.142 HD
ATOM     12  H   UNL     1      31.990 -22.535 -18.791  0.00  0.00    +0.142 HD
ENDBRANCH   9  10
ENDBRANCH   1   4
BRANCH   1  13
ATOM     13  C   UNL     1      34.835 -16.945 -22.253  0.00  0.00    +0.110 C 
ATOM     14  C   UNL     1      34.343 -16.355 -23.402  0.00  0.00    +0.020 C 
ATOM     15  C   UNL     1      34.723 -16.341 -21.016  0.00  0.00    +0.020 C 
ATOM     16  C   UNL     1      33.715 -15.112 -23.309  0.00  0.00    +0.015 C 
ATOM     17  C   UNL     1      34.094 -15.098 -20.924  0.00  0.00    +0.015 C 
ATOM     18  C   UNL     1      33.590 -14.484 -22.070  0.00  0.00    +0.042 C 
BRANCH  18  19
ATOM     19  N   UNL     1      32.955 -13.229 -21.976  0.00  0.00    -0.357 N 
ATOM     20  H   UNL     1      32.334 -12.938 -22.682  0.00  0.00    +0.142 HD
ATOM     21  H   UNL     1      33.133 -12.643 -21.205  0.00  0.00    +0.142 HD
ENDBRANCH  18  19
ENDBRANCH   1  13
TORSDOF 4
ENDMDL
MODEL 3
REMARK VINA RESULT:      -8.7      0.052      5.765
REMARK  Name = 2955
REMARK  4 active torsions:
REMARK  status: ('A' for Active; 'I' for Inactive)
REMARK    1  A    between atoms: S_1  and  C_4
REMARK    2  A    between atoms: S_1  and  C_13
REMARK    3  A    between atoms: C_9  and  N_10
REMARK    4  A    between atoms: C_18  and  N_19
REMARK                            x       y       z     vdW  Elec       q    Type
REMARK                         _______ _______ _______ _____ _____    ______ ____
ROOT
ATOM      1  S   UNL     1      35.651 -18.515 -22.343  0.00  0.00    +0.027 S 
ATOM      2  O   UNL     1      37.006 -18.357 -21.835  0.00  0.00    -0.164 OA
ATOM      3  O   UNL     1      35.439 -18.954 -23.716  0.00  0.00    -0.164 OA
ENDROOT
BRANCH   1   4
ATOM      4  C   UNL     1      34.846 -19.624 -21.260  0.00  0.00    +0.110 C 
ATOM      5  C   UNL     1      35.596 -20.485 -20.459  0.00  0.00    +0.020 C 
ATOM      6  C   UNL     1      33.452 -19.649 -21.196  0.00  0.00    +0.020 C 
ATOM      7  C   UNL     1      34.952 -21.370 -19.594  0.00  0.00    +0.015 C 
ATOM      8  C   UNL     1      32.809 -20.534 -20.332  0.00  0.00    +0.015 C 
ATOM      9  C   UNL     1      33.559 -21.395 -19.530  0.00  0.00    +0.042 C 
BRANCH   9  10
ATOM     10  N   UNL     1      32.908 -22.290 -18.656  0.00  0.00    -0.357 N 
ATOM     11  H   UNL     1      33.124 -23.250 -18.685  0.00  0.00    +0.142 HD
ATOM     12  H   UNL     1      32.241 -21.955 -18.015  0.00  0.00    +0.142 HD
ENDBRANCH   9  10
ENDBRANCH   1   4
BRANCH   1  13
ATOM     13  C   UNL     1      34.845 -16.941 -22.235  0.00  0.00    +0.110 C 
ATOM     14  C   UNL     1      34.753 -16.317 -21.005  0.00  0.00    +0.020 C 
ATOM     15  C   UNL     1      34.328 -16.372 -23.382  0.00  0.00    +0.020 C 
ATOM     16  C   UNL     1      34.119 -15.077 -20.920  0.00  0.00    +0.015 C 
ATOM     17  C   UNL     1      33.694 -15.132 -23.298  0.00  0.00    +0.015 C 
ATOM     18  C   UNL     1      33.590 -14.484 -22.067  0.00  0.00    +0.042 C 
BRANCH  18  19
ATOM     19  N   UNL     1      32.950 -13.231 -21.981  0.00  0.00    -0.357 N 
ATOM     20  H   UNL     1      32.264 -12.982 -22.642  0.00  0.00    +0.142 HD
ATOM     21  H   UNL     1      33.189 -12.604 -21.261  0.00  0.00    +0.142 HD
ENDBRANCH  18  19
ENDBRANCH   1  13
TORSDOF 4
ENDMDL
MODEL 4
REMARK VINA RESULT:      -8.2      4.161      5.488
REMARK  Name = 2955
REMARK  4 active torsions:
REMARK  status: ('A' for Active; 'I' for Inactive)
REMARK    1  A    between atoms: S_1  and  C_4
REMARK    2  A    between atoms: S_1  and  C_13
REMARK    3  A    between atoms: C_9  and  N_10
REMARK    4  A    between atoms: C_18  and  N_19
REMARK                            x       y       z     vdW  Elec       q    Type
REMARK                         _______ _______ _______ _____ _____    ______ ____
ROOT
ATOM      1  S   UNL     1      33.754 -22.605 -18.803  0.00  0.00    +0.027 S 
ATOM      2  O   UNL     1      32.392 -22.291 -18.395  0.00  0.00    -0.164 OA
ATOM      3  O   UNL     1      34.021 -23.824 -19.557  0.00  0.00    -0.164 OA
ENDROOT
BRANCH   1   4
ATOM      4  C   UNL     1      34.321 -21.232 -19.720  0.00  0.00    +0.110 C 
ATOM      5  C   UNL     1      35.689 -21.033 -19.906  0.00  0.00    +0.020 C 
ATOM      6  C   UNL     1      33.405 -20.333 -20.268  0.00  0.00    +0.020 C 
ATOM      7  C   UNL     1      36.141 -19.936 -20.639  0.00  0.00    +0.015 C 
ATOM      8  C   UNL     1      33.857 -19.235 -21.000  0.00  0.00    +0.015 C 
ATOM      9  C   UNL     1      35.225 -19.037 -21.187  0.00  0.00    +0.042 C 
BRANCH   9  10
ATOM     10  N   UNL     1      35.682 -17.927 -21.927  0.00  0.00    -0.357 N 
ATOM     11  H   UNL     1      35.123 -17.120 -22.001  0.00  0.00    +0.142 HD
ATOM     12  H   UNL     1      36.561 -17.959 -22.369  0.00  0.00    +0.142 HD
ENDBRANCH   9  10
ENDBRANCH   1   4
BRANCH   1  13
ATOM     13  C   UNL     1      34.740 -22.748 -17.338  0.00  0.00    +0.110 C 
ATOM     14  C   UNL     1      34.196 -23.350 -16.219  0.00  0.00    +0.020 C 
ATOM     15  C   UNL     1      36.030 -22.254 -17.346  0.00  0.00    +0.020 C 
ATOM     16  C   UNL     1      34.972 -23.463 -15.065  0.00  0.00    +0.015 C 
ATOM     17  C   UNL     1      36.806 -22.367 -16.192  0.00  0.00    +0.015 C 
ATOM     18  C   UNL     1      36.278 -22.971 -15.052  0.00  0.00    +0.042 C 
BRANCH  18  19
ATOM     19  N   UNL     1      37.062 -23.086 -13.886  0.00  0.00    -0.357 N 
ATOM     20  H   UNL     1      37.020 -22.387 -13.194  0.00  0.00    +0.142 HD
ATOM     21  H   UNL     1      37.653 -23.864 -13.765  0.00  0.00    +0.142 HD
ENDBRANCH  18  19
ENDBRANCH   1  13
TORSDOF 4
ENDMDL
MODEL 5
REMARK VINA RESULT:      -8.1      4.222      7.535
REMARK  Name = 2955
REMARK  4 active torsions:
REMARK  status: ('A' for Active; 'I' for Inactive)
REMARK    1  A    between atoms: S_1  and  C_4
REMARK    2  A    between atoms: S_1  and  C_13
REMARK    3  A    between atoms: C_9  and  N_10
REMARK    4  A    between atoms: C_18  and  N_19
REMARK                            x       y       z     vdW  Elec       q    Type
REMARK                         _______ _______ _______ _____ _____    ______ ____
ROOT
ATOM      1  S   UNL     1      33.755 -22.647 -18.729  0.00  0.00    +0.027 S 
ATOM      2  O   UNL     1      34.002 -23.860 -19.495  0.00  0.00    -0.164 OA
ATOM      3  O   UNL     1      32.390 -22.281 -18.373  0.00  0.00    -0.164 OA
ENDROOT
BRANCH   1   4
ATOM      4  C   UNL     1      34.707 -22.784 -17.271  0.00  0.00    +0.110 C 
ATOM      5  C   UNL     1      36.021 -22.317 -17.250  0.00  0.00    +0.020 C 
ATOM      6  C   UNL     1      34.152 -23.359 -16.127  0.00  0.00    +0.020 C 
ATOM      7  C   UNL     1      36.780 -22.426 -16.085  0.00  0.00    +0.015 C 
ATOM      8  C   UNL     1      34.911 -23.469 -14.963  0.00  0.00    +0.015 C 
ATOM      9  C   UNL     1      36.225 -23.002 -14.941  0.00  0.00    +0.042 C 
BRANCH   9  10
ATOM     10  N   UNL     1      36.993 -23.113 -13.763  0.00  0.00    -0.357 N 
ATOM     11  H   UNL     1      37.421 -22.314 -13.378  0.00  0.00    +0.142 HD
ATOM     12  H   UNL     1      37.101 -23.988 -13.326  0.00  0.00    +0.142 HD
ENDBRANCH   9  10
ENDBRANCH   1   4
BRANCH   1  13
ATOM     13  C   UNL     1      34.366 -21.277 -19.672  0.00  0.00    +0.110 C 
ATOM     14  C   UNL     1      35.731 -21.127 -19.831  0.00  0.00    +0.020 C 
ATOM     15  C   UNL     1      33.464 -20.391 -20.228  0.00  0.00    +0.020 C 
ATOM     16  C   UNL     1      36.212 -20.049 -20.574  0.00  0.00    +0.015 C 
ATOM     17  C   UNL     1      33.945 -19.312 -20.972  0.00  0.00    +0.015 C 
ATOM     18  C   UNL     1      35.319 -19.141 -21.145  0.00  0.00    +0.042 C 
BRANCH  18  19
ATOM     19  N   UNL     1      35.805 -18.052 -21.897  0.00  0.00    -0.357 N 
ATOM     20  H   UNL     1      36.256 -18.210 -22.757  0.00  0.00    +0.142 HD
ATOM     21  H   UNL     1      35.693 -17.133 -21.561  0.00  0.00    +0.142 HD
ENDBRANCH  18  19
ENDBRANCH   1  13
TORSDOF 4
ENDMDL
MODEL 6
REMARK VINA RESULT:      -7.3      2.641      3.458
REMARK  Name = 2955
REMARK  4 active torsions:
REMARK  status: ('A' for Active; 'I' for Inactive)
REMARK    1  A    between atoms: S_1  and  C_4
REMARK    2  A    between atoms: S_1  and  C_13
REMARK    3  A    between atoms: C_9  and  N_10
REMARK    4  A    between atoms: C_18  and  N_19
REMARK                            x       y       z     vdW  Elec       q    Type
REMARK                         _______ _______ _______ _____ _____    ______ ____
ROOT
ATOM      1  S   UNL     1      33.795 -15.863 -21.169  0.00  0.00    +0.027 S 
ATOM      2  O   UNL     1      34.832 -14.993 -20.632  0.00  0.00    -0.164 OA
ATOM      3  O   UNL     1      32.467 -15.862 -20.569  0.00  0.00    -0.164 OA
ENDROOT
BRANCH   1   4
ATOM      4  C   UNL     1      33.655 -15.472 -22.865  0.00  0.00    +0.110 C 
ATOM      5  C   UNL     1      34.136 -16.358 -23.828  0.00  0.00    +0.020 C 
ATOM      6  C   UNL     1      33.060 -14.272 -23.257  0.00  0.00    +0.020 C 
ATOM      7  C   UNL     1      34.023 -16.045 -25.182  0.00  0.00    +0.015 C 
ATOM      8  C   UNL     1      32.947 -13.959 -24.611  0.00  0.00    +0.015 C 
ATOM      9  C   UNL     1      33.428 -14.845 -25.574  0.00  0.00    +0.042 C 
BRANCH   9  10
ATOM     10  N   UNL     1      33.315 -14.529 -26.944  0.00  0.00    -0.357 N 
ATOM     11  H   UNL     1      33.985 -13.949 -27.372  0.00  0.00    +0.142 HD
ATOM     12  H   UNL     1      32.566 -14.889 -27.471  0.00  0.00    +0.142 HD
ENDBRANCH   9  10
ENDBRANCH   1   4
BRANCH   1  13
ATOM     13  C   UNL     1      34.363 -17.535 -21.023  0.00  0.00    +0.110 C 
ATOM     14  C   UNL     1      35.721 -17.787 -21.053  0.00  0.00    +0.020 C 
ATOM     15  C   UNL     1      33.435 -18.549 -20.882  0.00  0.00    +0.020 C 
ATOM     16  C   UNL     1      36.169 -19.104 -20.938  0.00  0.00    +0.015 C 
ATOM     17  C   UNL     1      33.882 -19.865 -20.767  0.00  0.00    +0.015 C 
ATOM     18  C   UNL     1      35.248 -20.143 -20.795  0.00  0.00    +0.042 C 
BRANCH  18  19
ATOM     19  N   UNL     1      35.700 -21.474 -20.677  0.00  0.00    -0.357 N 
ATOM     20  H   UNL     1      35.786 -21.888 -19.788  0.00  0.00    +0.142 HD
ATOM     21  H   UNL     1      35.931 -21.988 -21.484  0.00  0.00    +0.142 HD
ENDBRANCH  18  19
ENDBRANCH   1  13
TORSDOF 4
ENDMDL
MODEL 7
REMARK VINA RESULT:      -7.3      2.640      6.196
REMARK  Name = 2955
REMARK  4 active torsions:
REMARK  status: ('A' for Active; 'I' for Inactive)
REMARK    1  A    between atoms: S_1  and  C_4
REMARK    2  A    between atoms: S_1  and  C_13
REMARK    3  A    between atoms: C_9  and  N_10
REMARK    4  A    between atoms: C_18  and  N_19
REMARK                            x       y       z     vdW  Elec       q    Type
REMARK                         _______ _______ _______ _____ _____    ______ ____
ROOT
ATOM      1  S   UNL     1      33.806 -15.870 -21.163  0.00  0.00    +0.027 S 
ATOM      2  O   UNL     1      32.471 -15.838 -20.583  0.00  0.00    -0.164 OA
ATOM      3  O   UNL     1      34.837 -14.973 -20.657  0.00  0.00    -0.164 OA
ENDROOT
BRANCH   1   4
ATOM      4  C   UNL     1      34.365 -17.518 -21.021  0.00  0.00    +0.110 C 
ATOM      5  C   UNL     1      35.730 -17.797 -21.052  0.00  0.00    +0.020 C 
ATOM      6  C   UNL     1      33.444 -18.556 -20.876  0.00  0.00    +0.020 C 
ATOM      7  C   UNL     1      36.176 -19.114 -20.938  0.00  0.00    +0.015 C 
ATOM      8  C   UNL     1      33.889 -19.873 -20.763  0.00  0.00    +0.015 C 
ATOM      9  C   UNL     1      35.255 -20.152 -20.793  0.00  0.00    +0.042 C 
BRANCH   9  10
ATOM     10  N   UNL     1      35.706 -21.484 -20.678  0.00  0.00    -0.357 N 
ATOM     11  H   UNL     1      35.152 -22.152 -20.214  0.00  0.00    +0.142 HD
ATOM     12  H   UNL     1      36.573 -21.745 -21.064  0.00  0.00    +0.142 HD
ENDBRANCH   9  10
ENDBRANCH   1   4
BRANCH   1  13
ATOM     13  C   UNL     1      33.658 -15.473 -22.884  0.00  0.00    +0.110 C 
ATOM     14  C   UNL     1      33.061 -14.281 -23.249  0.00  0.00    +0.020 C 
ATOM     15  C   UNL     1      34.145 -16.363 -23.822  0.00  0.00    +0.020 C 
ATOM     16  C   UNL     1      32.945 -13.969 -24.604  0.00  0.00    +0.015 C 
ATOM     17  C   UNL     1      34.029 -16.051 -25.177  0.00  0.00    +0.015 C 
ATOM     18  C   UNL     1      33.430 -14.854 -25.568  0.00  0.00    +0.042 C 
BRANCH  18  19
ATOM     19  N   UNL     1      33.313 -14.537 -26.937  0.00  0.00    -0.357 N 
ATOM     20  H   UNL     1      32.454 -14.219 -27.297  0.00  0.00    +0.142 HD
ATOM     21  H   UNL     1      34.091 -14.635 -27.532  0.00  0.00    +0.142 HD
ENDBRANCH  18  19
ENDBRANCH   1  13
TORSDOF 4
ENDMDL
MODEL 8
REMARK VINA RESULT:      -7.3      1.619      2.284
REMARK  Name = 2955
REMARK  4 active torsions:
REMARK  status: ('A' for Active; 'I' for Inactive)
REMARK    1  A    between atoms: S_1  and  C_4
REMARK    2  A    between atoms: S_1  and  C_13
REMARK    3  A    between atoms: C_9  and  N_10
REMARK    4  A    between atoms: C_18  and  N_19
REMARK                            x       y       z     vdW  Elec       q    Type
REMARK                         _______ _______ _______ _____ _____    ______ ____
ROOT
ATOM      1  S   UNL     1      34.775 -16.906 -23.348  0.00  0.00    +0.027 S 
ATOM      2  O   UNL     1      33.938 -17.404 -24.431  0.00  0.00    -0.164 OA
ATOM      3  O   UNL     1      36.126 -16.439 -23.634  0.00  0.00    -0.164 OA
ENDROOT
BRANCH   1   4
ATOM      4  C   UNL     1      33.877 -15.618 -22.584  0.00  0.00    +0.110 C 
ATOM      5  C   UNL     1      33.293 -14.618 -23.361  0.00  0.00    +0.020 C 
ATOM      6  C   UNL     1      33.742 -15.590 -21.196  0.00  0.00    +0.020 C 
ATOM      7  C   UNL     1      32.576 -13.589 -22.751  0.00  0.00    +0.015 C 
ATOM      8  C   UNL     1      33.025 -14.562 -20.585  0.00  0.00    +0.015 C 
ATOM      9  C   UNL     1      32.441 -13.561 -21.362  0.00  0.00    +0.042 C 
BRANCH   9  10
ATOM     10  N   UNL     1      31.716 -12.522 -20.744  0.00  0.00    -0.357 N 
ATOM     11  H   UNL     1      32.017 -12.157 -19.881  0.00  0.00    +0.142 HD
ATOM     12  H   UNL     1      30.910 -12.160 -21.177  0.00  0.00    +0.142 HD
ENDBRANCH   9  10
ENDBRANCH   1   4
BRANCH   1  13
ATOM     13  C   UNL     1      34.982 -18.218 -22.176  0.00  0.00    +0.110 C 
ATOM     14  C   UNL     1      33.882 -18.970 -21.810  0.00  0.00    +0.020 C 
ATOM     15  C   UNL     1      36.239 -18.461 -21.656  0.00  0.00    +0.020 C 
ATOM     16  C   UNL     1      34.045 -20.004 -20.887  0.00  0.00    +0.015 C 
ATOM     17  C   UNL     1      36.402 -19.495 -20.734  0.00  0.00    +0.015 C 
ATOM     18  C   UNL     1      35.305 -20.267 -20.349  0.00  0.00    +0.042 C 
BRANCH  18  19
ATOM     19  N   UNL     1      35.470 -21.312 -19.417  0.00  0.00    -0.357 N 
ATOM     20  H   UNL     1      35.779 -21.112 -18.504  0.00  0.00    +0.142 HD
ATOM     21  H   UNL     1      35.278 -22.241 -19.680  0.00  0.00    +0.142 HD
ENDBRANCH  18  19
ENDBRANCH   1  13
TORSDOF 4
ENDMDL
MODEL 9
REMARK VINA RESULT:      -7.1      8.619      9.852
REMARK  Name = 2955
REMARK  4 active torsions:
REMARK  status: ('A' for Active; 'I' for Inactive)
REMARK    1  A    between atoms: S_1  and  C_4
REMARK    2  A    between atoms: S_1  and  C_13
REMARK    3  A    between atoms: C_9  and  N_10
REMARK    4  A    between atoms: C_18  and  N_19
REMARK                            x       y       z     vdW  Elec       q    Type
REMARK                         _______ _______ _______ _____ _____    ______ ____
ROOT
ATOM      1  S   UNL     1      31.424 -24.301 -13.911  0.00  0.00    +0.027 S 
ATOM      2  O   UNL     1      31.422 -25.755 -13.829  0.00  0.00    -0.164 OA
ATOM      3  O   UNL     1      31.188 -23.508 -12.712  0.00  0.00    -0.164 OA
ENDROOT
BRANCH   1   4
ATOM      4  C   UNL     1      32.963 -23.849 -14.600  0.00  0.00    +0.110 C 
ATOM      5  C   UNL     1      33.044 -23.466 -15.938  0.00  0.00    +0.020 C 
ATOM      6  C   UNL     1      34.114 -23.871 -13.811  0.00  0.00    +0.020 C 
ATOM      7  C   UNL     1      34.274 -23.105 -16.488  0.00  0.00    +0.015 C 
ATOM      8  C   UNL     1      35.344 -23.511 -14.360  0.00  0.00    +0.015 C 
ATOM      9  C   UNL     1      35.425 -23.127 -15.699  0.00  0.00    +0.042 C 
BRANCH   9  10
ATOM     10  N   UNL     1      36.668 -22.762 -16.254  0.00  0.00    -0.357 N 
ATOM     11  H   UNL     1      37.288 -23.458 -16.572  0.00  0.00    +0.142 HD
ATOM     12  H   UNL     1      36.915 -21.812 -16.326  0.00  0.00    +0.142 HD
ENDBRANCH   9  10
ENDBRANCH   1   4
BRANCH   1  13
ATOM     13  C   UNL     1      30.142 -23.821 -15.037  0.00  0.00    +0.110 C 
ATOM     14  C   UNL     1      29.609 -24.769 -15.890  0.00  0.00    +0.020 C 
ATOM     15  C   UNL     1      29.705 -22.511 -15.036  0.00  0.00    +0.020 C 
ATOM     16  C   UNL     1      28.599 -24.392 -16.776  0.00  0.00    +0.015 C 
ATOM     17  C   UNL     1      28.695 -22.134 -15.922  0.00  0.00    +0.015 C 
ATOM     18  C   UNL     1      28.142 -23.073 -16.792  0.00  0.00    +0.042 C 
BRANCH  18  19
ATOM     19  N   UNL     1      27.122 -22.692 -17.687  0.00  0.00    -0.357 N 
ATOM     20  H   UNL     1      27.311 -22.039 -18.399  0.00  0.00    +0.142 HD
ATOM     21  H   UNL     1      26.220 -23.077 -17.599  0.00  0.00    +0.142 HD
ENDBRANCH  18  19
ENDBRANCH   1  13
TORSDOF 4
ENDMDL
