MODEL 1
REMARK VINA RESULT:      -4.4      0.000      0.000
REMARK  Name = 11668
REMARK  1 active torsions:
REMARK  status: ('A' for Active; 'I' for Inactive)
REMARK    1  A    between atoms: S_1  and  C_5
REMARK                            x       y       z     vdW  Elec       q    Type
REMARK                         _______ _______ _______ _____ _____    ______ ____
ROOT
ATOM      1  S   UNL     1      27.946 -22.927 -16.463  0.00  0.00    +0.023 S 
ATOM      2  O   UNL     1      27.600 -24.024 -17.620  0.00  0.00    -0.069 OA
ATOM      3  O   UNL     1      28.852 -21.937 -17.017  0.00  0.00    -0.069 OA
ATOM      4  O   UNL     1      26.711 -22.539 -15.806  0.00  0.00    -0.069 OA
ENDROOT
BRANCH   1   5
ATOM      5  C   UNL     1      28.849 -23.998 -15.393  0.00  0.00    +0.158 C 
ATOM      6  C   UNL     1      30.148 -23.367 -14.944  0.00  0.00    +0.028 C 
ENDBRANCH   1   5
TORSDOF 1
ENDMDL
MODEL 2
REMARK VINA RESULT:      -4.2      6.017      6.692
REMARK  Name = 11668
REMARK  1 active torsions:
REMARK  status: ('A' for Active; 'I' for Inactive)
REMARK    1  A    between atoms: S_1  and  C_5
REMARK                            x       y       z     vdW  Elec       q    Type
REMARK                         _______ _______ _______ _____ _____    ______ ____
ROOT
ATOM      1  S   UNL     1      33.843 -22.603 -18.595  0.00  0.00    +0.023 S 
ATOM      2  O   UNL     1      33.972 -23.839 -19.651  0.00  0.00    -0.069 OA
ATOM      3  O   UNL     1      32.442 -22.423 -18.258  0.00  0.00    -0.069 OA
ATOM      4  O   UNL     1      34.855 -22.762 -17.566  0.00  0.00    -0.069 OA
ENDROOT
BRANCH   1   5
ATOM      5  C   UNL     1      34.341 -21.312 -19.689  0.00  0.00    +0.158 C 
ATOM      6  C   UNL     1      33.156 -20.504 -20.168  0.00  0.00    +0.028 C 
ENDBRANCH   1   5
TORSDOF 1
ENDMDL
MODEL 3
REMARK VINA RESULT:      -4.1     14.994     15.419
REMARK  Name = 11668
REMARK  1 active torsions:
REMARK  status: ('A' for Active; 'I' for Inactive)
REMARK    1  A    between atoms: S_1  and  C_5
REMARK                            x       y       z     vdW  Elec       q    Type
REMARK                         _______ _______ _______ _____ _____    ______ ____
ROOT
ATOM      1  S   UNL     1      41.853 -16.319 -16.633  0.00  0.00    +0.023 S 
ATOM      2  O   UNL     1      41.512 -17.792 -17.244  0.00  0.00    -0.069 OA
ATOM      3  O   UNL     1      40.725 -15.873 -15.835  0.00  0.00    -0.069 OA
ATOM      4  O   UNL     1      43.201 -16.340 -16.093  0.00  0.00    -0.069 OA
ENDROOT
BRANCH   1   5
ATOM      5  C   UNL     1      41.863 -15.433 -18.158  0.00  0.00    +0.158 C 
ATOM      6  C   UNL     1      41.164 -14.098 -18.029  0.00  0.00    +0.028 C 
ENDBRANCH   1   5
TORSDOF 1
ENDMDL
MODEL 4
REMARK VINA RESULT:      -4.1     14.985     15.431
REMARK  Name = 11668
REMARK  1 active torsions:
REMARK  status: ('A' for Active; 'I' for Inactive)
REMARK    1  A    between atoms: S_1  and  C_5
REMARK                            x       y       z     vdW  Elec       q    Type
REMARK                         _______ _______ _______ _____ _____    ______ ____
ROOT
ATOM      1  S   UNL     1      41.709 -16.416 -16.694  0.00  0.00    +0.023 S 
ATOM      2  O   UNL     1      43.226 -16.237 -16.123  0.00  0.00    -0.069 OA
ATOM      3  O   UNL     1      41.516 -17.804 -17.074  0.00  0.00    -0.069 OA
ATOM      4  O   UNL     1      40.790 -15.742 -15.794  0.00  0.00    -0.069 OA
ENDROOT
BRANCH   1   5
ATOM      5  C   UNL     1      41.895 -15.442 -18.152  0.00  0.00    +0.158 C 
ATOM      6  C   UNL     1      41.179 -14.116 -18.029  0.00  0.00    +0.028 C 
ENDBRANCH   1   5
TORSDOF 1
ENDMDL
MODEL 5
REMARK VINA RESULT:      -4.0     14.651     15.327
REMARK  Name = 11668
REMARK  1 active torsions:
REMARK  status: ('A' for Active; 'I' for Inactive)
REMARK    1  A    between atoms: S_1  and  C_5
REMARK                            x       y       z     vdW  Elec       q    Type
REMARK                         _______ _______ _______ _____ _____    ______ ____
ROOT
ATOM      1  S   UNL     1      41.937 -16.092 -16.771  0.00  0.00    +0.023 S 
ATOM      2  O   UNL     1      41.458 -17.639 -16.967  0.00  0.00    -0.069 OA
ATOM      3  O   UNL     1      43.351 -16.081 -16.438  0.00  0.00    -0.069 OA
ATOM      4  O   UNL     1      41.412 -15.299 -17.869  0.00  0.00    -0.069 OA
ENDROOT
BRANCH   1   5
ATOM      5  C   UNL     1      41.002 -15.743 -15.318  0.00  0.00    +0.158 C 
ATOM      6  C   UNL     1      40.971 -14.260 -15.021  0.00  0.00    +0.028 C 
ENDBRANCH   1   5
TORSDOF 1
ENDMDL
MODEL 6
REMARK VINA RESULT:      -4.0     14.630     15.382
REMARK  Name = 11668
REMARK  1 active torsions:
REMARK  status: ('A' for Active; 'I' for Inactive)
REMARK    1  A    between atoms: S_1  and  C_5
REMARK                            x       y       z     vdW  Elec       q    Type
REMARK                         _______ _______ _______ _____ _____    ______ ____
ROOT
ATOM      1  S   UNL     1      41.913 -16.300 -16.646  0.00  0.00    +0.023 S 
ATOM      2  O   UNL     1      41.351 -15.249 -17.760  0.00  0.00    -0.069 OA
ATOM      3  O   UNL     1      41.454 -17.634 -16.991  0.00  0.00    -0.069 OA
ATOM      4  O   UNL     1      43.318 -16.020 -16.410  0.00  0.00    -0.069 OA
ENDROOT
BRANCH   1   5
ATOM      5  C   UNL     1      40.975 -15.706 -15.276  0.00  0.00    +0.158 C 
ATOM      6  C   UNL     1      41.042 -14.199 -15.169  0.00  0.00    +0.028 C 
ENDBRANCH   1   5
TORSDOF 1
ENDMDL
MODEL 7
REMARK VINA RESULT:      -4.0      9.767     10.436
REMARK  Name = 11668
REMARK  1 active torsions:
REMARK  status: ('A' for Active; 'I' for Inactive)
REMARK    1  A    between atoms: S_1  and  C_5
REMARK                            x       y       z     vdW  Elec       q    Type
REMARK                         _______ _______ _______ _____ _____    ______ ____
ROOT
ATOM      1  S   UNL     1      37.384 -23.687 -11.913  0.00  0.00    +0.023 S 
ATOM      2  O   UNL     1      36.683 -24.028 -10.480  0.00  0.00    -0.069 OA
ATOM      3  O   UNL     1      36.368 -23.181 -12.820  0.00  0.00    -0.069 OA
ATOM      4  O   UNL     1      38.613 -22.954 -11.668  0.00  0.00    -0.069 OA
ENDROOT
BRANCH   1   5
ATOM      5  C   UNL     1      37.788 -25.342 -12.371  0.00  0.00    +0.158 C 
ATOM      6  C   UNL     1      38.949 -25.381 -13.340  0.00  0.00    +0.028 C 
ENDBRANCH   1   5
TORSDOF 1
ENDMDL
MODEL 8
REMARK VINA RESULT:      -3.9      9.199      9.425
REMARK  Name = 11668
REMARK  1 active torsions:
REMARK  status: ('A' for Active; 'I' for Inactive)
REMARK    1  A    between atoms: S_1  and  C_5
REMARK                            x       y       z     vdW  Elec       q    Type
REMARK                         _______ _______ _______ _____ _____    ______ ____
ROOT
ATOM      1  S   UNL     1      36.091 -24.471 -11.054  0.00  0.00    +0.023 S 
ATOM      2  O   UNL     1      37.170 -23.253 -10.935  0.00  0.00    -0.069 OA
ATOM      3  O   UNL     1      36.770 -25.646 -11.571  0.00  0.00    -0.069 OA
ATOM      4  O   UNL     1      35.311 -24.523  -9.831  0.00  0.00    -0.069 OA
ENDROOT
BRANCH   1   5
ATOM      5  C   UNL     1      35.097 -23.773 -12.334  0.00  0.00    +0.158 C 
ATOM      6  C   UNL     1      35.370 -24.430 -13.668  0.00  0.00    +0.028 C 
ENDBRANCH   1   5
TORSDOF 1
ENDMDL
MODEL 9
REMARK VINA RESULT:      -3.9     14.848     15.505
REMARK  Name = 11668
REMARK  1 active torsions:
REMARK  status: ('A' for Active; 'I' for Inactive)
REMARK    1  A    between atoms: S_1  and  C_5
REMARK                            x       y       z     vdW  Elec       q    Type
REMARK                         _______ _______ _______ _____ _____    ______ ____
ROOT
ATOM      1  S   UNL     1      41.488 -15.508 -16.434  0.00  0.00    +0.023 S 
ATOM      2  O   UNL     1      42.991 -16.075 -16.149  0.00  0.00    -0.069 OA
ATOM      3  O   UNL     1      41.325 -15.321 -17.865  0.00  0.00    -0.069 OA
ATOM      4  O   UNL     1      40.541 -16.290 -15.660  0.00  0.00    -0.069 OA
ENDROOT
BRANCH   1   5
ATOM      5  C   UNL     1      41.686 -13.932 -15.669  0.00  0.00    +0.158 C 
ATOM      6  C   UNL     1      40.772 -13.777 -14.474  0.00  0.00    +0.028 C 
ENDBRANCH   1   5
TORSDOF 1
ENDMDL
