MODEL 1
REMARK VINA RESULT:     -11.6      0.000      0.000
REMARK  Name = 21874557
REMARK  4 active torsions:
REMARK  status: ('A' for Active; 'I' for Inactive)
REMARK    1  A    between atoms: N_1  and  C_18
REMARK    2  A    between atoms: C_9  and  C_14
REMARK    3  A    between atoms: C_18  and  C_19
REMARK    4  A    between atoms: C_23  and  N_26
REMARK                            x       y       z     vdW  Elec       q    Type
REMARK                         _______ _______ _______ _____ _____    ______ ____
ROOT
ATOM      1  N   UNL     1      34.918 -16.543 -21.837  0.00  0.00    -0.170 N 
ATOM      2  N   UNL     1      34.798 -15.936 -20.641  0.00  0.00    -0.042 NA
ATOM      3  N   UNL     1      34.085 -14.826 -20.821  0.00  0.00    -0.137 NA
ATOM      4  N   UNL     1      34.183 -16.120 -24.118  0.00  0.00    -0.310 NA
ATOM      5  N   UNL     1      32.897 -14.045 -24.232  0.00  0.00    -0.324 NA
ATOM      6  N   UNL     1      33.291 -15.348 -26.140  0.00  0.00    -0.283 N 
ATOM      7  C   UNL     1      34.284 -15.836 -22.813  0.00  0.00    +0.238 C 
ATOM      8  C   UNL     1      33.759 -14.746 -22.146  0.00  0.00    +0.181 C 
ATOM      9  C   UNL     1      33.042 -13.827 -22.902  0.00  0.00    +0.202 C 
ATOM     10  C   UNL     1      33.468 -15.162 -24.750  0.00  0.00    +0.198 C 
ATOM     11  H   UNL     1      33.679 -16.137 -26.585  0.00  0.00    +0.156 HD
ATOM     12  H   UNL     1      32.781 -14.689 -26.664  0.00  0.00    +0.156 HD
ENDROOT
BRANCH   9  14
ATOM     13  O   UNL     1      32.637 -11.508 -23.023  0.00  0.00    -0.448 OA
ATOM     14  C   UNL     1      32.454 -12.660 -22.324  0.00  0.00    +0.178 C 
ATOM     15  C   UNL     1      31.722 -12.423 -21.185  0.00  0.00    +0.043 C 
ATOM     16  C   UNL     1      31.435 -11.036 -21.183  0.00  0.00    +0.044 C 
ATOM     17  C   UNL     1      32.013 -10.525 -22.322  0.00  0.00    +0.180 C 
ENDBRANCH   9  14
BRANCH   1  18
ATOM     18  C   UNL     1      35.657 -17.803 -21.964  0.00  0.00    +0.145 C 
BRANCH  18  19
ATOM     19  C   UNL     1      34.976 -18.922 -21.253  0.00  0.00    -0.001 C 
ATOM     20  C   UNL     1      35.724 -19.829 -20.501  0.00  0.00    -0.006 C 
ATOM     21  C   UNL     1      35.085 -20.876 -19.835  0.00  0.00    -0.009 C 
ATOM     22  C   UNL     1      33.591 -19.062 -21.339  0.00  0.00    -0.001 C 
ATOM     23  C   UNL     1      33.700 -21.015 -19.922  0.00  0.00    +0.037 C 
ATOM     24  C   UNL     1      32.952 -20.109 -20.673  0.00  0.00    +0.013 C 
ATOM     25  C   UNL     1      35.910 -21.832 -19.037  0.00  0.00    +0.032 C 
BRANCH  23  26
ATOM     26  N   UNL     1      33.037 -22.068 -19.254  0.00  0.00    -0.357 N 
ATOM     27  H   UNL     1      33.214 -23.002 -19.510  0.00  0.00    +0.142 HD
ATOM     28  H   UNL     1      32.397 -21.869 -18.533  0.00  0.00    +0.142 HD
ENDBRANCH  23  26
ENDBRANCH  18  19
ENDBRANCH   1  18
TORSDOF 4
ENDMDL
MODEL 2
REMARK VINA RESULT:     -10.1      2.033      3.161
REMARK  Name = 21874557
REMARK  4 active torsions:
REMARK  status: ('A' for Active; 'I' for Inactive)
REMARK    1  A    between atoms: N_1  and  C_18
REMARK    2  A    between atoms: C_9  and  C_14
REMARK    3  A    between atoms: C_18  and  C_19
REMARK    4  A    between atoms: C_23  and  N_26
REMARK                            x       y       z     vdW  Elec       q    Type
REMARK                         _______ _______ _______ _____ _____    ______ ____
ROOT
ATOM      1  N   UNL     1      35.648 -17.815 -22.666  0.00  0.00    -0.170 N 
ATOM      2  N   UNL     1      35.681 -18.149 -23.970  0.00  0.00    -0.042 NA
ATOM      3  N   UNL     1      35.025 -17.206 -24.645  0.00  0.00    -0.137 NA
ATOM      4  N   UNL     1      34.730 -16.003 -21.325  0.00  0.00    -0.310 NA
ATOM      5  N   UNL     1      33.572 -14.388 -22.747  0.00  0.00    -0.324 NA
ATOM      6  N   UNL     1      33.701 -14.103 -20.424  0.00  0.00    -0.283 N 
ATOM      7  C   UNL     1      34.970 -16.650 -22.474  0.00  0.00    +0.238 C 
ATOM      8  C   UNL     1      34.582 -16.278 -23.746  0.00  0.00    +0.181 C 
ATOM      9  C   UNL     1      33.855 -15.099 -23.866  0.00  0.00    +0.202 C 
ATOM     10  C   UNL     1      34.020 -14.877 -21.564  0.00  0.00    +0.198 C 
ATOM     11  H   UNL     1      33.993 -14.397 -19.532  0.00  0.00    +0.156 HD
ATOM     12  H   UNL     1      33.186 -13.270 -20.524  0.00  0.00    +0.156 HD
ENDROOT
BRANCH   9  14
ATOM     13  O   UNL     1      33.576 -13.282 -25.341  0.00  0.00    -0.448 OA
ATOM     14  C   UNL     1      33.398 -14.614 -25.130  0.00  0.00    +0.178 C 
ATOM     15  C   UNL     1      32.800 -15.200 -26.220  0.00  0.00    +0.043 C 
ATOM     16  C   UNL     1      32.595 -14.163 -27.162  0.00  0.00    +0.044 C 
ATOM     17  C   UNL     1      33.085 -13.016 -26.580  0.00  0.00    +0.180 C 
ENDBRANCH   9  14
BRANCH   1  18
ATOM     18  C   UNL     1      36.292 -18.666 -21.661  0.00  0.00    +0.145 C 
BRANCH  18  19
ATOM     19  C   UNL     1      35.309 -19.542 -20.961  0.00  0.00    -0.001 C 
ATOM     20  C   UNL     1      35.751 -20.494 -20.042  0.00  0.00    -0.006 C 
ATOM     21  C   UNL     1      34.830 -21.312 -19.388  0.00  0.00    -0.009 C 
ATOM     22  C   UNL     1      33.945 -19.410 -21.227  0.00  0.00    -0.001 C 
ATOM     23  C   UNL     1      33.467 -21.180 -19.653  0.00  0.00    +0.037 C 
ATOM     24  C   UNL     1      33.024 -20.229 -20.573  0.00  0.00    +0.013 C 
ATOM     25  C   UNL     1      35.332 -22.323 -18.408  0.00  0.00    +0.032 C 
BRANCH  23  26
ATOM     26  N   UNL     1      32.521 -21.999 -19.001  0.00  0.00    -0.357 N 
ATOM     27  H   UNL     1      31.605 -22.073 -19.356  0.00  0.00    +0.142 HD
ATOM     28  H   UNL     1      32.776 -22.497 -18.191  0.00  0.00    +0.142 HD
ENDBRANCH  23  26
ENDBRANCH  18  19
ENDBRANCH   1  18
TORSDOF 4
ENDMDL
MODEL 3
REMARK VINA RESULT:      -9.9      1.352      1.875
REMARK  Name = 21874557
REMARK  4 active torsions:
REMARK  status: ('A' for Active; 'I' for Inactive)
REMARK    1  A    between atoms: N_1  and  C_18
REMARK    2  A    between atoms: C_9  and  C_14
REMARK    3  A    between atoms: C_18  and  C_19
REMARK    4  A    between atoms: C_23  and  N_26
REMARK                            x       y       z     vdW  Elec       q    Type
REMARK                         _______ _______ _______ _____ _____    ______ ____
ROOT
ATOM      1  N   UNL     1      34.067 -16.636 -22.439  0.00  0.00    -0.170 N 
ATOM      2  N   UNL     1      33.880 -16.473 -21.115  0.00  0.00    -0.042 NA
ATOM      3  N   UNL     1      33.297 -15.290 -20.933  0.00  0.00    -0.137 NA
ATOM      4  N   UNL     1      33.620 -15.359 -24.461  0.00  0.00    -0.310 NA
ATOM      5  N   UNL     1      32.553 -13.231 -23.910  0.00  0.00    -0.324 NA
ATOM      6  N   UNL     1      33.022 -13.828 -26.128  0.00  0.00    -0.283 N 
ATOM      7  C   UNL     1      33.608 -15.562 -23.136  0.00  0.00    +0.238 C 
ATOM      8  C   UNL     1      33.121 -14.714 -22.160  0.00  0.00    +0.181 C 
ATOM      9  C   UNL     1      32.577 -13.508 -22.583  0.00  0.00    +0.202 C 
ATOM     10  C   UNL     1      33.068 -14.160 -24.754  0.00  0.00    +0.198 C 
ATOM     11  H   UNL     1      33.378 -14.454 -26.798  0.00  0.00    +0.156 HD
ATOM     12  H   UNL     1      32.634 -12.969 -26.414  0.00  0.00    +0.156 HD
ENDROOT
BRANCH   9  14
ATOM     13  O   UNL     1      32.307 -12.794 -20.354  0.00  0.00    -0.448 OA
ATOM     14  C   UNL     1      32.044 -12.551 -21.666  0.00  0.00    +0.178 C 
ATOM     15  C   UNL     1      31.301 -11.403 -21.805  0.00  0.00    +0.043 C 
ATOM     16  C   UNL     1      31.093 -10.907 -20.496  0.00  0.00    +0.044 C 
ATOM     17  C   UNL     1      31.725 -11.788 -19.649  0.00  0.00    +0.180 C 
ENDBRANCH   9  14
BRANCH   1  18
ATOM     18  C   UNL     1      34.694 -17.856 -22.959  0.00  0.00    +0.145 C 
BRANCH  18  19
ATOM     19  C   UNL     1      35.148 -18.759 -21.863  0.00  0.00    -0.001 C 
ATOM     20  C   UNL     1      34.239 -19.620 -21.246  0.00  0.00    -0.006 C 
ATOM     21  C   UNL     1      34.665 -20.465 -20.221  0.00  0.00    -0.009 C 
ATOM     22  C   UNL     1      36.482 -18.743 -21.453  0.00  0.00    -0.001 C 
ATOM     23  C   UNL     1      35.999 -20.449 -19.812  0.00  0.00    +0.037 C 
ATOM     24  C   UNL     1      36.907 -19.588 -20.428  0.00  0.00    +0.013 C 
ATOM     25  C   UNL     1      33.671 -21.377 -19.579  0.00  0.00    +0.032 C 
BRANCH  23  26
ATOM     26  N   UNL     1      36.447 -21.297 -18.777  0.00  0.00    -0.357 N 
ATOM     27  H   UNL     1      37.399 -21.543 -18.720  0.00  0.00    +0.142 HD
ATOM     28  H   UNL     1      35.809 -21.643 -18.112  0.00  0.00    +0.142 HD
ENDBRANCH  23  26
ENDBRANCH  18  19
ENDBRANCH   1  18
TORSDOF 4
ENDMDL
MODEL 4
REMARK VINA RESULT:      -9.9      5.372     10.404
REMARK  Name = 21874557
REMARK  4 active torsions:
REMARK  status: ('A' for Active; 'I' for Inactive)
REMARK    1  A    between atoms: N_1  and  C_18
REMARK    2  A    between atoms: C_9  and  C_14
REMARK    3  A    between atoms: C_18  and  C_19
REMARK    4  A    between atoms: C_23  and  N_26
REMARK                            x       y       z     vdW  Elec       q    Type
REMARK                         _______ _______ _______ _____ _____    ______ ____
ROOT
ATOM      1  N   UNL     1      34.143 -22.813 -17.988  0.00  0.00    -0.170 N 
ATOM      2  N   UNL     1      35.464 -22.655 -17.774  0.00  0.00    -0.042 NA
ATOM      3  N   UNL     1      35.694 -22.892 -16.484  0.00  0.00    -0.137 NA
ATOM      4  N   UNL     1      32.191 -23.394 -16.657  0.00  0.00    -0.310 NA
ATOM      5  N   UNL     1      32.828 -23.788 -14.331  0.00  0.00    -0.324 NA
ATOM      6  N   UNL     1      30.602 -23.980 -15.040  0.00  0.00    -0.283 N 
ATOM      7  C   UNL     1      33.497 -23.154 -16.840  0.00  0.00    +0.238 C 
ATOM      8  C   UNL     1      34.501 -23.200 -15.893  0.00  0.00    +0.181 C 
ATOM      9  C   UNL     1      34.133 -23.531 -14.595  0.00  0.00    +0.202 C 
ATOM     10  C   UNL     1      31.951 -23.704 -15.362  0.00  0.00    +0.198 C 
ATOM     11  H   UNL     1      29.911 -23.938 -15.739  0.00  0.00    +0.156 HD
ATOM     12  H   UNL     1      30.355 -24.213 -14.116  0.00  0.00    +0.156 HD
ENDROOT
BRANCH   9  14
ATOM     13  O   UNL     1      34.617 -24.143 -12.371  0.00  0.00    -0.448 OA
ATOM     14  C   UNL     1      35.084 -23.609 -13.531  0.00  0.00    +0.178 C 
ATOM     15  C   UNL     1      36.406 -23.257 -13.403  0.00  0.00    +0.043 C 
ATOM     16  C   UNL     1      36.778 -23.596 -12.079  0.00  0.00    +0.044 C 
ATOM     17  C   UNL     1      35.654 -24.132 -11.493  0.00  0.00    +0.180 C 
ENDBRANCH   9  14
BRANCH   1  18
ATOM     18  C   UNL     1      33.576 -22.618 -19.325  0.00  0.00    +0.145 C 
BRANCH  18  19
ATOM     19  C   UNL     1      33.947 -21.293 -19.900  0.00  0.00    -0.001 C 
ATOM     20  C   UNL     1      35.290 -20.962 -20.082  0.00  0.00    -0.006 C 
ATOM     21  C   UNL     1      35.636 -19.722 -20.620  0.00  0.00    -0.009 C 
ATOM     22  C   UNL     1      32.950 -20.383 -20.255  0.00  0.00    -0.001 C 
ATOM     23  C   UNL     1      34.640 -18.814 -20.975  0.00  0.00    +0.037 C 
ATOM     24  C   UNL     1      33.297 -19.143 -20.793  0.00  0.00    +0.013 C 
ATOM     25  C   UNL     1      37.082 -19.395 -20.804  0.00  0.00    +0.032 C 
BRANCH  23  26
ATOM     26  N   UNL     1      34.971 -17.555 -21.521  0.00  0.00    -0.357 N 
ATOM     27  H   UNL     1      35.884 -17.200 -21.421  0.00  0.00    +0.142 HD
ATOM     28  H   UNL     1      34.291 -17.031 -22.002  0.00  0.00    +0.142 HD
ENDBRANCH  23  26
ENDBRANCH  18  19
ENDBRANCH   1  18
TORSDOF 4
ENDMDL
MODEL 5
REMARK VINA RESULT:      -9.9      2.830      8.007
REMARK  Name = 21874557
REMARK  4 active torsions:
REMARK  status: ('A' for Active; 'I' for Inactive)
REMARK    1  A    between atoms: N_1  and  C_18
REMARK    2  A    between atoms: C_9  and  C_14
REMARK    3  A    between atoms: C_18  and  C_19
REMARK    4  A    between atoms: C_23  and  N_26
REMARK                            x       y       z     vdW  Elec       q    Type
REMARK                         _______ _______ _______ _____ _____    ______ ____
ROOT
ATOM      1  N   UNL     1      31.916 -12.947 -21.984  0.00  0.00    -0.170 N 
ATOM      2  N   UNL     1      32.238 -13.375 -20.748  0.00  0.00    -0.042 NA
ATOM      3  N   UNL     1      33.044 -14.427 -20.883  0.00  0.00    -0.137 NA
ATOM      4  N   UNL     1      32.425 -13.598 -24.272  0.00  0.00    -0.310 NA
ATOM      5  N   UNL     1      33.911 -15.538 -24.299  0.00  0.00    -0.324 NA
ATOM      6  N   UNL     1      33.159 -14.544 -26.284  0.00  0.00    -0.283 N 
ATOM      7  C   UNL     1      32.507 -13.714 -22.940  0.00  0.00    +0.238 C 
ATOM      8  C   UNL     1      33.222 -14.651 -22.219  0.00  0.00    +0.181 C 
ATOM      9  C   UNL     1      33.944 -15.591 -22.945  0.00  0.00    +0.202 C 
ATOM     10  C   UNL     1      33.164 -14.560 -24.870  0.00  0.00    +0.198 C 
ATOM     11  H   UNL     1      32.639 -13.862 -26.767  0.00  0.00    +0.156 HD
ATOM     12  H   UNL     1      33.675 -15.216 -26.786  0.00  0.00    +0.156 HD
ENDROOT
BRANCH   9  14
ATOM     13  O   UNL     1      35.402 -17.431 -23.151  0.00  0.00    -0.448 OA
ATOM     14  C   UNL     1      34.719 -16.609 -22.310  0.00  0.00    +0.178 C 
ATOM     15  C   UNL     1      34.944 -16.964 -21.000  0.00  0.00    +0.043 C 
ATOM     16  C   UNL     1      35.820 -18.075 -21.038  0.00  0.00    +0.044 C 
ATOM     17  C   UNL     1      36.069 -18.320 -22.369  0.00  0.00    +0.180 C 
ENDBRANCH   9  14
BRANCH   1  18
ATOM     18  C   UNL     1      31.032 -11.791 -22.166  0.00  0.00    +0.145 C 
BRANCH  18  19
ATOM     19  C   UNL     1      31.569 -10.570 -21.499  0.00  0.00    -0.001 C 
ATOM     20  C   UNL     1      32.213  -9.588 -22.253  0.00  0.00    -0.006 C 
ATOM     21  C   UNL     1      32.714  -8.446 -21.628  0.00  0.00    -0.009 C 
ATOM     22  C   UNL     1      31.428 -10.409 -20.120  0.00  0.00    -0.001 C 
ATOM     23  C   UNL     1      32.572  -8.285 -20.250  0.00  0.00    +0.037 C 
ATOM     24  C   UNL     1      31.929  -9.267 -19.496  0.00  0.00    +0.013 C 
ATOM     25  C   UNL     1      33.398  -7.410 -22.460  0.00  0.00    +0.032 C 
BRANCH  23  26
ATOM     26  N   UNL     1      33.072  -7.136 -19.601  0.00  0.00    -0.357 N 
ATOM     27  H   UNL     1      33.030  -7.067 -18.619  0.00  0.00    +0.142 HD
ATOM     28  H   UNL     1      33.464  -6.403 -20.128  0.00  0.00    +0.142 HD
ENDBRANCH  23  26
ENDBRANCH  18  19
ENDBRANCH   1  18
TORSDOF 4
ENDMDL
MODEL 6
REMARK VINA RESULT:      -9.8      4.323      9.542
REMARK  Name = 21874557
REMARK  4 active torsions:
REMARK  status: ('A' for Active; 'I' for Inactive)
REMARK    1  A    between atoms: N_1  and  C_18
REMARK    2  A    between atoms: C_9  and  C_14
REMARK    3  A    between atoms: C_18  and  C_19
REMARK    4  A    between atoms: C_23  and  N_26
REMARK                            x       y       z     vdW  Elec       q    Type
REMARK                         _______ _______ _______ _____ _____    ______ ____
ROOT
ATOM      1  N   UNL     1      33.913 -21.313 -19.609  0.00  0.00    -0.170 N 
ATOM      2  N   UNL     1      35.255 -21.242 -19.698  0.00  0.00    -0.042 NA
ATOM      3  N   UNL     1      35.764 -21.895 -18.655  0.00  0.00    -0.137 NA
ATOM      4  N   UNL     1      32.289 -22.291 -18.083  0.00  0.00    -0.310 NA
ATOM      5  N   UNL     1      33.424 -23.437 -16.246  0.00  0.00    -0.324 NA
ATOM      6  N   UNL     1      31.085 -23.370 -16.390  0.00  0.00    -0.283 N 
ATOM      7  C   UNL     1      33.530 -22.012 -18.505  0.00  0.00    +0.238 C 
ATOM      8  C   UNL     1      34.723 -22.374 -17.911  0.00  0.00    +0.181 C 
ATOM      9  C   UNL     1      34.646 -23.114 -16.737  0.00  0.00    +0.202 C 
ATOM     10  C   UNL     1      32.338 -23.011 -16.939  0.00  0.00    +0.198 C 
ATOM     11  H   UNL     1      30.254 -23.096 -16.839  0.00  0.00    +0.156 HD
ATOM     12  H   UNL     1      31.045 -23.895 -15.558  0.00  0.00    +0.156 HD
ENDROOT
BRANCH   9  14
ATOM     13  O   UNL     1      35.795 -24.839 -15.616  0.00  0.00    -0.448 OA
ATOM     14  C   UNL     1      35.812 -23.545 -16.032  0.00  0.00    +0.178 C 
ATOM     15  C   UNL     1      36.987 -22.934 -15.664  0.00  0.00    +0.043 C 
ATOM     16  C   UNL     1      37.742 -23.915 -14.977  0.00  0.00    +0.044 C 
ATOM     17  C   UNL     1      36.973 -25.057 -14.975  0.00  0.00    +0.180 C 
ENDBRANCH   9  14
BRANCH   1  18
ATOM     18  C   UNL     1      33.063 -20.683 -20.624  0.00  0.00    +0.145 C 
BRANCH  18  19
ATOM     19  C   UNL     1      33.768 -19.575 -21.330  0.00  0.00    -0.001 C 
ATOM     20  C   UNL     1      33.728 -18.280 -20.812  0.00  0.00    -0.006 C 
ATOM     21  C   UNL     1      34.388 -17.244 -21.473  0.00  0.00    -0.009 C 
ATOM     22  C   UNL     1      34.467 -19.833 -22.509  0.00  0.00    -0.001 C 
ATOM     23  C   UNL     1      35.088 -17.503 -22.652  0.00  0.00    +0.037 C 
ATOM     24  C   UNL     1      35.128 -18.797 -23.170  0.00  0.00    +0.013 C 
ATOM     25  C   UNL     1      34.329 -15.867 -20.897  0.00  0.00    +0.032 C 
BRANCH  23  26
ATOM     26  N   UNL     1      35.762 -16.468 -23.334  0.00  0.00    -0.357 N 
ATOM     27  H   UNL     1      36.578 -16.074 -22.949  0.00  0.00    +0.142 HD
ATOM     28  H   UNL     1      35.417 -16.138 -24.196  0.00  0.00    +0.142 HD
ENDBRANCH  23  26
ENDBRANCH  18  19
ENDBRANCH   1  18
TORSDOF 4
ENDMDL
MODEL 7
REMARK VINA RESULT:      -9.7      2.802      4.927
REMARK  Name = 21874557
REMARK  4 active torsions:
REMARK  status: ('A' for Active; 'I' for Inactive)
REMARK    1  A    between atoms: N_1  and  C_18
REMARK    2  A    between atoms: C_9  and  C_14
REMARK    3  A    between atoms: C_18  and  C_19
REMARK    4  A    between atoms: C_23  and  N_26
REMARK                            x       y       z     vdW  Elec       q    Type
REMARK                         _______ _______ _______ _____ _____    ______ ____
ROOT
ATOM      1  N   UNL     1      33.771 -21.038 -20.189  0.00  0.00    -0.170 N 
ATOM      2  N   UNL     1      32.516 -20.552 -20.125  0.00  0.00    -0.042 NA
ATOM      3  N   UNL     1      32.558 -19.276 -20.503  0.00  0.00    -0.137 NA
ATOM      4  N   UNL     1      35.969 -20.188 -20.794  0.00  0.00    -0.310 NA
ATOM      5  N   UNL     1      35.827 -17.840 -21.453  0.00  0.00    -0.324 NA
ATOM      6  N   UNL     1      37.869 -18.990 -21.451  0.00  0.00    -0.283 N 
ATOM      7  C   UNL     1      34.646 -20.084 -20.608  0.00  0.00    +0.238 C 
ATOM      8  C   UNL     1      33.855 -18.969 -20.804  0.00  0.00    +0.181 C 
ATOM      9  C   UNL     1      34.488 -17.812 -21.243  0.00  0.00    +0.202 C 
ATOM     10  C   UNL     1      36.475 -19.008 -21.219  0.00  0.00    +0.198 C 
ATOM     11  H   UNL     1      38.404 -19.802 -21.302  0.00  0.00    +0.156 HD
ATOM     12  H   UNL     1      38.305 -18.163 -21.762  0.00  0.00    +0.156 HD
ENDROOT
BRANCH   9  14
ATOM     13  O   UNL     1      33.947 -16.051 -22.711  0.00  0.00    -0.448 OA
ATOM     14  C   UNL     1      33.774 -16.598 -21.478  0.00  0.00    +0.178 C 
ATOM     15  C   UNL     1      32.923 -15.826 -20.723  0.00  0.00    +0.043 C 
ATOM     16  C   UNL     1      32.549 -14.734 -21.543  0.00  0.00    +0.044 C 
ATOM     17  C   UNL     1      33.198 -14.918 -22.742  0.00  0.00    +0.180 C 
ENDBRANCH   9  14
BRANCH   1  18
ATOM     18  C   UNL     1      34.051 -22.432 -19.829  0.00  0.00    +0.145 C 
BRANCH  18  19
ATOM     19  C   UNL     1      34.400 -22.575 -18.387  0.00  0.00    -0.001 C 
ATOM     20  C   UNL     1      35.676 -22.231 -17.940  0.00  0.00    -0.006 C 
ATOM     21  C   UNL     1      36.002 -22.365 -16.590  0.00  0.00    -0.009 C 
ATOM     22  C   UNL     1      33.451 -23.055 -17.484  0.00  0.00    -0.001 C 
ATOM     23  C   UNL     1      35.052 -22.844 -15.688  0.00  0.00    +0.037 C 
ATOM     24  C   UNL     1      33.777 -23.189 -16.134  0.00  0.00    +0.013 C 
ATOM     25  C   UNL     1      37.376 -21.989 -16.139  0.00  0.00    +0.032 C 
BRANCH  23  26
ATOM     26  N   UNL     1      35.364 -22.986 -14.319  0.00  0.00    -0.357 N 
ATOM     27  H   UNL     1      35.763 -23.824 -13.989  0.00  0.00    +0.142 HD
ATOM     28  H   UNL     1      35.183 -22.248 -13.693  0.00  0.00    +0.142 HD
ENDBRANCH  23  26
ENDBRANCH  18  19
ENDBRANCH   1  18
TORSDOF 4
ENDMDL
MODEL 8
REMARK VINA RESULT:      -9.6      2.647      7.936
REMARK  Name = 21874557
REMARK  4 active torsions:
REMARK  status: ('A' for Active; 'I' for Inactive)
REMARK    1  A    between atoms: N_1  and  C_18
REMARK    2  A    between atoms: C_9  and  C_14
REMARK    3  A    between atoms: C_18  and  C_19
REMARK    4  A    between atoms: C_23  and  N_26
REMARK                            x       y       z     vdW  Elec       q    Type
REMARK                         _______ _______ _______ _____ _____    ______ ____
ROOT
ATOM      1  N   UNL     1      32.223 -12.973 -22.160  0.00  0.00    -0.170 N 
ATOM      2  N   UNL     1      32.507 -13.384 -20.909  0.00  0.00    -0.042 NA
ATOM      3  N   UNL     1      33.186 -14.525 -21.004  0.00  0.00    -0.137 NA
ATOM      4  N   UNL     1      32.631 -13.772 -24.422  0.00  0.00    -0.310 NA
ATOM      5  N   UNL     1      33.885 -15.868 -24.375  0.00  0.00    -0.324 NA
ATOM      6  N   UNL     1      33.230 -14.877 -26.396  0.00  0.00    -0.283 N 
ATOM      7  C   UNL     1      32.713 -13.841 -23.086  0.00  0.00    +0.238 C 
ATOM      8  C   UNL     1      33.323 -14.823 -22.331  0.00  0.00    +0.181 C 
ATOM      9  C   UNL     1      33.926 -15.869 -23.020  0.00  0.00    +0.202 C 
ATOM     10  C   UNL     1      33.249 -14.836 -24.983  0.00  0.00    +0.198 C 
ATOM     11  H   UNL     1      32.786 -14.161 -26.904  0.00  0.00    +0.156 HD
ATOM     12  H   UNL     1      33.662 -15.624 -26.872  0.00  0.00    +0.156 HD
ENDROOT
BRANCH   9  14
ATOM     13  O   UNL     1      35.817 -17.263 -22.831  0.00  0.00    -0.448 OA
ATOM     14  C   UNL     1      34.587 -16.942 -22.347  0.00  0.00    +0.178 C 
ATOM     15  C   UNL     1      34.258 -17.753 -21.287  0.00  0.00    +0.043 C 
ATOM     16  C   UNL     1      35.355 -18.630 -21.107  0.00  0.00    +0.044 C 
ATOM     17  C   UNL     1      36.277 -18.291 -22.071  0.00  0.00    +0.180 C 
ENDBRANCH   9  14
BRANCH   1  18
ATOM     18  C   UNL     1      31.475 -11.732 -22.385  0.00  0.00    +0.145 C 
BRANCH  18  19
ATOM     19  C   UNL     1      32.377 -10.589 -22.706  0.00  0.00    -0.001 C 
ATOM     20  C   UNL     1      33.366 -10.732 -23.679  0.00  0.00    -0.006 C 
ATOM     21  C   UNL     1      34.209  -9.661 -23.979  0.00  0.00    -0.009 C 
ATOM     22  C   UNL     1      32.231  -9.376 -22.032  0.00  0.00    -0.001 C 
ATOM     23  C   UNL     1      34.063  -8.449 -23.305  0.00  0.00    +0.037 C 
ATOM     24  C   UNL     1      33.074  -8.305 -22.332  0.00  0.00    +0.013 C 
ATOM     25  C   UNL     1      35.260  -9.842 -25.025  0.00  0.00    +0.032 C 
BRANCH  23  26
ATOM     26  N   UNL     1      34.907  -7.355 -23.595  0.00  0.00    -0.357 N 
ATOM     27  H   UNL     1      35.839  -7.354 -23.279  0.00  0.00    +0.142 HD
ATOM     28  H   UNL     1      34.564  -6.592 -24.115  0.00  0.00    +0.142 HD
ENDBRANCH  23  26
ENDBRANCH  18  19
ENDBRANCH   1  18
TORSDOF 4
ENDMDL
MODEL 9
REMARK VINA RESULT:      -9.6      3.880      8.866
REMARK  Name = 21874557
REMARK  4 active torsions:
REMARK  status: ('A' for Active; 'I' for Inactive)
REMARK    1  A    between atoms: N_1  and  C_18
REMARK    2  A    between atoms: C_9  and  C_14
REMARK    3  A    between atoms: C_18  and  C_19
REMARK    4  A    between atoms: C_23  and  N_26
REMARK                            x       y       z     vdW  Elec       q    Type
REMARK                         _______ _______ _______ _____ _____    ______ ____
ROOT
ATOM      1  N   UNL     1      34.797 -21.170 -19.916  0.00  0.00    -0.170 N 
ATOM      2  N   UNL     1      33.501 -21.068 -20.266  0.00  0.00    -0.042 NA
ATOM      3  N   UNL     1      32.779 -21.657 -19.315  0.00  0.00    -0.137 NA
ATOM      4  N   UNL     1      36.063 -22.118 -18.066  0.00  0.00    -0.310 NA
ATOM      5  N   UNL     1      34.557 -23.147 -16.439  0.00  0.00    -0.324 NA
ATOM      6  N   UNL     1      36.881 -23.149 -16.130  0.00  0.00    -0.283 N 
ATOM      7  C   UNL     1      34.937 -21.827 -18.732  0.00  0.00    +0.238 C 
ATOM      8  C   UNL     1      33.640 -22.129 -18.365  0.00  0.00    +0.181 C 
ATOM      9  C   UNL     1      33.464 -22.816 -17.170  0.00  0.00    +0.202 C 
ATOM     10  C   UNL     1      35.770 -22.783 -16.925  0.00  0.00    +0.198 C 
ATOM     11  H   UNL     1      37.792 -22.918 -16.421  0.00  0.00    +0.156 HD
ATOM     12  H   UNL     1      36.742 -23.636 -15.285  0.00  0.00    +0.156 HD
ENDROOT
BRANCH   9  14
ATOM     13  O   UNL     1      31.135 -22.462 -17.192  0.00  0.00    -0.448 OA
ATOM     14  C   UNL     1      32.171 -23.184 -16.688  0.00  0.00    +0.178 C 
ATOM     15  C   UNL     1      31.714 -24.132 -15.803  0.00  0.00    +0.043 C 
ATOM     16  C   UNL     1      30.307 -23.983 -15.758  0.00  0.00    +0.044 C 
ATOM     17  C   UNL     1      30.004 -22.955 -16.621  0.00  0.00    +0.180 C 
ENDBRANCH   9  14
BRANCH   1  18
ATOM     18  C   UNL     1      35.848 -20.609 -20.772  0.00  0.00    +0.145 C 
BRANCH  18  19
ATOM     19  C   UNL     1      35.384 -19.393 -21.499  0.00  0.00    -0.001 C 
ATOM     20  C   UNL     1      35.250 -18.182 -20.820  0.00  0.00    -0.006 C 
ATOM     21  C   UNL     1      34.816 -17.044 -21.501  0.00  0.00    -0.009 C 
ATOM     22  C   UNL     1      35.082 -19.467 -22.859  0.00  0.00    -0.001 C 
ATOM     23  C   UNL     1      34.515 -17.119 -22.861  0.00  0.00    +0.037 C 
ATOM     24  C   UNL     1      34.648 -18.330 -23.541  0.00  0.00    +0.013 C 
ATOM     25  C   UNL     1      34.682 -15.761 -20.749  0.00  0.00    +0.032 C 
BRANCH  23  26
ATOM     26  N   UNL     1      34.075 -15.978 -23.567  0.00  0.00    -0.357 N 
ATOM     27  H   UNL     1      34.166 -15.940 -24.547  0.00  0.00    +0.142 HD
ATOM     28  H   UNL     1      33.677 -15.221 -23.081  0.00  0.00    +0.142 HD
ENDBRANCH  23  26
ENDBRANCH  18  19
ENDBRANCH   1  18
TORSDOF 4
ENDMDL
