MODEL 1
REMARK VINA RESULT:      -7.0      0.000      0.000
REMARK  Name = 5288136
REMARK  8 active torsions:
REMARK  status: ('A' for Active; 'I' for Inactive)
REMARK    1  A    between atoms: C_1  and  O_2
REMARK    2  A    between atoms: C_1  and  C_4
REMARK    3  A    between atoms: C_1  and  C_11
REMARK    4  A    between atoms: C_4  and  C_5
REMARK    5  A    between atoms: C_5  and  C_8
REMARK    6  A    between atoms: C_5  and  O_9
REMARK    7  A    between atoms: C_11  and  C_14
REMARK    8  A    between atoms: C_11  and  O_15
REMARK                            x       y       z     vdW  Elec       q    Type
REMARK                         _______ _______ _______ _____ _____    ______ ____
ROOT
ATOM      1  C   UNL     1      37.709 -25.247 -13.692  0.00  0.00    +0.151 C 
ENDROOT
BRANCH   1   2
ATOM      2  O   UNL     1      37.668 -26.588 -13.189  0.00  0.00    -0.381 OA
ATOM      3  H   UNL     1      37.616 -27.209 -13.931  0.00  0.00    +0.210 HD
ENDBRANCH   1   2
BRANCH   1   4
ATOM      4  C   UNL     1      38.051 -24.329 -12.507  0.00  0.00    +0.073 C 
BRANCH   4   5
ATOM      5  C   UNL     1      36.885 -23.499 -11.975  0.00  0.00    +0.216 C 
BRANCH   5   8
ATOM      6  O   UNL     1      34.983 -24.860 -11.558  0.00  0.00    -0.243 OA
ATOM      7  O   UNL     1      36.231 -24.116  -9.795  0.00  0.00    -0.243 OA
ATOM      8  C   UNL     1      35.933 -24.228 -11.019  0.00  0.00    +0.391 C 
ENDBRANCH   5   8
BRANCH   5   9
ATOM      9  O   UNL     1      37.411 -22.389 -11.245  0.00  0.00    -0.374 OA
ATOM     10  H   UNL     1      37.385 -21.594 -11.802  0.00  0.00    +0.211 HD
ENDBRANCH   5   9
ENDBRANCH   4   5
ENDBRANCH   1   4
BRANCH   1  11
ATOM     11  C   UNL     1      38.705 -25.178 -14.855  0.00  0.00    +0.241 C 
BRANCH  11  14
ATOM     12  O   UNL     1      40.958 -24.620 -14.390  0.00  0.00    -0.243 OA
ATOM     13  O   UNL     1      40.382 -26.827 -14.464  0.00  0.00    -0.243 OA
ATOM     14  C   UNL     1      40.154 -25.588 -14.530  0.00  0.00    +0.394 C 
ENDBRANCH  11  14
BRANCH  11  15
ATOM     15  O   UNL     1      38.732 -23.846 -15.369  0.00  0.00    -0.373 OA
ATOM     16  H   UNL     1      37.860 -23.621 -15.729  0.00  0.00    +0.211 HD
ENDBRANCH  11  15
ENDBRANCH   1  11
TORSDOF 8
ENDMDL
MODEL 2
REMARK VINA RESULT:      -6.8      1.778      4.776
REMARK  Name = 5288136
REMARK  8 active torsions:
REMARK  status: ('A' for Active; 'I' for Inactive)
REMARK    1  A    between atoms: C_1  and  O_2
REMARK    2  A    between atoms: C_1  and  C_4
REMARK    3  A    between atoms: C_1  and  C_11
REMARK    4  A    between atoms: C_4  and  C_5
REMARK    5  A    between atoms: C_5  and  C_8
REMARK    6  A    between atoms: C_5  and  O_9
REMARK    7  A    between atoms: C_11  and  C_14
REMARK    8  A    between atoms: C_11  and  O_15
REMARK                            x       y       z     vdW  Elec       q    Type
REMARK                         _______ _______ _______ _____ _____    ______ ____
ROOT
ATOM      1  C   UNL     1      37.980 -24.420 -12.415  0.00  0.00    +0.151 C 
ENDROOT
BRANCH   1   2
ATOM      2  O   UNL     1      38.003 -25.657 -11.693  0.00  0.00    -0.381 OA
ATOM      3  H   UNL     1      38.900 -26.026 -11.713  0.00  0.00    +0.210 HD
ENDBRANCH   1   2
BRANCH   1   4
ATOM      4  C   UNL     1      37.981 -24.769 -13.912  0.00  0.00    +0.073 C 
BRANCH   4   5
ATOM      5  C   UNL     1      37.521 -26.187 -14.245  0.00  0.00    +0.216 C 
BRANCH   5   8
ATOM      6  O   UNL     1      36.662 -27.307 -16.156  0.00  0.00    -0.243 OA
ATOM      7  O   UNL     1      35.656 -25.383 -15.443  0.00  0.00    -0.243 OA
ATOM      8  C   UNL     1      36.519 -26.306 -15.400  0.00  0.00    +0.391 C 
ENDBRANCH   5   8
BRANCH   5   9
ATOM      9  O   UNL     1      38.663 -26.958 -14.627  0.00  0.00    -0.374 OA
ATOM     10  H   UNL     1      39.332 -26.373 -15.018  0.00  0.00    +0.211 HD
ENDBRANCH   5   9
ENDBRANCH   4   5
ENDBRANCH   1   4
BRANCH   1  11
ATOM     11  C   UNL     1      36.773 -23.594 -11.957  0.00  0.00    +0.241 C 
BRANCH  11  14
ATOM     12  O   UNL     1      34.847 -24.897 -11.514  0.00  0.00    -0.243 OA
ATOM     13  O   UNL     1      36.081 -24.152  -9.745  0.00  0.00    -0.243 OA
ATOM     14  C   UNL     1      35.814 -24.287 -10.971  0.00  0.00    +0.394 C 
ENDBRANCH  11  14
BRANCH  11  15
ATOM     15  O   UNL     1      36.014 -23.201 -13.101  0.00  0.00    -0.373 OA
ATOM     16  H   UNL     1      36.466 -23.497 -13.906  0.00  0.00    +0.211 HD
ENDBRANCH  11  15
ENDBRANCH   1  11
TORSDOF 8
ENDMDL
MODEL 3
REMARK VINA RESULT:      -6.8      1.107      5.058
REMARK  Name = 5288136
REMARK  8 active torsions:
REMARK  status: ('A' for Active; 'I' for Inactive)
REMARK    1  A    between atoms: C_1  and  O_2
REMARK    2  A    between atoms: C_1  and  C_4
REMARK    3  A    between atoms: C_1  and  C_11
REMARK    4  A    between atoms: C_4  and  C_5
REMARK    5  A    between atoms: C_5  and  C_8
REMARK    6  A    between atoms: C_5  and  O_9
REMARK    7  A    between atoms: C_11  and  C_14
REMARK    8  A    between atoms: C_11  and  O_15
REMARK                            x       y       z     vdW  Elec       q    Type
REMARK                         _______ _______ _______ _____ _____    ______ ____
ROOT
ATOM      1  C   UNL     1      37.561 -25.353 -12.646  0.00  0.00    +0.151 C 
ENDROOT
BRANCH   1   2
ATOM      2  O   UNL     1      36.501 -26.277 -12.918  0.00  0.00    -0.381 OA
ATOM      3  H   UNL     1      36.835 -27.184 -12.833  0.00  0.00    +0.210 HD
ENDBRANCH   1   2
BRANCH   1   4
ATOM      4  C   UNL     1      38.035 -24.796 -13.998  0.00  0.00    +0.073 C 
BRANCH   4   5
ATOM      5  C   UNL     1      38.903 -25.746 -14.820  0.00  0.00    +0.216 C 
BRANCH   5   8
ATOM      6  O   UNL     1      41.006 -26.817 -14.547  0.00  0.00    -0.243 OA
ATOM      7  O   UNL     1      40.862 -24.555 -14.267  0.00  0.00    -0.243 OA
ATOM      8  C   UNL     1      40.404 -25.708 -14.510  0.00  0.00    +0.391 C 
ENDBRANCH   5   8
BRANCH   5   9
ATOM      9  O   UNL     1      38.477 -27.087 -14.567  0.00  0.00    -0.374 OA
ATOM     10  H   UNL     1      38.759 -27.659 -15.298  0.00  0.00    +0.211 HD
ENDBRANCH   5   9
ENDBRANCH   4   5
ENDBRANCH   1   4
BRANCH   1  11
ATOM     11  C   UNL     1      37.058 -24.289 -11.663  0.00  0.00    +0.241 C 
BRANCH  11  14
ATOM     12  O   UNL     1      34.775 -23.780 -12.023  0.00  0.00    -0.243 OA
ATOM     13  O   UNL     1      35.329 -25.042 -10.205  0.00  0.00    -0.243 OA
ATOM     14  C   UNL     1      35.576 -24.390 -11.257  0.00  0.00    +0.394 C 
ENDBRANCH  11  14
BRANCH  11  15
ATOM     15  O   UNL     1      37.269 -22.994 -12.227  0.00  0.00    -0.373 OA
ATOM     16  H   UNL     1      37.836 -23.071 -13.011  0.00  0.00    +0.211 HD
ENDBRANCH  11  15
ENDBRANCH   1  11
TORSDOF 8
ENDMDL
MODEL 4
REMARK VINA RESULT:      -6.8      1.487      2.295
REMARK  Name = 5288136
REMARK  8 active torsions:
REMARK  status: ('A' for Active; 'I' for Inactive)
REMARK    1  A    between atoms: C_1  and  O_2
REMARK    2  A    between atoms: C_1  and  C_4
REMARK    3  A    between atoms: C_1  and  C_11
REMARK    4  A    between atoms: C_4  and  C_5
REMARK    5  A    between atoms: C_5  and  C_8
REMARK    6  A    between atoms: C_5  and  O_9
REMARK    7  A    between atoms: C_11  and  C_14
REMARK    8  A    between atoms: C_11  and  O_15
REMARK                            x       y       z     vdW  Elec       q    Type
REMARK                         _______ _______ _______ _____ _____    ______ ____
ROOT
ATOM      1  C   UNL     1      37.920 -24.553 -14.362  0.00  0.00    +0.151 C 
ENDROOT
BRANCH   1   2
ATOM      2  O   UNL     1      37.665 -24.416 -15.764  0.00  0.00    -0.381 OA
ATOM      3  H   UNL     1      38.485 -24.163 -16.218  0.00  0.00    +0.210 HD
ENDBRANCH   1   2
BRANCH   1   4
ATOM      4  C   UNL     1      36.585 -24.920 -13.693  0.00  0.00    +0.073 C 
BRANCH   4   5
ATOM      5  C   UNL     1      36.649 -25.094 -12.177  0.00  0.00    +0.216 C 
BRANCH   5   8
ATOM      6  O   UNL     1      35.326 -25.014 -10.206  0.00  0.00    -0.243 OA
ATOM      7  O   UNL     1      34.629 -23.882 -12.063  0.00  0.00    -0.243 OA
ATOM      8  C   UNL     1      35.411 -24.624 -11.403  0.00  0.00    +0.391 C 
ENDBRANCH   5   8
BRANCH   5   9
ATOM      9  O   UNL     1      36.797 -26.486 -11.884  0.00  0.00    -0.374 OA
ATOM     10  H   UNL     1      36.026 -26.971 -12.219  0.00  0.00    +0.211 HD
ENDBRANCH   5   9
ENDBRANCH   4   5
ENDBRANCH   1   4
BRANCH   1  11
ATOM     11  C   UNL     1      39.038 -25.581 -14.153  0.00  0.00    +0.241 C 
BRANCH  11  14
ATOM     12  O   UNL     1      40.475 -26.019 -15.981  0.00  0.00    -0.243 OA
ATOM     13  O   UNL     1      41.138 -24.486 -14.426  0.00  0.00    -0.243 OA
ATOM     14  C   UNL     1      40.343 -25.327 -14.930  0.00  0.00    +0.394 C 
ENDBRANCH  11  14
BRANCH  11  15
ATOM     15  O   UNL     1      38.557 -26.875 -14.517  0.00  0.00    -0.373 OA
ATOM     16  H   UNL     1      38.091 -26.820 -15.366  0.00  0.00    +0.211 HD
ENDBRANCH  11  15
ENDBRANCH   1  11
TORSDOF 8
ENDMDL
MODEL 5
REMARK VINA RESULT:      -6.8      1.125      5.065
REMARK  Name = 5288136
REMARK  8 active torsions:
REMARK  status: ('A' for Active; 'I' for Inactive)
REMARK    1  A    between atoms: C_1  and  O_2
REMARK    2  A    between atoms: C_1  and  C_4
REMARK    3  A    between atoms: C_1  and  C_11
REMARK    4  A    between atoms: C_4  and  C_5
REMARK    5  A    between atoms: C_5  and  C_8
REMARK    6  A    between atoms: C_5  and  O_9
REMARK    7  A    between atoms: C_11  and  C_14
REMARK    8  A    between atoms: C_11  and  O_15
REMARK                            x       y       z     vdW  Elec       q    Type
REMARK                         _______ _______ _______ _____ _____    ______ ____
ROOT
ATOM      1  C   UNL     1      37.872 -23.756 -12.692  0.00  0.00    +0.151 C 
ENDROOT
BRANCH   1   2
ATOM      2  O   UNL     1      38.777 -23.294 -11.683  0.00  0.00    -0.381 OA
ATOM      3  H   UNL     1      39.046 -24.040 -11.125  0.00  0.00    +0.210 HD
ENDBRANCH   1   2
BRANCH   1   4
ATOM      4  C   UNL     1      38.167 -25.248 -12.916  0.00  0.00    +0.073 C 
BRANCH   4   5
ATOM      5  C   UNL     1      38.623 -25.612 -14.328  0.00  0.00    +0.216 C 
BRANCH   5   8
ATOM      6  O   UNL     1      40.589 -26.177 -15.534  0.00  0.00    -0.243 OA
ATOM      7  O   UNL     1      40.719 -24.645 -13.844  0.00  0.00    -0.243 OA
ATOM      8  C   UNL     1      40.126 -25.471 -14.596  0.00  0.00    +0.391 C 
ENDBRANCH   5   8
BRANCH   5   9
ATOM      9  O   UNL     1      38.300 -26.983 -14.571  0.00  0.00    -0.374 OA
ATOM     10  H   UNL     1      38.631 -27.242 -15.446  0.00  0.00    +0.211 HD
ENDBRANCH   5   9
ENDBRANCH   4   5
ENDBRANCH   1   4
BRANCH   1  11
ATOM     11  C   UNL     1      36.434 -23.453 -12.254  0.00  0.00    +0.241 C 
BRANCH  11  14
ATOM     12  O   UNL     1      34.995 -25.041 -11.248  0.00  0.00    -0.243 OA
ATOM     13  O   UNL     1      36.479 -23.929  -9.918  0.00  0.00    -0.243 OA
ATOM     14  C   UNL     1      35.929 -24.219 -11.016  0.00  0.00    +0.394 C 
ENDBRANCH  11  14
BRANCH  11  15
ATOM     15  O   UNL     1      35.546 -23.736 -13.335  0.00  0.00    -0.373 OA
ATOM     16  H   UNL     1      35.218 -24.645 -13.254  0.00  0.00    +0.211 HD
ENDBRANCH  11  15
ENDBRANCH   1  11
TORSDOF 8
ENDMDL
MODEL 6
REMARK VINA RESULT:      -6.7      1.583      2.861
REMARK  Name = 5288136
REMARK  8 active torsions:
REMARK  status: ('A' for Active; 'I' for Inactive)
REMARK    1  A    between atoms: C_1  and  O_2
REMARK    2  A    between atoms: C_1  and  C_4
REMARK    3  A    between atoms: C_1  and  C_11
REMARK    4  A    between atoms: C_4  and  C_5
REMARK    5  A    between atoms: C_5  and  C_8
REMARK    6  A    between atoms: C_5  and  O_9
REMARK    7  A    between atoms: C_11  and  C_14
REMARK    8  A    between atoms: C_11  and  O_15
REMARK                            x       y       z     vdW  Elec       q    Type
REMARK                         _______ _______ _______ _____ _____    ______ ____
ROOT
ATOM      1  C   UNL     1      38.375 -25.103 -13.571  0.00  0.00    +0.151 C 
ENDROOT
BRANCH   1   2
ATOM      2  O   UNL     1      37.937 -24.041 -14.427  0.00  0.00    -0.381 OA
ATOM      3  H   UNL     1      38.690 -23.709 -14.940  0.00  0.00    +0.210 HD
ENDBRANCH   1   2
BRANCH   1   4
ATOM      4  C   UNL     1      38.205 -24.615 -12.123  0.00  0.00    +0.073 C 
BRANCH   4   5
ATOM      5  C   UNL     1      37.014 -23.690 -11.887  0.00  0.00    +0.216 C 
BRANCH   5   8
ATOM      6  O   UNL     1      36.035 -24.110  -9.764  0.00  0.00    -0.243 OA
ATOM      7  O   UNL     1      34.950 -24.806 -11.650  0.00  0.00    -0.243 OA
ATOM      8  C   UNL     1      35.894 -24.261 -11.009  0.00  0.00    +0.391 C 
ENDBRANCH   5   8
BRANCH   5   9
ATOM      9  O   UNL     1      37.477 -22.510 -11.226  0.00  0.00    -0.374 OA
ATOM     10  H   UNL     1      37.116 -21.727 -11.672  0.00  0.00    +0.211 HD
ENDBRANCH   5   9
ENDBRANCH   4   5
ENDBRANCH   1   4
BRANCH   1  11
ATOM     11  C   UNL     1      37.589 -26.375 -13.908  0.00  0.00    +0.241 C 
BRANCH  11  14
ATOM     12  O   UNL     1      36.759 -27.019 -16.029  0.00  0.00    -0.243 OA
ATOM     13  O   UNL     1      35.647 -25.391 -14.880  0.00  0.00    -0.243 OA
ATOM     14  C   UNL     1      36.556 -26.251 -15.044  0.00  0.00    +0.394 C 
ENDBRANCH  11  14
BRANCH  11  15
ATOM     15  O   UNL     1      36.901 -26.823 -12.739  0.00  0.00    -0.373 OA
ATOM     16  H   UNL     1      37.090 -26.221 -12.002  0.00  0.00    +0.211 HD
ENDBRANCH  11  15
ENDBRANCH   1  11
TORSDOF 8
ENDMDL
MODEL 7
REMARK VINA RESULT:      -6.5      1.482      2.191
REMARK  Name = 5288136
REMARK  8 active torsions:
REMARK  status: ('A' for Active; 'I' for Inactive)
REMARK    1  A    between atoms: C_1  and  O_2
REMARK    2  A    between atoms: C_1  and  C_4
REMARK    3  A    between atoms: C_1  and  C_11
REMARK    4  A    between atoms: C_4  and  C_5
REMARK    5  A    between atoms: C_5  and  C_8
REMARK    6  A    between atoms: C_5  and  O_9
REMARK    7  A    between atoms: C_11  and  C_14
REMARK    8  A    between atoms: C_11  and  O_15
REMARK                            x       y       z     vdW  Elec       q    Type
REMARK                         _______ _______ _______ _____ _____    ______ ____
ROOT
ATOM      1  C   UNL     1      38.529 -25.419 -12.795  0.00  0.00    +0.151 C 
ENDROOT
BRANCH   1   2
ATOM      2  O   UNL     1      38.652 -24.006 -12.596  0.00  0.00    -0.381 OA
ATOM      3  H   UNL     1      38.394 -23.542 -13.408  0.00  0.00    +0.210 HD
ENDBRANCH   1   2
BRANCH   1   4
ATOM      4  C   UNL     1      37.086 -25.804 -12.433  0.00  0.00    +0.073 C 
BRANCH   4   5
ATOM      5  C   UNL     1      36.232 -24.665 -11.880  0.00  0.00    +0.216 C 
BRANCH   5   8
ATOM      6  O   UNL     1      34.052 -24.146 -12.667  0.00  0.00    -0.243 OA
ATOM      7  O   UNL     1      35.868 -23.358 -13.809  0.00  0.00    -0.243 OA
ATOM      8  C   UNL     1      35.287 -23.996 -12.885  0.00  0.00    +0.391 C 
ENDBRANCH   5   8
BRANCH   5   9
ATOM      9  O   UNL     1      35.404 -25.182 -10.836  0.00  0.00    -0.374 OA
ATOM     10  H   UNL     1      34.555 -24.710 -10.833  0.00  0.00    +0.211 HD
ENDBRANCH   5   9
ENDBRANCH   4   5
ENDBRANCH   1   4
BRANCH   1  11
ATOM     11  C   UNL     1      38.935 -25.760 -14.234  0.00  0.00    +0.241 C 
BRANCH  11  14
ATOM     12  O   UNL     1      40.993 -26.857 -14.638  0.00  0.00    -0.243 OA
ATOM     13  O   UNL     1      40.966 -24.575 -14.627  0.00  0.00    -0.243 OA
ATOM     14  C   UNL     1      40.444 -25.721 -14.538  0.00  0.00    +0.394 C 
ENDBRANCH  11  14
BRANCH  11  15
ATOM     15  O   UNL     1      38.285 -24.857 -15.130  0.00  0.00    -0.373 OA
ATOM     16  H   UNL     1      37.500 -24.484 -14.699  0.00  0.00    +0.211 HD
ENDBRANCH  11  15
ENDBRANCH   1  11
TORSDOF 8
ENDMDL
MODEL 8
REMARK VINA RESULT:      -6.3      1.548      5.259
REMARK  Name = 5288136
REMARK  8 active torsions:
REMARK  status: ('A' for Active; 'I' for Inactive)
REMARK    1  A    between atoms: C_1  and  O_2
REMARK    2  A    between atoms: C_1  and  C_4
REMARK    3  A    between atoms: C_1  and  C_11
REMARK    4  A    between atoms: C_4  and  C_5
REMARK    5  A    between atoms: C_5  and  C_8
REMARK    6  A    between atoms: C_5  and  O_9
REMARK    7  A    between atoms: C_11  and  C_14
REMARK    8  A    between atoms: C_11  and  O_15
REMARK                            x       y       z     vdW  Elec       q    Type
REMARK                         _______ _______ _______ _____ _____    ______ ____
ROOT
ATOM      1  C   UNL     1      37.551 -24.480 -12.517  0.00  0.00    +0.151 C 
ENDROOT
BRANCH   1   2
ATOM      2  O   UNL     1      37.921 -23.947 -11.240  0.00  0.00    -0.381 OA
ATOM      3  H   UNL     1      37.683 -23.008 -11.202  0.00  0.00    +0.210 HD
ENDBRANCH   1   2
BRANCH   1   4
ATOM      4  C   UNL     1      38.614 -25.523 -12.898  0.00  0.00    +0.073 C 
BRANCH   4   5
ATOM      5  C   UNL     1      38.854 -25.685 -14.397  0.00  0.00    +0.216 C 
BRANCH   5   8
ATOM      6  O   UNL     1      40.989 -24.671 -14.167  0.00  0.00    -0.243 OA
ATOM      7  O   UNL     1      40.619 -26.110 -15.902  0.00  0.00    -0.243 OA
ATOM      8  C   UNL     1      40.296 -25.459 -14.867  0.00  0.00    +0.391 C 
ENDBRANCH   5   8
BRANCH   5   9
ATOM      9  O   UNL     1      38.517 -27.024 -14.770  0.00  0.00    -0.374 OA
ATOM     10  H   UNL     1      37.646 -27.251 -14.407  0.00  0.00    +0.211 HD
ENDBRANCH   5   9
ENDBRANCH   4   5
ENDBRANCH   1   4
BRANCH   1  11
ATOM     11  C   UNL     1      36.123 -25.031 -12.437  0.00  0.00    +0.241 C 
BRANCH  11  14
ATOM     12  O   UNL     1      35.436 -23.422 -14.033  0.00  0.00    -0.243 OA
ATOM     13  O   UNL     1      33.866 -24.283 -12.618  0.00  0.00    -0.243 OA
ATOM     14  C   UNL     1      35.029 -24.169 -13.096  0.00  0.00    +0.394 C 
ENDBRANCH  11  14
BRANCH  11  15
ATOM     15  O   UNL     1      35.768 -25.214 -11.066  0.00  0.00    -0.373 OA
ATOM     16  H   UNL     1      36.556 -25.466 -10.560  0.00  0.00    +0.211 HD
ENDBRANCH  11  15
ENDBRANCH   1  11
TORSDOF 8
ENDMDL
MODEL 9
REMARK VINA RESULT:      -6.2      8.386     10.372
REMARK  Name = 5288136
REMARK  8 active torsions:
REMARK  status: ('A' for Active; 'I' for Inactive)
REMARK    1  A    between atoms: C_1  and  O_2
REMARK    2  A    between atoms: C_1  and  C_4
REMARK    3  A    between atoms: C_1  and  C_11
REMARK    4  A    between atoms: C_4  and  C_5
REMARK    5  A    between atoms: C_5  and  C_8
REMARK    6  A    between atoms: C_5  and  O_9
REMARK    7  A    between atoms: C_11  and  C_14
REMARK    8  A    between atoms: C_11  and  O_15
REMARK                            x       y       z     vdW  Elec       q    Type
REMARK                         _______ _______ _______ _____ _____    ______ ____
ROOT
ATOM      1  C   UNL     1      28.147 -24.036 -16.173  0.00  0.00    +0.151 C 
ENDROOT
BRANCH   1   2
ATOM      2  O   UNL     1      27.812 -24.550 -17.467  0.00  0.00    -0.381 OA
ATOM      3  H   UNL     1      28.396 -25.294 -17.680  0.00  0.00    +0.210 HD
ENDBRANCH   1   2
BRANCH   1   4
ATOM      4  C   UNL     1      29.596 -24.457 -15.880  0.00  0.00    +0.073 C 
BRANCH   4   5
ATOM      5  C   UNL     1      30.272 -23.699 -14.739  0.00  0.00    +0.216 C 
BRANCH   5   8
ATOM      6  O   UNL     1      31.700 -25.473 -14.065  0.00  0.00    -0.243 OA
ATOM      7  O   UNL     1      30.597 -24.263 -12.472  0.00  0.00    -0.243 OA
ATOM      8  C   UNL     1      30.919 -24.570 -13.655  0.00  0.00    +0.391 C 
ENDBRANCH   5   8
BRANCH   5   9
ATOM      9  O   UNL     1      31.320 -22.895 -15.283  0.00  0.00    -0.374 OA
ATOM     10  H   UNL     1      32.150 -23.085 -14.816  0.00  0.00    +0.211 HD
ENDBRANCH   5   9
ENDBRANCH   4   5
ENDBRANCH   1   4
BRANCH   1  11
ATOM     11  C   UNL     1      27.911 -22.521 -16.157  0.00  0.00    +0.241 C 
BRANCH  11  14
ATOM     12  O   UNL     1      26.509 -21.716 -17.886  0.00  0.00    -0.243 OA
ATOM     13  O   UNL     1      25.607 -22.017 -15.812  0.00  0.00    -0.243 OA
ATOM     14  C   UNL     1      26.537 -22.047 -16.665  0.00  0.00    +0.394 C 
ENDBRANCH  11  14
BRANCH  11  15
ATOM     15  O   UNL     1      28.914 -21.883 -16.950  0.00  0.00    -0.373 OA
ATOM     16  H   UNL     1      29.587 -22.534 -17.203  0.00  0.00    +0.211 HD
ENDBRANCH  11  15
ENDBRANCH   1  11
TORSDOF 8
ENDMDL
