MODEL 1
REMARK VINA RESULT:      -7.2      0.000      0.000
REMARK  Name = 6971145
REMARK  4 active torsions:
REMARK  status: ('A' for Active; 'I' for Inactive)
REMARK    1  A    between atoms: C_1  and  N_5
REMARK    2  A    between atoms: C_1  and  CA_10
REMARK    3  A    between atoms: CA_10  and  N_11
REMARK    4  A    between atoms: CA_10  and  C_17
REMARK                            x       y       z     vdW  Elec       q    Type
REMARK                         _______ _______ _______ _____ _____    ______ ____
ROOT
ATOM      1  C   UNL     1      37.852 -24.226 -14.363  0.00  0.00    +0.139 C 
ENDROOT
BRANCH   1   5
ATOM      2  O   UNL     1      36.198 -24.863 -12.686  0.00  0.00    -0.316 OA
ATOM      3  O   UNL     1      38.900 -22.914 -11.740  0.00  0.00    -0.244 OA
ATOM      4  O   UNL     1      35.027 -25.120 -10.729  0.00  0.00    -0.221 OA
ATOM      5  N   UNL     1      37.397 -24.180 -12.999  0.00  0.00    -0.141 N 
ATOM      6  N   UNL     1      36.997 -23.900 -10.845  0.00  0.00    -0.240 N 
ATOM      7  C   UNL     1      37.883 -23.587 -11.850  0.00  0.00    +0.361 A 
ATOM      8  C   UNL     1      35.983 -24.666 -11.342  0.00  0.00    +0.441 A 
ATOM      9  H   UNL     1      37.082 -23.614  -9.906  0.00  0.00    +0.177 HD
ENDBRANCH   1   5
BRANCH   1  10
ATOM     10  CA  UNL     1      38.586 -25.522 -14.702  0.00  0.00    +0.067 C 
BRANCH  10  11
ATOM     11  N   UNL     1      38.183 -26.559 -13.699  0.00  0.00    +0.390 N 
ATOM     12  H1  UNL     1      38.115 -26.133 -12.776  0.00  0.00    -0.088 HD
ATOM     13  H2  UNL     1      38.882 -27.302 -13.679  0.00  0.00    -0.088 HD
ATOM     14  H3  UNL     1      37.278 -26.952 -13.960  0.00  0.00    -0.088 HD
ENDBRANCH  10  11
BRANCH  10  17
ATOM     15  O   UNL     1      40.612 -26.032 -15.849  0.00  0.00    -0.248 OA
ATOM     16  OXT UNL     1      40.691 -24.705 -13.995  0.00  0.00    -0.248 OA
ATOM     17  C   UNL     1      40.111 -25.406 -14.874  0.00  0.00    +0.347 C 
ENDBRANCH  10  17
ENDBRANCH   1  10
TORSDOF 4
ENDMDL
MODEL 2
REMARK VINA RESULT:      -7.1      1.389      4.895
REMARK  Name = 6971145
REMARK  4 active torsions:
REMARK  status: ('A' for Active; 'I' for Inactive)
REMARK    1  A    between atoms: C_1  and  N_5
REMARK    2  A    between atoms: C_1  and  CA_10
REMARK    3  A    between atoms: CA_10  and  N_11
REMARK    4  A    between atoms: CA_10  and  C_17
REMARK                            x       y       z     vdW  Elec       q    Type
REMARK                         _______ _______ _______ _____ _____    ______ ____
ROOT
ATOM      1  C   UNL     1      36.769 -23.937 -13.486  0.00  0.00    +0.139 C 
ENDROOT
BRANCH   1   5
ATOM      2  O   UNL     1      39.059 -24.290 -14.249  0.00  0.00    -0.316 OA
ATOM      3  O   UNL     1      37.103 -27.033 -13.451  0.00  0.00    -0.244 OA
ATOM      4  O   UNL     1      41.052 -25.236 -14.885  0.00  0.00    -0.221 OA
ATOM      5  N   UNL     1      37.837 -24.847 -13.805  0.00  0.00    -0.141 N 
ATOM      6  N   UNL     1      39.236 -26.509 -14.203  0.00  0.00    -0.240 N 
ATOM      7  C   UNL     1      37.958 -26.223 -13.781  0.00  0.00    +0.361 A 
ATOM      8  C   UNL     1      39.901 -25.352 -14.487  0.00  0.00    +0.441 A 
ATOM      9  H   UNL     1      39.614 -27.415 -14.289  0.00  0.00    +0.177 HD
ENDBRANCH   1   5
BRANCH   1  10
ATOM     10  CA  UNL     1      36.789 -23.483 -12.028  0.00  0.00    +0.067 C 
BRANCH  10  11
ATOM     11  N   UNL     1      38.214 -23.461 -11.569  0.00  0.00    +0.390 N 
ATOM     12  H1  UNL     1      38.638 -22.567 -11.812  0.00  0.00    -0.088 HD
ATOM     13  H2  UNL     1      38.729 -24.215 -12.026  0.00  0.00    -0.088 HD
ATOM     14  H3  UNL     1      38.248 -23.591 -10.558  0.00  0.00    -0.088 HD
ENDBRANCH  10  11
BRANCH  10  17
ATOM     15  O   UNL     1      36.128 -24.168  -9.843  0.00  0.00    -0.248 OA
ATOM     16  OXT UNL     1      34.926 -24.891 -11.643  0.00  0.00    -0.248 OA
ATOM     17  C   UNL     1      35.855 -24.248 -11.073  0.00  0.00    +0.347 C 
ENDBRANCH  10  17
ENDBRANCH   1  10
TORSDOF 4
ENDMDL
MODEL 3
REMARK VINA RESULT:      -7.0      1.779      4.843
REMARK  Name = 6971145
REMARK  4 active torsions:
REMARK  status: ('A' for Active; 'I' for Inactive)
REMARK    1  A    between atoms: C_1  and  N_5
REMARK    2  A    between atoms: C_1  and  CA_10
REMARK    3  A    between atoms: CA_10  and  N_11
REMARK    4  A    between atoms: CA_10  and  C_17
REMARK                            x       y       z     vdW  Elec       q    Type
REMARK                         _______ _______ _______ _____ _____    ______ ____
ROOT
ATOM      1  C   UNL     1      36.866 -25.153 -13.200  0.00  0.00    +0.139 C 
ENDROOT
BRANCH   1   5
ATOM      2  O   UNL     1      39.009 -26.197 -13.719  0.00  0.00    -0.316 OA
ATOM      3  O   UNL     1      38.029 -23.384 -15.485  0.00  0.00    -0.244 OA
ATOM      4  O   UNL     1      41.053 -26.701 -14.633  0.00  0.00    -0.221 OA
ATOM      5  N   UNL     1      38.073 -25.170 -13.984  0.00  0.00    -0.141 N 
ATOM      6  N   UNL     1      39.787 -24.894 -15.349  0.00  0.00    -0.240 N 
ATOM      7  C   UNL     1      38.565 -24.368 -14.995  0.00  0.00    +0.361 A 
ATOM      8  C   UNL     1      40.059 -25.993 -14.585  0.00  0.00    +0.441 A 
ATOM      9  H   UNL     1      40.378 -24.532 -16.049  0.00  0.00    +0.177 HD
ENDBRANCH   1   5
BRANCH   1  10
ATOM     10  CA  UNL     1      36.903 -24.124 -12.072  0.00  0.00    +0.067 C 
BRANCH  10  11
ATOM     11  N   UNL     1      38.325 -23.981 -11.622  0.00  0.00    +0.390 N 
ATOM     12  H1  UNL     1      38.848 -24.818 -11.875  0.00  0.00    -0.088 HD
ATOM     13  H2  UNL     1      38.349 -23.858 -10.609  0.00  0.00    -0.088 HD
ATOM     14  H3  UNL     1      38.744 -23.168 -12.073  0.00  0.00    -0.088 HD
ENDBRANCH  10  11
BRANCH  10  17
ATOM     15  O   UNL     1      34.837 -24.939 -11.207  0.00  0.00    -0.248 OA
ATOM     16  OXT UNL     1      36.312 -23.930  -9.789  0.00  0.00    -0.248 OA
ATOM     17  C   UNL     1      35.921 -24.364 -10.911  0.00  0.00    +0.347 C 
ENDBRANCH  10  17
ENDBRANCH   1  10
TORSDOF 4
ENDMDL
MODEL 4
REMARK VINA RESULT:      -6.9      1.780      2.153
REMARK  Name = 6971145
REMARK  4 active torsions:
REMARK  status: ('A' for Active; 'I' for Inactive)
REMARK    1  A    between atoms: C_1  and  N_5
REMARK    2  A    between atoms: C_1  and  CA_10
REMARK    3  A    between atoms: CA_10  and  N_11
REMARK    4  A    between atoms: CA_10  and  C_17
REMARK                            x       y       z     vdW  Elec       q    Type
REMARK                         _______ _______ _______ _____ _____    ______ ____
ROOT
ATOM      1  C   UNL     1      38.384 -24.805 -13.657  0.00  0.00    +0.139 C 
ENDROOT
BRANCH   1   5
ATOM      2  O   UNL     1      36.663 -25.231 -11.981  0.00  0.00    -0.316 OA
ATOM      3  O   UNL     1      38.371 -22.219 -11.921  0.00  0.00    -0.244 OA
ATOM      4  O   UNL     1      35.214 -25.045 -10.211  0.00  0.00    -0.221 OA
ATOM      5  N   UNL     1      37.641 -24.355 -12.509  0.00  0.00    -0.141 N 
ATOM      6  N   UNL     1      36.701 -23.357 -10.778  0.00  0.00    -0.240 N 
ATOM      7  C   UNL     1      37.655 -23.198 -11.757  0.00  0.00    +0.361 A 
ATOM      8  C   UNL     1      36.101 -24.577 -10.909  0.00  0.00    +0.441 A 
ATOM      9  H   UNL     1      36.482 -22.690 -10.086  0.00  0.00    +0.177 HD
ENDBRANCH   1   5
BRANCH   1  10
ATOM     10  CA  UNL     1      37.496 -25.092 -14.866  0.00  0.00    +0.067 C 
BRANCH  10  11
ATOM     11  N   UNL     1      36.248 -24.275 -14.729  0.00  0.00    +0.390 N 
ATOM     12  H1  UNL     1      36.109 -24.027 -13.750  0.00  0.00    -0.088 HD
ATOM     13  H2  UNL     1      35.448 -24.818 -15.058  0.00  0.00    -0.088 HD
ATOM     14  H3  UNL     1      36.334 -23.426 -15.288  0.00  0.00    -0.088 HD
ENDBRANCH  10  11
BRANCH  10  17
ATOM     15  O   UNL     1      36.179 -26.830 -15.828  0.00  0.00    -0.248 OA
ATOM     16  OXT UNL     1      38.067 -27.381 -14.672  0.00  0.00    -0.248 OA
ATOM     17  C   UNL     1      37.219 -26.578 -15.160  0.00  0.00    +0.347 C 
ENDBRANCH  10  17
ENDBRANCH   1  10
TORSDOF 4
ENDMDL
MODEL 5
REMARK VINA RESULT:      -6.9      1.789      2.330
REMARK  Name = 6971145
REMARK  4 active torsions:
REMARK  status: ('A' for Active; 'I' for Inactive)
REMARK    1  A    between atoms: C_1  and  N_5
REMARK    2  A    between atoms: C_1  and  CA_10
REMARK    3  A    between atoms: CA_10  and  N_11
REMARK    4  A    between atoms: CA_10  and  C_17
REMARK                            x       y       z     vdW  Elec       q    Type
REMARK                         _______ _______ _______ _____ _____    ______ ____
ROOT
ATOM      1  C   UNL     1      37.824 -26.263 -14.092  0.00  0.00    +0.139 C 
ENDROOT
BRANCH   1   5
ATOM      2  O   UNL     1      36.751 -25.722 -11.968  0.00  0.00    -0.316 OA
ATOM      3  O   UNL     1      35.376 -24.521 -14.910  0.00  0.00    -0.244 OA
ATOM      4  O   UNL     1      35.336 -24.905 -10.357  0.00  0.00    -0.221 OA
ATOM      5  N   UNL     1      36.763 -25.602 -13.378  0.00  0.00    -0.141 N 
ATOM      6  N   UNL     1      35.018 -24.484 -12.616  0.00  0.00    -0.240 N 
ATOM      7  C   UNL     1      35.685 -24.834 -13.769  0.00  0.00    +0.361 A 
ATOM      8  C   UNL     1      35.654 -25.016 -11.532  0.00  0.00    +0.441 A 
ATOM      9  H   UNL     1      34.203 -23.932 -12.580  0.00  0.00    +0.177 HD
ENDBRANCH   1   5
BRANCH   1  10
ATOM     10  CA  UNL     1      39.008 -25.343 -14.385  0.00  0.00    +0.067 C 
BRANCH  10  11
ATOM     11  N   UNL     1      38.578 -24.351 -15.422  0.00  0.00    +0.390 N 
ATOM     12  H1  UNL     1      38.561 -23.417 -15.014  0.00  0.00    -0.088 HD
ATOM     13  H2  UNL     1      37.644 -24.592 -15.756  0.00  0.00    -0.088 HD
ATOM     14  H3  UNL     1      39.233 -24.369 -16.203  0.00  0.00    -0.088 HD
ENDBRANCH  10  11
BRANCH  10  17
ATOM     15  O   UNL     1      40.982 -26.520 -13.755  0.00  0.00    -0.248 OA
ATOM     16  OXT UNL     1      40.634 -26.037 -15.958  0.00  0.00    -0.248 OA
ATOM     17  C   UNL     1      40.335 -26.042 -14.728  0.00  0.00    +0.347 C 
ENDBRANCH  10  17
ENDBRANCH   1  10
TORSDOF 4
ENDMDL
MODEL 6
REMARK VINA RESULT:      -6.9      1.241      1.280
REMARK  Name = 6971145
REMARK  4 active torsions:
REMARK  status: ('A' for Active; 'I' for Inactive)
REMARK    1  A    between atoms: C_1  and  N_5
REMARK    2  A    between atoms: C_1  and  CA_10
REMARK    3  A    between atoms: CA_10  and  N_11
REMARK    4  A    between atoms: CA_10  and  C_17
REMARK                            x       y       z     vdW  Elec       q    Type
REMARK                         _______ _______ _______ _____ _____    ______ ____
ROOT
ATOM      1  C   UNL     1      38.721 -25.465 -12.741  0.00  0.00    +0.139 C 
ENDROOT
BRANCH   1   5
ATOM      2  O   UNL     1      36.295 -25.215 -12.783  0.00  0.00    -0.316 OA
ATOM      3  O   UNL     1      38.242 -22.600 -11.618  0.00  0.00    -0.244 OA
ATOM      4  O   UNL     1      34.157 -24.404 -12.585  0.00  0.00    -0.221 OA
ATOM      5  N   UNL     1      37.559 -24.656 -12.483  0.00  0.00    -0.141 N 
ATOM      6  N   UNL     1      36.017 -23.160 -11.975  0.00  0.00    -0.240 N 
ATOM      7  C   UNL     1      37.375 -23.382 -11.983  0.00  0.00    +0.361 A 
ATOM      8  C   UNL     1      35.364 -24.257 -12.455  0.00  0.00    +0.441 A 
ATOM      9  H   UNL     1      35.581 -22.331 -11.668  0.00  0.00    +0.177 HD
ENDBRANCH   1   5
BRANCH   1  10
ATOM     10  CA  UNL     1      38.876 -25.832 -14.216  0.00  0.00    +0.067 C 
BRANCH  10  11
ATOM     11  N   UNL     1      37.921 -26.946 -14.518  0.00  0.00    +0.390 N 
ATOM     12  H1  UNL     1      37.818 -27.540 -13.696  0.00  0.00    -0.088 HD
ATOM     13  H2  UNL     1      38.282 -27.502 -15.295  0.00  0.00    -0.088 HD
ATOM     14  H3  UNL     1      37.013 -26.557 -14.773  0.00  0.00    -0.088 HD
ENDBRANCH  10  11
BRANCH  10  17
ATOM     15  O   UNL     1      40.550 -25.899 -15.911  0.00  0.00    -0.248 OA
ATOM     16  OXT UNL     1      41.086 -26.565 -13.796  0.00  0.00    -0.248 OA
ATOM     17  C   UNL     1      40.311 -26.118 -14.691  0.00  0.00    +0.347 C 
ENDBRANCH  10  17
ENDBRANCH   1  10
TORSDOF 4
ENDMDL
MODEL 7
REMARK VINA RESULT:      -6.5      1.633      4.709
REMARK  Name = 6971145
REMARK  4 active torsions:
REMARK  status: ('A' for Active; 'I' for Inactive)
REMARK    1  A    between atoms: C_1  and  N_5
REMARK    2  A    between atoms: C_1  and  CA_10
REMARK    3  A    between atoms: CA_10  and  N_11
REMARK    4  A    between atoms: CA_10  and  C_17
REMARK                            x       y       z     vdW  Elec       q    Type
REMARK                         _______ _______ _______ _____ _____    ______ ____
ROOT
ATOM      1  C   UNL     1      38.152 -24.755 -11.957  0.00  0.00    +0.139 C 
ENDROOT
BRANCH   1   5
ATOM      2  O   UNL     1      37.142 -25.961 -13.822  0.00  0.00    -0.316 OA
ATOM      3  O   UNL     1      40.430 -24.906 -14.076  0.00  0.00    -0.244 OA
ATOM      4  O   UNL     1      36.772 -27.008 -15.831  0.00  0.00    -0.221 OA
ATOM      5  N   UNL     1      38.275 -25.310 -13.279  0.00  0.00    -0.141 N 
ATOM      6  N   UNL     1      38.810 -26.037 -15.295  0.00  0.00    -0.240 N 
ATOM      7  C   UNL     1      39.302 -25.364 -14.200  0.00  0.00    +0.361 A 
ATOM      8  C   UNL     1      37.513 -26.399 -15.072  0.00  0.00    +0.441 A 
ATOM      9  H   UNL     1      39.318 -26.230 -16.117  0.00  0.00    +0.177 HD
ENDBRANCH   1   5
BRANCH   1  10
ATOM     10  CA  UNL     1      36.941 -23.836 -11.808  0.00  0.00    +0.067 C 
BRANCH  10  11
ATOM     11  N   UNL     1      37.430 -22.494 -11.357  0.00  0.00    +0.390 N 
ATOM     12  H1  UNL     1      37.169 -21.788 -12.045  0.00  0.00    -0.088 HD
ATOM     13  H2  UNL     1      38.447 -22.517 -11.264  0.00  0.00    -0.088 HD
ATOM     14  H3  UNL     1      37.012 -22.264 -10.456  0.00  0.00    -0.088 HD
ENDBRANCH  10  11
BRANCH  10  17
ATOM     15  O   UNL     1      35.933 -24.294  -9.697  0.00  0.00    -0.248 OA
ATOM     16  OXT UNL     1      34.825 -24.876 -11.604  0.00  0.00    -0.248 OA
ATOM     17  C   UNL     1      35.786 -24.381 -10.948  0.00  0.00    +0.347 C 
ENDBRANCH  10  17
ENDBRANCH   1  10
TORSDOF 4
ENDMDL
MODEL 8
REMARK VINA RESULT:      -6.5      2.108      4.293
REMARK  Name = 6971145
REMARK  4 active torsions:
REMARK  status: ('A' for Active; 'I' for Inactive)
REMARK    1  A    between atoms: C_1  and  N_5
REMARK    2  A    between atoms: C_1  and  CA_10
REMARK    3  A    between atoms: CA_10  and  N_11
REMARK    4  A    between atoms: CA_10  and  C_17
REMARK                            x       y       z     vdW  Elec       q    Type
REMARK                         _______ _______ _______ _____ _____    ______ ____
ROOT
ATOM      1  C   UNL     1      37.057 -23.413 -13.518  0.00  0.00    +0.139 C 
ENDROOT
BRANCH   1   5
ATOM      2  O   UNL     1      38.883 -24.416 -14.788  0.00  0.00    -0.316 OA
ATOM      3  O   UNL     1      37.784 -25.970 -11.895  0.00  0.00    -0.244 OA
ATOM      4  O   UNL     1      40.567 -25.796 -15.515  0.00  0.00    -0.221 OA
ATOM      5  N   UNL     1      38.022 -24.471 -13.666  0.00  0.00    -0.141 N 
ATOM      6  N   UNL     1      39.355 -26.229 -13.585  0.00  0.00    -0.240 N 
ATOM      7  C   UNL     1      38.323 -25.598 -12.928  0.00  0.00    +0.361 A 
ATOM      8  C   UNL     1      39.695 -25.524 -14.703  0.00  0.00    +0.441 A 
ATOM      9  H   UNL     1      39.785 -27.066 -13.292  0.00  0.00    +0.177 HD
ENDBRANCH   1   5
BRANCH   1  10
ATOM     10  CA  UNL     1      35.653 -23.822 -13.960  0.00  0.00    +0.067 C 
BRANCH  10  11
ATOM     11  N   UNL     1      35.079 -24.720 -12.907  0.00  0.00    +0.390 N 
ATOM     12  H1  UNL     1      35.378 -25.679 -13.077  0.00  0.00    -0.088 HD
ATOM     13  H2  UNL     1      34.060 -24.672 -12.940  0.00  0.00    -0.088 HD
ATOM     14  H3  UNL     1      35.404 -24.419 -11.989  0.00  0.00    -0.088 HD
ENDBRANCH  10  11
BRANCH  10  17
ATOM     15  O   UNL     1      35.318 -23.572 -16.306  0.00  0.00    -0.248 OA
ATOM     16  OXT UNL     1      35.658 -25.660 -15.451  0.00  0.00    -0.248 OA
ATOM     17  C   UNL     1      35.538 -24.402 -15.381  0.00  0.00    +0.347 C 
ENDBRANCH  10  17
ENDBRANCH   1  10
TORSDOF 4
ENDMDL
MODEL 9
REMARK VINA RESULT:      -6.4      1.743      2.290
REMARK  Name = 6971145
REMARK  4 active torsions:
REMARK  status: ('A' for Active; 'I' for Inactive)
REMARK    1  A    between atoms: C_1  and  N_5
REMARK    2  A    between atoms: C_1  and  CA_10
REMARK    3  A    between atoms: CA_10  and  N_11
REMARK    4  A    between atoms: CA_10  and  C_17
REMARK                            x       y       z     vdW  Elec       q    Type
REMARK                         _______ _______ _______ _____ _____    ______ ____
ROOT
ATOM      1  C   UNL     1      38.211 -24.627 -13.314  0.00  0.00    +0.139 C 
ENDROOT
BRANCH   1   5
ATOM      2  O   UNL     1      36.090 -24.312 -14.477  0.00  0.00    -0.316 OA
ATOM      3  O   UNL     1      36.067 -25.145 -11.115  0.00  0.00    -0.244 OA
ATOM      4  O   UNL     1      33.858 -24.154 -14.991  0.00  0.00    -0.221 OA
ATOM      5  N   UNL     1      36.773 -24.620 -13.276  0.00  0.00    -0.141 N 
ATOM      6  N   UNL     1      34.605 -24.693 -12.861  0.00  0.00    -0.240 N 
ATOM      7  C   UNL     1      35.843 -24.853 -12.282  0.00  0.00    +0.361 A 
ATOM      8  C   UNL     1      34.747 -24.367 -14.179  0.00  0.00    +0.441 A 
ATOM      9  H   UNL     1      33.744 -24.797 -12.394  0.00  0.00    +0.177 HD
ENDBRANCH   1   5
BRANCH   1  10
ATOM     10  CA  UNL     1      38.773 -25.491 -14.442  0.00  0.00    +0.067 C 
BRANCH  10  11
ATOM     11  N   UNL     1      38.070 -26.814 -14.406  0.00  0.00    +0.390 N 
ATOM     12  H1  UNL     1      38.396 -27.394 -15.179  0.00  0.00    -0.088 HD
ATOM     13  H2  UNL     1      37.064 -26.667 -14.493  0.00  0.00    -0.088 HD
ATOM     14  H3  UNL     1      38.270 -27.281 -13.522  0.00  0.00    -0.088 HD
ENDBRANCH  10  11
BRANCH  10  17
ATOM     15  O   UNL     1      40.761 -26.758 -14.790  0.00  0.00    -0.248 OA
ATOM     16  OXT UNL     1      40.935 -24.560 -14.205  0.00  0.00    -0.248 OA
ATOM     17  C   UNL     1      40.305 -25.619 -14.492  0.00  0.00    +0.347 C 
ENDBRANCH  10  17
ENDBRANCH   1  10
TORSDOF 4
ENDMDL
