MODEL 1
REMARK VINA RESULT:      -9.0      0.000      0.000
REMARK  Name = 445404
REMARK  5 active torsions:
REMARK  status: ('A' for Active; 'I' for Inactive)
REMARK    1  A    between atoms: N_2  and  C1*_17
REMARK    2  A    between atoms: C2*_18  and  O2*_21
REMARK    3  A    between atoms: C3*_19  and  O3*_23
REMARK    4  A    between atoms: C4*_20  and  C5*_25
REMARK    5  A    between atoms: C5*_25  and  O5*_26
REMARK                            x       y       z     vdW  Elec       q    Type
REMARK                         _______ _______ _______ _____ _____    ______ ____
ROOT
ATOM      1  O   UNL     1      30.207 -23.053 -16.452  0.00  0.00    -0.208 OA
ATOM      2  N   UNL     1      34.377 -23.731 -14.676  0.00  0.00    -0.253 N 
ATOM      3  N   UNL     1      32.239 -23.781 -14.273  0.00  0.00    -0.277 N 
ATOM      4  N   UNL     1      34.266 -23.008 -17.040  0.00  0.00    -0.263 N 
ATOM      5  N   UNL     1      32.013 -22.697 -17.820  0.00  0.00    -0.301 NA
ATOM      6  N   UNL     1      33.876 -22.335 -19.216  0.00  0.00    -0.320 N 
ATOM      7  C   UNL     1      33.734 -23.357 -15.831  0.00  0.00    +0.132 C 
ATOM      8  C   UNL     1      33.450 -23.984 -13.737  0.00  0.00    +0.192 C 
ATOM      9  C   UNL     1      32.387 -23.389 -15.580  0.00  0.00    +0.173 C 
ATOM     10  C   UNL     1      31.427 -23.051 -16.590  0.00  0.00    +0.224 C 
ATOM     11  C   UNL     1      30.987 -23.953 -13.567  0.00  0.00    +0.115 C 
ATOM     12  C   UNL     1      33.320 -22.682 -18.011  0.00  0.00    +0.248 C 
ATOM     13  H   UNL     1      35.236 -22.987 -17.211  0.00  0.00    +0.157 HD
ATOM     14  H   UNL     1      34.855 -22.334 -19.325  0.00  0.00    +0.146 HD
ATOM     15  H   UNL     1      33.298 -22.087 -19.973  0.00  0.00    +0.146 HD
ENDROOT
BRANCH   2  17
ATOM     16  O4* UNL     1      36.416 -24.667 -15.502  0.00  0.00    -0.333 OA
ATOM     17  C1* UNL     1      35.821 -23.840 -14.483  0.00  0.00    +0.224 C 
ATOM     18  C2* UNL     1      36.185 -24.480 -13.156  0.00  0.00    +0.187 C 
ATOM     19  C3* UNL     1      37.559 -25.046 -13.452  0.00  0.00    +0.171 C 
ATOM     20  C4* UNL     1      37.407 -25.525 -14.891  0.00  0.00    +0.175 C 
BRANCH  18  21
ATOM     21  O2* UNL     1      36.187 -23.539 -12.102  0.00  0.00    -0.378 OA
ATOM     22  H2* UNL     1      36.226 -24.006 -11.252  0.00  0.00    +0.211 HD
ENDBRANCH  18  21
BRANCH  19  23
ATOM     23  O3* UNL     1      38.525 -23.995 -13.414  0.00  0.00    -0.379 OA
ATOM     24  H3* UNL     1      39.318 -24.266 -13.902  0.00  0.00    +0.211 HD
ENDBRANCH  19  23
BRANCH  20  25
ATOM     25  C5* UNL     1      36.923 -26.964 -14.990  0.00  0.00    +0.169 C 
BRANCH  25  26
ATOM     26  O5* UNL     1      36.734 -27.286 -16.357  0.00  0.00    -0.379 OA
ATOM     27  H5* UNL     1      37.597 -27.404 -16.784  0.00  0.00    +0.211 HD
ENDBRANCH  25  26
ENDBRANCH  20  25
ENDBRANCH   2  17
TORSDOF 5
ENDMDL
MODEL 2
REMARK VINA RESULT:      -8.9      1.465      3.646
REMARK  Name = 445404
REMARK  5 active torsions:
REMARK  status: ('A' for Active; 'I' for Inactive)
REMARK    1  A    between atoms: N_2  and  C1*_17
REMARK    2  A    between atoms: C2*_18  and  O2*_21
REMARK    3  A    between atoms: C3*_19  and  O3*_23
REMARK    4  A    between atoms: C4*_20  and  C5*_25
REMARK    5  A    between atoms: C5*_25  and  O5*_26
REMARK                            x       y       z     vdW  Elec       q    Type
REMARK                         _______ _______ _______ _____ _____    ______ ____
ROOT
ATOM      1  O   UNL     1      31.180 -22.653 -17.054  0.00  0.00    -0.208 OA
ATOM      2  N   UNL     1      34.895 -24.361 -14.986  0.00  0.00    -0.253 N 
ATOM      3  N   UNL     1      34.171 -23.231 -16.698  0.00  0.00    -0.277 N 
ATOM      4  N   UNL     1      32.713 -24.769 -13.892  0.00  0.00    -0.263 N 
ATOM      5  N   UNL     1      30.867 -23.810 -15.098  0.00  0.00    -0.301 NA
ATOM      6  N   UNL     1      30.559 -25.000 -13.089  0.00  0.00    -0.320 N 
ATOM      7  C   UNL     1      33.529 -24.271 -14.868  0.00  0.00    +0.132 C 
ATOM      8  C   UNL     1      35.268 -23.723 -16.108  0.00  0.00    +0.192 C 
ATOM      9  C   UNL     1      33.071 -23.558 -15.945  0.00  0.00    +0.173 C 
ATOM     10  C   UNL     1      31.675 -23.281 -16.123  0.00  0.00    +0.224 C 
ATOM     11  C   UNL     1      34.169 -22.477 -17.934  0.00  0.00    +0.115 C 
ATOM     12  C   UNL     1      31.359 -24.491 -14.080  0.00  0.00    +0.248 C 
ATOM     13  H   UNL     1      33.051 -25.281 -13.122  0.00  0.00    +0.157 HD
ATOM     14  H   UNL     1      30.958 -25.503 -12.343  0.00  0.00    +0.146 HD
ATOM     15  H   UNL     1      29.585 -24.861 -13.122  0.00  0.00    +0.146 HD
ENDROOT
BRANCH   2  17
ATOM     16  O4* UNL     1      35.601 -24.568 -12.710  0.00  0.00    -0.333 OA
ATOM     17  C1* UNL     1      35.803 -25.033 -14.059  0.00  0.00    +0.224 C 
ATOM     18  C2* UNL     1      37.263 -24.772 -14.381  0.00  0.00    +0.187 C 
ATOM     19  C3* UNL     1      37.920 -24.983 -13.032  0.00  0.00    +0.171 C 
ATOM     20  C4* UNL     1      36.889 -24.396 -12.076  0.00  0.00    +0.175 C 
BRANCH  18  21
ATOM     21  O2* UNL     1      37.747 -25.647 -15.378  0.00  0.00    -0.378 OA
ATOM     22  H2* UNL     1      37.273 -26.492 -15.325  0.00  0.00    +0.211 HD
ENDBRANCH  18  21
BRANCH  19  23
ATOM     23  O3* UNL     1      38.042 -26.383 -12.777  0.00  0.00    -0.379 OA
ATOM     24  H3* UNL     1      38.258 -26.524 -11.843  0.00  0.00    +0.211 HD
ENDBRANCH  19  23
BRANCH  20  25
ATOM     25  C5* UNL     1      37.100 -22.912 -11.813  0.00  0.00    +0.169 C 
BRANCH  25  26
ATOM     26  O5* UNL     1      38.478 -22.686 -11.570  0.00  0.00    -0.379 OA
ATOM     27  H5* UNL     1      38.668 -22.825 -10.629  0.00  0.00    +0.211 HD
ENDBRANCH  25  26
ENDBRANCH  20  25
ENDBRANCH   2  17
TORSDOF 5
ENDMDL
MODEL 3
REMARK VINA RESULT:      -8.8      1.312      2.090
REMARK  Name = 445404
REMARK  5 active torsions:
REMARK  status: ('A' for Active; 'I' for Inactive)
REMARK    1  A    between atoms: N_2  and  C1*_17
REMARK    2  A    between atoms: C2*_18  and  O2*_21
REMARK    3  A    between atoms: C3*_19  and  O3*_23
REMARK    4  A    between atoms: C4*_20  and  C5*_25
REMARK    5  A    between atoms: C5*_25  and  O5*_26
REMARK                            x       y       z     vdW  Elec       q    Type
REMARK                         _______ _______ _______ _____ _____    ______ ____
ROOT
ATOM      1  O   UNL     1      30.295 -22.702 -16.931  0.00  0.00    -0.208 OA
ATOM      2  N   UNL     1      34.030 -24.014 -14.623  0.00  0.00    -0.253 N 
ATOM      3  N   UNL     1      31.865 -23.812 -14.541  0.00  0.00    -0.277 N 
ATOM      4  N   UNL     1      34.373 -23.144 -16.914  0.00  0.00    -0.263 N 
ATOM      5  N   UNL     1      32.320 -22.501 -17.988  0.00  0.00    -0.301 NA
ATOM      6  N   UNL     1      34.406 -22.300 -19.064  0.00  0.00    -0.320 N 
ATOM      7  C   UNL     1      33.623 -23.493 -15.826  0.00  0.00    +0.132 C 
ATOM      8  C   UNL     1      32.946 -24.200 -13.851  0.00  0.00    +0.192 C 
ATOM      9  C   UNL     1      32.258 -23.366 -15.778  0.00  0.00    +0.173 C 
ATOM     10  C   UNL     1      31.513 -22.849 -16.888  0.00  0.00    +0.224 C 
ATOM     11  C   UNL     1      30.507 -23.862 -14.041  0.00  0.00    +0.115 C 
ATOM     12  C   UNL     1      33.633 -22.643 -17.984  0.00  0.00    +0.248 C 
ATOM     13  H   UNL     1      35.353 -23.239 -16.939  0.00  0.00    +0.157 HD
ATOM     14  H   UNL     1      35.383 -22.419 -19.028  0.00  0.00    +0.146 HD
ATOM     15  H   UNL     1      33.986 -21.936 -19.876  0.00  0.00    +0.146 HD
ENDROOT
BRANCH   2  17
ATOM     16  O4* UNL     1      36.215 -23.128 -14.225  0.00  0.00    -0.333 OA
ATOM     17  C1* UNL     1      35.404 -24.319 -14.230  0.00  0.00    +0.224 C 
ATOM     18  C2* UNL     1      36.082 -25.287 -15.182  0.00  0.00    +0.187 C 
ATOM     19  C3* UNL     1      37.544 -24.951 -14.976  0.00  0.00    +0.171 C 
ATOM     20  C4* UNL     1      37.506 -23.438 -14.799  0.00  0.00    +0.175 C 
BRANCH  18  21
ATOM     21  O2* UNL     1      35.771 -26.630 -14.876  0.00  0.00    -0.378 OA
ATOM     22  H2* UNL     1      36.523 -27.040 -14.420  0.00  0.00    +0.211 HD
ENDBRANCH  18  21
BRANCH  19  23
ATOM     23  O3* UNL     1      38.002 -25.547 -13.762  0.00  0.00    -0.379 OA
ATOM     24  H3* UNL     1      37.671 -26.456 -13.702  0.00  0.00    +0.211 HD
ENDBRANCH  19  23
BRANCH  20  25
ATOM     25  C5* UNL     1      37.641 -22.683 -16.114  0.00  0.00    +0.169 C 
BRANCH  25  26
ATOM     26  O5* UNL     1      36.797 -21.545 -16.072  0.00  0.00    -0.379 OA
ATOM     27  H5* UNL     1      36.550 -21.358 -15.153  0.00  0.00    +0.211 HD
ENDBRANCH  25  26
ENDBRANCH  20  25
ENDBRANCH   2  17
TORSDOF 5
ENDMDL
MODEL 4
REMARK VINA RESULT:      -8.8      1.461      2.185
REMARK  Name = 445404
REMARK  5 active torsions:
REMARK  status: ('A' for Active; 'I' for Inactive)
REMARK    1  A    between atoms: N_2  and  C1*_17
REMARK    2  A    between atoms: C2*_18  and  O2*_21
REMARK    3  A    between atoms: C3*_19  and  O3*_23
REMARK    4  A    between atoms: C4*_20  and  C5*_25
REMARK    5  A    between atoms: C5*_25  and  O5*_26
REMARK                            x       y       z     vdW  Elec       q    Type
REMARK                         _______ _______ _______ _____ _____    ______ ____
ROOT
ATOM      1  O   UNL     1      30.358 -22.730 -16.792  0.00  0.00    -0.208 OA
ATOM      2  N   UNL     1      34.179 -24.039 -14.628  0.00  0.00    -0.253 N 
ATOM      3  N   UNL     1      32.023 -23.799 -14.449  0.00  0.00    -0.277 N 
ATOM      4  N   UNL     1      34.425 -23.241 -16.957  0.00  0.00    -0.263 N 
ATOM      5  N   UNL     1      32.333 -22.593 -17.951  0.00  0.00    -0.301 NA
ATOM      6  N   UNL     1      34.368 -22.459 -19.130  0.00  0.00    -0.320 N 
ATOM      7  C   UNL     1      33.722 -23.546 -15.825  0.00  0.00    +0.132 C 
ATOM      8  C   UNL     1      33.130 -24.185 -13.800  0.00  0.00    +0.192 C 
ATOM      9  C   UNL     1      32.364 -23.395 -15.716  0.00  0.00    +0.173 C 
ATOM     10  C   UNL     1      31.574 -22.896 -16.804  0.00  0.00    +0.224 C 
ATOM     11  C   UNL     1      30.691 -23.812 -13.884  0.00  0.00    +0.115 C 
ATOM     12  C   UNL     1      33.642 -22.757 -18.005  0.00  0.00    +0.248 C 
ATOM     13  H   UNL     1      35.401 -23.353 -17.026  0.00  0.00    +0.157 HD
ATOM     14  H   UNL     1      35.343 -22.593 -19.137  0.00  0.00    +0.146 HD
ATOM     15  H   UNL     1      33.914 -22.110 -19.931  0.00  0.00    +0.146 HD
ENDROOT
BRANCH   2  17
ATOM     16  O4* UNL     1      35.636 -25.155 -13.095  0.00  0.00    -0.333 OA
ATOM     17  C1* UNL     1      35.565 -24.356 -14.292  0.00  0.00    +0.224 C 
ATOM     18  C2* UNL     1      36.398 -23.116 -14.021  0.00  0.00    +0.187 C 
ATOM     19  C3* UNL     1      37.489 -23.666 -13.126  0.00  0.00    +0.171 C 
ATOM     20  C4* UNL     1      36.731 -24.680 -12.278  0.00  0.00    +0.175 C 
BRANCH  18  21
ATOM     21  O2* UNL     1      36.892 -22.543 -15.213  0.00  0.00    -0.378 OA
ATOM     22  H2* UNL     1      37.824 -22.788 -15.328  0.00  0.00    +0.211 HD
ENDBRANCH  18  21
BRANCH  19  23
ATOM     23  O3* UNL     1      38.453 -24.357 -13.922  0.00  0.00    -0.379 OA
ATOM     24  H3* UNL     1      38.021 -25.083 -14.396  0.00  0.00    +0.211 HD
ENDBRANCH  19  23
BRANCH  20  25
ATOM     25  C5* UNL     1      36.155 -24.079 -11.005  0.00  0.00    +0.169 C 
BRANCH  25  26
ATOM     26  O5* UNL     1      35.297 -25.031 -10.401  0.00  0.00    -0.379 OA
ATOM     27  H5* UNL     1      35.625 -25.245  -9.513  0.00  0.00    +0.211 HD
ENDBRANCH  25  26
ENDBRANCH  20  25
ENDBRANCH   2  17
TORSDOF 5
ENDMDL
MODEL 5
REMARK VINA RESULT:      -8.7      1.813      3.150
REMARK  Name = 445404
REMARK  5 active torsions:
REMARK  status: ('A' for Active; 'I' for Inactive)
REMARK    1  A    between atoms: N_2  and  C1*_17
REMARK    2  A    between atoms: C2*_18  and  O2*_21
REMARK    3  A    between atoms: C3*_19  and  O3*_23
REMARK    4  A    between atoms: C4*_20  and  C5*_25
REMARK    5  A    between atoms: C5*_25  and  O5*_26
REMARK                            x       y       z     vdW  Elec       q    Type
REMARK                         _______ _______ _______ _____ _____    ______ ____
ROOT
ATOM      1  O   UNL     1      31.913 -22.896 -17.683  0.00  0.00    -0.208 OA
ATOM      2  N   UNL     1      35.330 -23.256 -14.651  0.00  0.00    -0.253 N 
ATOM      3  N   UNL     1      34.828 -22.856 -16.730  0.00  0.00    -0.277 N 
ATOM      4  N   UNL     1      33.035 -23.631 -13.806  0.00  0.00    -0.263 N 
ATOM      5  N   UNL     1      31.359 -23.405 -15.516  0.00  0.00    -0.301 NA
ATOM      6  N   UNL     1      30.803 -23.928 -13.287  0.00  0.00    -0.320 N 
ATOM      7  C   UNL     1      33.965 -23.348 -14.766  0.00  0.00    +0.132 C 
ATOM      8  C   UNL     1      35.840 -22.958 -15.857  0.00  0.00    +0.192 C 
ATOM      9  C   UNL     1      33.646 -23.094 -16.075  0.00  0.00    +0.173 C 
ATOM     10  C   UNL     1      32.287 -23.110 -16.533  0.00  0.00    +0.224 C 
ATOM     11  C   UNL     1      34.981 -22.545 -18.135  0.00  0.00    +0.115 C 
ATOM     12  C   UNL     1      31.719 -23.642 -14.268  0.00  0.00    +0.248 C 
ATOM     13  H   UNL     1      33.274 -23.811 -12.868  0.00  0.00    +0.157 HD
ATOM     14  H   UNL     1      31.105 -24.099 -12.366  0.00  0.00    +0.146 HD
ATOM     15  H   UNL     1      29.844 -23.961 -13.504  0.00  0.00    +0.146 HD
ENDROOT
BRANCH   2  17
ATOM     16  O4* UNL     1      37.516 -23.234 -13.680  0.00  0.00    -0.333 OA
ATOM     17  C1* UNL     1      36.113 -23.449 -13.432  0.00  0.00    +0.224 C 
ATOM     18  C2* UNL     1      35.994 -24.857 -12.878  0.00  0.00    +0.187 C 
ATOM     19  C3* UNL     1      37.284 -24.993 -12.097  0.00  0.00    +0.171 C 
ATOM     20  C4* UNL     1      38.276 -24.246 -12.981  0.00  0.00    +0.175 C 
BRANCH  18  21
ATOM     21  O2* UNL     1      34.840 -25.012 -12.078  0.00  0.00    -0.378 OA
ATOM     22  H2* UNL     1      34.147 -24.408 -12.389  0.00  0.00    +0.211 HD
ENDBRANCH  18  21
BRANCH  19  23
ATOM     23  O3* UNL     1      37.162 -24.302 -10.853  0.00  0.00    -0.379 OA
ATOM     24  H3* UNL     1      37.793 -24.670 -10.215  0.00  0.00    +0.211 HD
ENDBRANCH  19  23
BRANCH  20  25
ATOM     25  C5* UNL     1      38.945 -25.143 -14.012  0.00  0.00    +0.169 C 
BRANCH  25  26
ATOM     26  O5* UNL     1      39.087 -24.417 -15.221  0.00  0.00    -0.379 OA
ATOM     27  H5* UNL     1      39.618 -23.621 -15.060  0.00  0.00    +0.211 HD
ENDBRANCH  25  26
ENDBRANCH  20  25
ENDBRANCH   2  17
TORSDOF 5
ENDMDL
MODEL 6
REMARK VINA RESULT:      -8.7      2.527      5.701
REMARK  Name = 445404
REMARK  5 active torsions:
REMARK  status: ('A' for Active; 'I' for Inactive)
REMARK    1  A    between atoms: N_2  and  C1*_17
REMARK    2  A    between atoms: C2*_18  and  O2*_21
REMARK    3  A    between atoms: C3*_19  and  O3*_23
REMARK    4  A    between atoms: C4*_20  and  C5*_25
REMARK    5  A    between atoms: C5*_25  and  O5*_26
REMARK                            x       y       z     vdW  Elec       q    Type
REMARK                         _______ _______ _______ _____ _____    ______ ____
ROOT
ATOM      1  O   UNL     1      37.155 -21.934 -17.556  0.00  0.00    -0.208 OA
ATOM      2  N   UNL     1      33.216 -23.531 -15.842  0.00  0.00    -0.253 N 
ATOM      3  N   UNL     1      34.194 -22.733 -17.615  0.00  0.00    -0.277 N 
ATOM      4  N   UNL     1      35.157 -23.449 -14.310  0.00  0.00    -0.263 N 
ATOM      5  N   UNL     1      37.143 -22.590 -15.358  0.00  0.00    -0.301 NA
ATOM      6  N   UNL     1      37.119 -23.268 -13.102  0.00  0.00    -0.320 N 
ATOM      7  C   UNL     1      34.522 -23.269 -15.506  0.00  0.00    +0.132 C 
ATOM      8  C   UNL     1      33.034 -23.197 -17.131  0.00  0.00    +0.192 C 
ATOM      9  C   UNL     1      35.141 -22.767 -16.621  0.00  0.00    +0.173 C 
ATOM     10  C   UNL     1      36.524 -22.390 -16.607  0.00  0.00    +0.224 C 
ATOM     11  C   UNL     1      34.394 -22.272 -18.972  0.00  0.00    +0.115 C 
ATOM     12  C   UNL     1      36.501 -23.078 -14.312  0.00  0.00    +0.248 C 
ATOM     13  H   UNL     1      34.705 -23.811 -13.513  0.00  0.00    +0.157 HD
ATOM     14  H   UNL     1      36.611 -23.634 -12.342  0.00  0.00    +0.146 HD
ATOM     15  H   UNL     1      38.070 -23.039 -12.993  0.00  0.00    +0.146 HD
ENDROOT
BRANCH   2  17
ATOM     16  O4* UNL     1      30.979 -24.361 -15.695  0.00  0.00    -0.333 OA
ATOM     17  C1* UNL     1      32.187 -24.080 -14.962  0.00  0.00    +0.224 C 
ATOM     18  C2* UNL     1      31.794 -23.119 -13.855  0.00  0.00    +0.187 C 
ATOM     19  C3* UNL     1      30.389 -23.581 -13.527  0.00  0.00    +0.171 C 
ATOM     20  C4* UNL     1      29.842 -23.949 -14.901  0.00  0.00    +0.175 C 
BRANCH  18  21
ATOM     21  O2* UNL     1      32.676 -23.195 -12.754  0.00  0.00    -0.378 OA
ATOM     22  H2* UNL     1      33.576 -23.368 -13.072  0.00  0.00    +0.211 HD
ENDBRANCH  18  21
BRANCH  19  23
ATOM     23  O3* UNL     1      30.452 -24.761 -12.725  0.00  0.00    -0.379 OA
ATOM     24  H3* UNL     1      30.011 -24.600 -11.877  0.00  0.00    +0.211 HD
ENDBRANCH  19  23
BRANCH  20  25
ATOM     25  C5* UNL     1      29.165 -22.780 -15.603  0.00  0.00    +0.169 C 
BRANCH  25  26
ATOM     26  O5* UNL     1      29.594 -22.751 -16.954  0.00  0.00    -0.379 OA
ATOM     27  H5* UNL     1      29.429 -21.871 -17.327  0.00  0.00    +0.211 HD
ENDBRANCH  25  26
ENDBRANCH  20  25
ENDBRANCH   2  17
TORSDOF 5
ENDMDL
MODEL 7
REMARK VINA RESULT:      -8.5      2.104      3.511
REMARK  Name = 445404
REMARK  5 active torsions:
REMARK  status: ('A' for Active; 'I' for Inactive)
REMARK    1  A    between atoms: N_2  and  C1*_17
REMARK    2  A    between atoms: C2*_18  and  O2*_21
REMARK    3  A    between atoms: C3*_19  and  O3*_23
REMARK    4  A    between atoms: C4*_20  and  C5*_25
REMARK    5  A    between atoms: C5*_25  and  O5*_26
REMARK                            x       y       z     vdW  Elec       q    Type
REMARK                         _______ _______ _______ _____ _____    ______ ____
ROOT
ATOM      1  O   UNL     1      33.534 -21.677 -19.687  0.00  0.00    -0.208 OA
ATOM      2  N   UNL     1      35.942 -22.995 -16.017  0.00  0.00    -0.253 N 
ATOM      3  N   UNL     1      36.049 -22.039 -17.969  0.00  0.00    -0.277 N 
ATOM      4  N   UNL     1      33.511 -23.459 -15.991  0.00  0.00    -0.263 N 
ATOM      5  N   UNL     1      32.393 -22.707 -17.983  0.00  0.00    -0.301 NA
ATOM      6  N   UNL     1      31.233 -23.765 -16.227  0.00  0.00    -0.320 N 
ATOM      7  C   UNL     1      34.670 -22.983 -16.536  0.00  0.00    +0.132 C 
ATOM      8  C   UNL     1      36.769 -22.418 -16.904  0.00  0.00    +0.192 C 
ATOM      9  C   UNL     1      34.735 -22.379 -17.766  0.00  0.00    +0.173 C 
ATOM     10  C   UNL     1      33.567 -22.205 -18.578  0.00  0.00    +0.224 C 
ATOM     11  C   UNL     1      36.592 -21.379 -19.137  0.00  0.00    +0.115 C 
ATOM     12  C   UNL     1      32.385 -23.281 -16.794  0.00  0.00    +0.248 C 
ATOM     13  H   UNL     1      33.474 -23.891 -15.107  0.00  0.00    +0.157 HD
ATOM     14  H   UNL     1      31.262 -24.188 -15.338  0.00  0.00    +0.146 HD
ATOM     15  H   UNL     1      30.378 -23.691 -16.709  0.00  0.00    +0.146 HD
ENDROOT
BRANCH   2  17
ATOM     16  O4* UNL     1      37.740 -23.284 -14.467  0.00  0.00    -0.333 OA
ATOM     17  C1* UNL     1      36.345 -23.540 -14.723  0.00  0.00    +0.224 C 
ATOM     18  C2* UNL     1      36.173 -25.046 -14.645  0.00  0.00    +0.187 C 
ATOM     19  C3* UNL     1      37.184 -25.419 -13.581  0.00  0.00    +0.171 C 
ATOM     20  C4* UNL     1      38.334 -24.465 -13.880  0.00  0.00    +0.175 C 
BRANCH  18  21
ATOM     21  O2* UNL     1      34.850 -25.408 -14.305  0.00  0.00    -0.378 OA
ATOM     22  H2* UNL     1      34.304 -24.608 -14.235  0.00  0.00    +0.211 HD
ENDBRANCH  18  21
BRANCH  19  23
ATOM     23  O3* UNL     1      36.653 -25.112 -12.291  0.00  0.00    -0.379 OA
ATOM     24  H3* UNL     1      35.685 -25.141 -12.325  0.00  0.00    +0.211 HD
ENDBRANCH  19  23
BRANCH  20  25
ATOM     25  C5* UNL     1      39.339 -25.038 -14.869  0.00  0.00    +0.169 C 
BRANCH  25  26
ATOM     26  O5* UNL     1      40.646 -24.822 -14.363  0.00  0.00    -0.379 OA
ATOM     27  H5* UNL     1      41.297 -25.024 -15.053  0.00  0.00    +0.211 HD
ENDBRANCH  25  26
ENDBRANCH  20  25
ENDBRANCH   2  17
TORSDOF 5
ENDMDL
MODEL 8
REMARK VINA RESULT:      -8.4      1.570      3.414
REMARK  Name = 445404
REMARK  5 active torsions:
REMARK  status: ('A' for Active; 'I' for Inactive)
REMARK    1  A    between atoms: N_2  and  C1*_17
REMARK    2  A    between atoms: C2*_18  and  O2*_21
REMARK    3  A    between atoms: C3*_19  and  O3*_23
REMARK    4  A    between atoms: C4*_20  and  C5*_25
REMARK    5  A    between atoms: C5*_25  and  O5*_26
REMARK                            x       y       z     vdW  Elec       q    Type
REMARK                         _______ _______ _______ _____ _____    ______ ____
ROOT
ATOM      1  O   UNL     1      30.637 -22.748 -17.176  0.00  0.00    -0.208 OA
ATOM      2  N   UNL     1      34.875 -23.765 -15.762  0.00  0.00    -0.253 N 
ATOM      3  N   UNL     1      33.697 -22.848 -17.345  0.00  0.00    -0.277 N 
ATOM      4  N   UNL     1      33.007 -24.438 -14.286  0.00  0.00    -0.263 N 
ATOM      5  N   UNL     1      30.852 -23.834 -15.167  0.00  0.00    -0.301 NA
ATOM      6  N   UNL     1      31.087 -24.949 -13.106  0.00  0.00    -0.320 N 
ATOM      7  C   UNL     1      33.554 -23.875 -15.405  0.00  0.00    +0.132 C 
ATOM      8  C   UNL     1      34.944 -23.138 -16.948  0.00  0.00    +0.192 C 
ATOM      9  C   UNL     1      32.809 -23.297 -16.400  0.00  0.00    +0.173 C 
ATOM     10  C   UNL     1      31.378 -23.244 -16.333  0.00  0.00    +0.224 C 
ATOM     11  C   UNL     1      33.364 -22.170 -18.580  0.00  0.00    +0.115 C 
ATOM     12  C   UNL     1      31.614 -24.379 -14.237  0.00  0.00    +0.248 C 
ATOM     13  H   UNL     1      33.549 -24.852 -13.576  0.00  0.00    +0.157 HD
ATOM     14  H   UNL     1      31.684 -25.346 -12.430  0.00  0.00    +0.146 HD
ATOM     15  H   UNL     1      30.113 -24.961 -12.968  0.00  0.00    +0.146 HD
ENDROOT
BRANCH   2  17
ATOM     16  O4* UNL     1      35.605 -25.115 -13.928  0.00  0.00    -0.333 OA
ATOM     17  C1* UNL     1      36.024 -24.242 -14.996  0.00  0.00    +0.224 C 
ATOM     18  C2* UNL     1      36.796 -23.113 -14.338  0.00  0.00    +0.187 C 
ATOM     19  C3* UNL     1      37.455 -23.825 -13.174  0.00  0.00    +0.171 C 
ATOM     20  C4* UNL     1      36.372 -24.806 -12.741  0.00  0.00    +0.175 C 
BRANCH  18  21
ATOM     21  O2* UNL     1      37.723 -22.523 -15.225  0.00  0.00    -0.378 OA
ATOM     22  H2* UNL     1      38.015 -23.183 -15.874  0.00  0.00    +0.211 HD
ENDBRANCH  18  21
BRANCH  19  23
ATOM     23  O3* UNL     1      38.584 -24.562 -13.645  0.00  0.00    -0.379 OA
ATOM     24  H3* UNL     1      38.460 -24.780 -14.581  0.00  0.00    +0.211 HD
ENDBRANCH  19  23
BRANCH  20  25
ATOM     25  C5* UNL     1      35.428 -24.226 -11.698  0.00  0.00    +0.169 C 
BRANCH  25  26
ATOM     26  O5* UNL     1      35.282 -25.164 -10.645  0.00  0.00    -0.379 OA
ATOM     27  H5* UNL     1      35.735 -24.835  -9.853  0.00  0.00    +0.211 HD
ENDBRANCH  25  26
ENDBRANCH  20  25
ENDBRANCH   2  17
TORSDOF 5
ENDMDL
MODEL 9
REMARK VINA RESULT:      -7.9     14.728     17.451
REMARK  Name = 445404
REMARK  5 active torsions:
REMARK  status: ('A' for Active; 'I' for Inactive)
REMARK    1  A    between atoms: N_2  and  C1*_17
REMARK    2  A    between atoms: C2*_18  and  O2*_21
REMARK    3  A    between atoms: C3*_19  and  O3*_23
REMARK    4  A    between atoms: C4*_20  and  C5*_25
REMARK    5  A    between atoms: C5*_25  and  O5*_26
REMARK                            x       y       z     vdW  Elec       q    Type
REMARK                         _______ _______ _______ _____ _____    ______ ____
ROOT
ATOM      1  O   UNL     1      34.004 -12.915 -24.721  0.00  0.00    -0.208 OA
ATOM      2  N   UNL     1      33.606  -8.570 -23.318  0.00  0.00    -0.253 N 
ATOM      3  N   UNL     1      34.633  -9.913 -24.688  0.00  0.00    -0.277 N 
ATOM      4  N   UNL     1      32.167 -10.246 -22.203  0.00  0.00    -0.263 N 
ATOM      5  N   UNL     1      32.494 -12.473 -23.051  0.00  0.00    -0.301 NA
ATOM      6  N   UNL     1      30.946 -12.007 -21.337  0.00  0.00    -0.320 N 
ATOM      7  C   UNL     1      33.117  -9.834 -23.095  0.00  0.00    +0.132 C 
ATOM      8  C   UNL     1      34.530  -8.637 -24.291  0.00  0.00    +0.192 C 
ATOM      9  C   UNL     1      33.761 -10.682 -23.959  0.00  0.00    +0.173 C 
ATOM     10  C   UNL     1      33.476 -12.086 -23.983  0.00  0.00    +0.224 C 
ATOM     11  C   UNL     1      35.528 -10.383 -25.724  0.00  0.00    +0.115 C 
ATOM     12  C   UNL     1      31.902 -11.615 -22.240  0.00  0.00    +0.248 C 
ATOM     13  H   UNL     1      31.710  -9.630 -21.587  0.00  0.00    +0.157 HD
ATOM     14  H   UNL     1      30.524 -11.341 -20.747  0.00  0.00    +0.146 HD
ATOM     15  H   UNL     1      30.681 -12.953 -21.279  0.00  0.00    +0.146 HD
ENDROOT
BRANCH   2  17
ATOM     16  O4* UNL     1      33.487  -7.438 -21.215  0.00  0.00    -0.333 OA
ATOM     17  C1* UNL     1      33.203  -7.349 -22.625  0.00  0.00    +0.224 C 
ATOM     18  C2* UNL     1      31.713  -7.079 -22.737  0.00  0.00    +0.187 C 
ATOM     19  C3* UNL     1      31.457  -6.235 -21.505  0.00  0.00    +0.171 C 
ATOM     20  C4* UNL     1      32.377  -6.880 -20.475  0.00  0.00    +0.175 C 
BRANCH  18  21
ATOM     21  O2* UNL     1      31.388  -6.417 -23.942  0.00  0.00    -0.378 OA
ATOM     22  H2* UNL     1      31.170  -7.074 -24.622  0.00  0.00    +0.211 HD
ENDBRANCH  18  21
BRANCH  19  23
ATOM     23  O3* UNL     1      31.899  -4.898 -21.745  0.00  0.00    -0.379 OA
ATOM     24  H3* UNL     1      32.742  -4.916 -22.225  0.00  0.00    +0.211 HD
ENDBRANCH  19  23
BRANCH  20  25
ATOM     25  C5* UNL     1      31.704  -8.003 -19.700  0.00  0.00    +0.169 C 
BRANCH  25  26
ATOM     26  O5* UNL     1      32.655  -9.027 -19.465  0.00  0.00    -0.379 OA
ATOM     27  H5* UNL     1      33.543  -8.639 -19.416  0.00  0.00    +0.211 HD
ENDBRANCH  25  26
ENDBRANCH  20  25
ENDBRANCH   2  17
TORSDOF 5
ENDMDL
