MODEL 1
REMARK VINA RESULT:      -7.4      0.000      0.000
REMARK  Name = 16757
REMARK  6 active torsions:
REMARK  status: ('A' for Active; 'I' for Inactive)
REMARK    1  A    between atoms: C_1  and  C_2
REMARK    2  A    between atoms: C_1  and  C_9
REMARK    3  A    between atoms: C_2  and  C_3
REMARK    4  A    between atoms: C_9  and  C_10
REMARK    5  A    between atoms: C_10  and  C_12
REMARK    6  A    between atoms: C_12  and  O_13
REMARK                            x       y       z     vdW  Elec       q    Type
REMARK                         _______ _______ _______ _____ _____    ______ ____
ROOT
ATOM      1  C   UNL     1      35.613 -18.474 -23.256  0.00  0.00    +0.005 C 
ENDROOT
BRANCH   1   2
ATOM      2  C   UNL     1      35.955 -18.570 -21.765  0.00  0.00    +0.026 C 
BRANCH   2   3
ATOM      3  C   UNL     1      35.099 -19.550 -21.003  0.00  0.00    -0.022 C 
ATOM      4  C   UNL     1      33.720 -19.406 -21.018  0.00  0.00    -0.004 C 
ATOM      5  C   UNL     1      35.705 -20.580 -20.299  0.00  0.00    -0.004 C 
ATOM      6  C   UNL     1      32.928 -20.313 -20.313  0.00  0.00    -0.000 C 
ATOM      7  C   UNL     1      34.913 -21.486 -19.593  0.00  0.00    -0.000 C 
ATOM      8  C   UNL     1      33.525 -21.353 -19.601  0.00  0.00    -0.000 C 
ENDBRANCH   2   3
ENDBRANCH   1   2
BRANCH   1   9
ATOM      9  C   UNL     1      34.981 -17.129 -23.640  0.00  0.00    +0.012 C 
BRANCH   9  10
ATOM     10  C   UNL     1      34.614 -17.062 -25.123  0.00  0.00    +0.109 C 
BRANCH  10  12
ATOM     11  O   UNL     1      33.477 -15.501 -26.610  0.00  0.00    -0.250 OA
ATOM     12  C   UNL     1      33.778 -15.852 -25.477  0.00  0.00    +0.314 C 
BRANCH  12  13
ATOM     13  O   UNL     1      33.407 -15.164 -24.366  0.00  0.00    -0.480 OA
ATOM     14  H   UNL     1      34.033 -14.990 -23.691  0.00  0.00    +0.295 HD
ENDBRANCH  12  13
ENDBRANCH  10  12
ENDBRANCH   9  10
ENDBRANCH   1   9
TORSDOF 6
ENDMDL
MODEL 2
REMARK VINA RESULT:      -7.4      0.086      1.343
REMARK  Name = 16757
REMARK  6 active torsions:
REMARK  status: ('A' for Active; 'I' for Inactive)
REMARK    1  A    between atoms: C_1  and  C_2
REMARK    2  A    between atoms: C_1  and  C_9
REMARK    3  A    between atoms: C_2  and  C_3
REMARK    4  A    between atoms: C_9  and  C_10
REMARK    5  A    between atoms: C_10  and  C_12
REMARK    6  A    between atoms: C_12  and  O_13
REMARK                            x       y       z     vdW  Elec       q    Type
REMARK                         _______ _______ _______ _____ _____    ______ ____
ROOT
ATOM      1  C   UNL     1      35.466 -18.545 -23.292  0.00  0.00    +0.005 C 
ENDROOT
BRANCH   1   2
ATOM      2  C   UNL     1      35.885 -18.646 -21.821  0.00  0.00    +0.026 C 
BRANCH   2   3
ATOM      3  C   UNL     1      35.055 -19.611 -21.013  0.00  0.00    -0.022 C 
ATOM      4  C   UNL     1      35.684 -20.614 -20.290  0.00  0.00    -0.004 C 
ATOM      5  C   UNL     1      33.674 -19.481 -21.006  0.00  0.00    -0.004 C 
ATOM      6  C   UNL     1      34.916 -21.506 -19.543  0.00  0.00    -0.000 C 
ATOM      7  C   UNL     1      32.905 -20.375 -20.259  0.00  0.00    -0.000 C 
ATOM      8  C   UNL     1      33.526 -21.386 -19.527  0.00  0.00    -0.000 C 
ENDBRANCH   2   3
ENDBRANCH   1   2
BRANCH   1   9
ATOM      9  C   UNL     1      34.860 -17.182 -23.649  0.00  0.00    +0.012 C 
BRANCH   9  10
ATOM     10  C   UNL     1      34.608 -17.032 -25.150  0.00  0.00    +0.109 C 
BRANCH  10  12
ATOM     11  O   UNL     1      33.454 -15.475 -26.628  0.00  0.00    -0.250 OA
ATOM     12  C   UNL     1      33.765 -15.826 -25.497  0.00  0.00    +0.314 C 
BRANCH  12  13
ATOM     13  O   UNL     1      33.398 -15.140 -24.383  0.00  0.00    -0.480 OA
ATOM     14  H   UNL     1      33.109 -15.603 -23.622  0.00  0.00    +0.295 HD
ENDBRANCH  12  13
ENDBRANCH  10  12
ENDBRANCH   9  10
ENDBRANCH   1   9
TORSDOF 6
ENDMDL
MODEL 3
REMARK VINA RESULT:      -7.2      4.150      6.613
REMARK  Name = 16757
REMARK  6 active torsions:
REMARK  status: ('A' for Active; 'I' for Inactive)
REMARK    1  A    between atoms: C_1  and  C_2
REMARK    2  A    between atoms: C_1  and  C_9
REMARK    3  A    between atoms: C_2  and  C_3
REMARK    4  A    between atoms: C_9  and  C_10
REMARK    5  A    between atoms: C_10  and  C_12
REMARK    6  A    between atoms: C_12  and  O_13
REMARK                            x       y       z     vdW  Elec       q    Type
REMARK                         _______ _______ _______ _____ _____    ______ ____
ROOT
ATOM      1  C   UNL     1      33.314 -19.580 -20.957  0.00  0.00    +0.005 C 
ENDROOT
BRANCH   1   2
ATOM      2  C   UNL     1      34.720 -19.298 -21.499  0.00  0.00    +0.026 C 
BRANCH   2   3
ATOM      3  C   UNL     1      34.741 -18.411 -22.717  0.00  0.00    -0.022 C 
ATOM      4  C   UNL     1      34.539 -18.969 -23.971  0.00  0.00    -0.004 C 
ATOM      5  C   UNL     1      34.962 -17.050 -22.565  0.00  0.00    -0.004 C 
ATOM      6  C   UNL     1      34.558 -18.148 -25.098  0.00  0.00    -0.000 C 
ATOM      7  C   UNL     1      34.981 -16.229 -23.693  0.00  0.00    -0.000 C 
ATOM      8  C   UNL     1      34.778 -16.778 -24.959  0.00  0.00    -0.000 C 
ENDBRANCH   2   3
ENDBRANCH   1   2
BRANCH   1   9
ATOM      9  C   UNL     1      33.276 -20.751 -19.967  0.00  0.00    +0.012 C 
BRANCH   9  10
ATOM     10  C   UNL     1      34.672 -21.287 -19.647  0.00  0.00    +0.109 C 
BRANCH  10  12
ATOM     11  O   UNL     1      35.290 -22.611 -17.697  0.00  0.00    -0.250 OA
ATOM     12  C   UNL     1      34.654 -22.494 -18.736  0.00  0.00    +0.314 C 
BRANCH  12  13
ATOM     13  O   UNL     1      33.848 -23.473 -19.225  0.00  0.00    -0.480 OA
ATOM     14  H   UNL     1      33.044 -23.678 -18.790  0.00  0.00    +0.295 HD
ENDBRANCH  12  13
ENDBRANCH  10  12
ENDBRANCH   9  10
ENDBRANCH   1   9
TORSDOF 6
ENDMDL
MODEL 4
REMARK VINA RESULT:      -7.1      2.302      2.940
REMARK  Name = 16757
REMARK  6 active torsions:
REMARK  status: ('A' for Active; 'I' for Inactive)
REMARK    1  A    between atoms: C_1  and  C_2
REMARK    2  A    between atoms: C_1  and  C_9
REMARK    3  A    between atoms: C_2  and  C_3
REMARK    4  A    between atoms: C_9  and  C_10
REMARK    5  A    between atoms: C_10  and  C_12
REMARK    6  A    between atoms: C_12  and  O_13
REMARK                            x       y       z     vdW  Elec       q    Type
REMARK                         _______ _______ _______ _____ _____    ______ ____
ROOT
ATOM      1  C   UNL     1      35.146 -17.974 -23.021  0.00  0.00    +0.005 C 
ENDROOT
BRANCH   1   2
ATOM      2  C   UNL     1      35.900 -18.643 -21.866  0.00  0.00    +0.026 C 
BRANCH   2   3
ATOM      3  C   UNL     1      35.054 -19.587 -21.049  0.00  0.00    -0.022 C 
ATOM      4  C   UNL     1      35.667 -20.599 -20.325  0.00  0.00    -0.004 C 
ATOM      5  C   UNL     1      33.676 -19.429 -21.035  0.00  0.00    -0.004 C 
ATOM      6  C   UNL     1      34.885 -21.472 -19.569  0.00  0.00    -0.000 C 
ATOM      7  C   UNL     1      32.894 -20.303 -20.279  0.00  0.00    -0.000 C 
ATOM      8  C   UNL     1      33.498 -21.323 -19.546  0.00  0.00    -0.000 C 
ENDBRANCH   2   3
ENDBRANCH   1   2
BRANCH   1   9
ATOM      9  C   UNL     1      35.234 -16.442 -22.986  0.00  0.00    +0.012 C 
BRANCH   9  10
ATOM     10  C   UNL     1      33.943 -15.796 -22.480  0.00  0.00    +0.109 C 
BRANCH  10  12
ATOM     11  O   UNL     1      34.875 -15.609 -20.236  0.00  0.00    -0.250 OA
ATOM     12  C   UNL     1      33.901 -15.644 -20.976  0.00  0.00    +0.314 C 
BRANCH  12  13
ATOM     13  O   UNL     1      32.623 -15.572 -20.520  0.00  0.00    -0.480 OA
ATOM     14  H   UNL     1      32.245 -14.740 -20.316  0.00  0.00    +0.295 HD
ENDBRANCH  12  13
ENDBRANCH  10  12
ENDBRANCH   9  10
ENDBRANCH   1   9
TORSDOF 6
ENDMDL
MODEL 5
REMARK VINA RESULT:      -7.1      1.667      2.497
REMARK  Name = 16757
REMARK  6 active torsions:
REMARK  status: ('A' for Active; 'I' for Inactive)
REMARK    1  A    between atoms: C_1  and  C_2
REMARK    2  A    between atoms: C_1  and  C_9
REMARK    3  A    between atoms: C_2  and  C_3
REMARK    4  A    between atoms: C_9  and  C_10
REMARK    5  A    between atoms: C_10  and  C_12
REMARK    6  A    between atoms: C_12  and  O_13
REMARK                            x       y       z     vdW  Elec       q    Type
REMARK                         _______ _______ _______ _____ _____    ______ ____
ROOT
ATOM      1  C   UNL     1      33.918 -17.740 -21.183  0.00  0.00    +0.005 C 
ENDROOT
BRANCH   1   2
ATOM      2  C   UNL     1      34.546 -19.043 -21.692  0.00  0.00    +0.026 C 
BRANCH   2   3
ATOM      3  C   UNL     1      34.559 -20.154 -20.673  0.00  0.00    -0.022 C 
ATOM      4  C   UNL     1      35.773 -20.658 -20.229  0.00  0.00    -0.004 C 
ATOM      5  C   UNL     1      33.358 -20.655 -20.196  0.00  0.00    -0.004 C 
ATOM      6  C   UNL     1      35.786 -21.685 -19.287  0.00  0.00    -0.000 C 
ATOM      7  C   UNL     1      33.370 -21.684 -19.253  0.00  0.00    -0.000 C 
ATOM      8  C   UNL     1      34.584 -22.198 -18.799  0.00  0.00    -0.000 C 
ENDBRANCH   2   3
ENDBRANCH   1   2
BRANCH   1   9
ATOM      9  C   UNL     1      34.924 -16.586 -21.091  0.00  0.00    +0.012 C 
BRANCH   9  10
ATOM     10  C   UNL     1      34.389 -15.296 -21.714  0.00  0.00    +0.109 C 
BRANCH  10  12
ATOM     11  O   UNL     1      34.001 -14.511 -23.989  0.00  0.00    -0.250 OA
ATOM     12  C   UNL     1      34.631 -15.208 -23.205  0.00  0.00    +0.314 C 
BRANCH  12  13
ATOM     13  O   UNL     1      35.639 -16.032 -23.593  0.00  0.00    -0.480 OA
ATOM     14  H   UNL     1      35.726 -16.272 -24.495  0.00  0.00    +0.295 HD
ENDBRANCH  12  13
ENDBRANCH  10  12
ENDBRANCH   9  10
ENDBRANCH   1   9
TORSDOF 6
ENDMDL
MODEL 6
REMARK VINA RESULT:      -7.1      4.111      6.455
REMARK  Name = 16757
REMARK  6 active torsions:
REMARK  status: ('A' for Active; 'I' for Inactive)
REMARK    1  A    between atoms: C_1  and  C_2
REMARK    2  A    between atoms: C_1  and  C_9
REMARK    3  A    between atoms: C_2  and  C_3
REMARK    4  A    between atoms: C_9  and  C_10
REMARK    5  A    between atoms: C_10  and  C_12
REMARK    6  A    between atoms: C_12  and  O_13
REMARK                            x       y       z     vdW  Elec       q    Type
REMARK                         _______ _______ _______ _____ _____    ______ ____
ROOT
ATOM      1  C   UNL     1      34.272 -19.483 -21.682  0.00  0.00    +0.005 C 
ENDROOT
BRANCH   1   2
ATOM      2  C   UNL     1      35.228 -18.419 -21.131  0.00  0.00    +0.026 C 
BRANCH   2   3
ATOM      3  C   UNL     1      34.930 -17.021 -21.610  0.00  0.00    -0.022 C 
ATOM      4  C   UNL     1      34.920 -16.754 -22.972  0.00  0.00    -0.004 C 
ATOM      5  C   UNL     1      34.670 -16.023 -20.683  0.00  0.00    -0.004 C 
ATOM      6  C   UNL     1      34.645 -15.461 -23.415  0.00  0.00    -0.000 C 
ATOM      7  C   UNL     1      34.395 -14.729 -21.127  0.00  0.00    -0.000 C 
ATOM      8  C   UNL     1      34.382 -14.449 -22.492  0.00  0.00    -0.000 C 
ENDBRANCH   2   3
ENDBRANCH   1   2
BRANCH   1   9
ATOM      9  C   UNL     1      33.460 -20.185 -20.586  0.00  0.00    +0.012 C 
BRANCH   9  10
ATOM     10  C   UNL     1      34.314 -21.143 -19.754  0.00  0.00    +0.109 C 
BRANCH  10  12
ATOM     11  O   UNL     1      32.511 -22.191 -18.494  0.00  0.00    -0.250 OA
ATOM     12  C   UNL     1      33.525 -22.294 -19.171  0.00  0.00    +0.314 C 
BRANCH  12  13
ATOM     13  O   UNL     1      34.096 -23.490 -19.471  0.00  0.00    -0.480 OA
ATOM     14  H   UNL     1      34.315 -23.694 -20.358  0.00  0.00    +0.295 HD
ENDBRANCH  12  13
ENDBRANCH  10  12
ENDBRANCH   9  10
ENDBRANCH   1   9
TORSDOF 6
ENDMDL
MODEL 7
REMARK VINA RESULT:      -7.1      5.980      8.134
REMARK  Name = 16757
REMARK  6 active torsions:
REMARK  status: ('A' for Active; 'I' for Inactive)
REMARK    1  A    between atoms: C_1  and  C_2
REMARK    2  A    between atoms: C_1  and  C_9
REMARK    3  A    between atoms: C_2  and  C_3
REMARK    4  A    between atoms: C_9  and  C_10
REMARK    5  A    between atoms: C_10  and  C_12
REMARK    6  A    between atoms: C_12  and  O_13
REMARK                            x       y       z     vdW  Elec       q    Type
REMARK                         _______ _______ _______ _____ _____    ______ ____
ROOT
ATOM      1  C   UNL     1      36.755 -21.791 -18.293  0.00  0.00    +0.005 C 
ENDROOT
BRANCH   1   2
ATOM      2  C   UNL     1      35.297 -22.070 -18.675  0.00  0.00    +0.026 C 
BRANCH   2   3
ATOM      3  C   UNL     1      34.732 -21.100 -19.682  0.00  0.00    -0.022 C 
ATOM      4  C   UNL     1      33.357 -20.968 -19.806  0.00  0.00    -0.004 C 
ATOM      5  C   UNL     1      35.598 -20.355 -20.469  0.00  0.00    -0.004 C 
ATOM      6  C   UNL     1      32.835 -20.071 -20.737  0.00  0.00    -0.000 C 
ATOM      7  C   UNL     1      35.075 -19.457 -21.401  0.00  0.00    -0.000 C 
ATOM      8  C   UNL     1      33.695 -19.315 -21.535  0.00  0.00    -0.000 C 
ENDBRANCH   2   3
ENDBRANCH   1   2
BRANCH   1   9
ATOM      9  C   UNL     1      36.947 -21.570 -16.787  0.00  0.00    +0.012 C 
BRANCH   9  10
ATOM     10  C   UNL     1      36.149 -22.569 -15.946  0.00  0.00    +0.109 C 
BRANCH  10  12
ATOM     11  O   UNL     1      37.667 -23.150 -14.130  0.00  0.00    -0.250 OA
ATOM     12  C   UNL     1      37.023 -23.482 -15.116  0.00  0.00    +0.314 C 
BRANCH  12  13
ATOM     13  O   UNL     1      37.034 -24.746 -15.615  0.00  0.00    -0.480 OA
ATOM     14  H   UNL     1      36.793 -25.467 -15.067  0.00  0.00    +0.295 HD
ENDBRANCH  12  13
ENDBRANCH  10  12
ENDBRANCH   9  10
ENDBRANCH   1   9
TORSDOF 6
ENDMDL
MODEL 8
REMARK VINA RESULT:      -7.0      5.972      8.409
REMARK  Name = 16757
REMARK  6 active torsions:
REMARK  status: ('A' for Active; 'I' for Inactive)
REMARK    1  A    between atoms: C_1  and  C_2
REMARK    2  A    between atoms: C_1  and  C_9
REMARK    3  A    between atoms: C_2  and  C_3
REMARK    4  A    between atoms: C_9  and  C_10
REMARK    5  A    between atoms: C_10  and  C_12
REMARK    6  A    between atoms: C_12  and  O_13
REMARK                            x       y       z     vdW  Elec       q    Type
REMARK                         _______ _______ _______ _____ _____    ______ ____
ROOT
ATOM      1  C   UNL     1      36.310 -21.818 -17.966  0.00  0.00    +0.005 C 
ENDROOT
BRANCH   1   2
ATOM      2  C   UNL     1      35.182 -22.222 -18.922  0.00  0.00    +0.026 C 
BRANCH   2   3
ATOM      3  C   UNL     1      34.674 -21.092 -19.781  0.00  0.00    -0.022 C 
ATOM      4  C   UNL     1      35.579 -20.299 -20.471  0.00  0.00    -0.004 C 
ATOM      5  C   UNL     1      33.309 -20.863 -19.867  0.00  0.00    -0.004 C 
ATOM      6  C   UNL     1      35.109 -19.254 -21.265  0.00  0.00    -0.000 C 
ATOM      7  C   UNL     1      32.839 -19.817 -20.662  0.00  0.00    -0.000 C 
ATOM      8  C   UNL     1      33.738 -19.013 -21.361  0.00  0.00    -0.000 C 
ENDBRANCH   2   3
ENDBRANCH   1   2
BRANCH   1   9
ATOM      9  C   UNL     1      36.166 -22.442 -16.572  0.00  0.00    +0.012 C 
BRANCH   9  10
ATOM     10  C   UNL     1      37.505 -22.543 -15.838  0.00  0.00    +0.109 C 
BRANCH  10  12
ATOM     11  O   UNL     1      38.738 -24.229 -14.584  0.00  0.00    -0.250 OA
ATOM     12  C   UNL     1      37.762 -23.912 -15.250  0.00  0.00    +0.314 C 
BRANCH  12  13
ATOM     13  O   UNL     1      36.770 -24.784 -15.571  0.00  0.00    -0.480 OA
ATOM     14  H   UNL     1      36.155 -24.566 -16.244  0.00  0.00    +0.295 HD
ENDBRANCH  12  13
ENDBRANCH  10  12
ENDBRANCH   9  10
ENDBRANCH   1   9
TORSDOF 6
ENDMDL
MODEL 9
REMARK VINA RESULT:      -6.9      1.558      1.745
REMARK  Name = 16757
REMARK  6 active torsions:
REMARK  status: ('A' for Active; 'I' for Inactive)
REMARK    1  A    between atoms: C_1  and  C_2
REMARK    2  A    between atoms: C_1  and  C_9
REMARK    3  A    between atoms: C_2  and  C_3
REMARK    4  A    between atoms: C_9  and  C_10
REMARK    5  A    between atoms: C_10  and  C_12
REMARK    6  A    between atoms: C_12  and  O_13
REMARK                            x       y       z     vdW  Elec       q    Type
REMARK                         _______ _______ _______ _____ _____    ______ ____
ROOT
ATOM      1  C   UNL     1      35.101 -17.864 -22.809  0.00  0.00    +0.005 C 
ENDROOT
BRANCH   1   2
ATOM      2  C   UNL     1      35.900 -18.683 -21.790  0.00  0.00    +0.026 C 
BRANCH   2   3
ATOM      3  C   UNL     1      35.063 -19.647 -20.989  0.00  0.00    -0.022 C 
ATOM      4  C   UNL     1      33.681 -19.523 -20.999  0.00  0.00    -0.004 C 
ATOM      5  C   UNL     1      35.687 -20.644 -20.253  0.00  0.00    -0.004 C 
ATOM      6  C   UNL     1      32.907 -20.414 -20.258  0.00  0.00    -0.000 C 
ATOM      7  C   UNL     1      34.912 -21.536 -19.511  0.00  0.00    -0.000 C 
ATOM      8  C   UNL     1      33.522 -21.421 -19.514  0.00  0.00    -0.000 C 
ENDBRANCH   2   3
ENDBRANCH   1   2
BRANCH   1   9
ATOM      9  C   UNL     1      34.982 -16.383 -22.426  0.00  0.00    +0.012 C 
BRANCH   9  10
ATOM     10  C   UNL     1      34.485 -15.519 -23.587  0.00  0.00    +0.109 C 
BRANCH  10  12
ATOM     11  O   UNL     1      32.604 -14.367 -22.552  0.00  0.00    -0.250 OA
ATOM     12  C   UNL     1      33.678 -14.323 -23.138  0.00  0.00    +0.314 C 
BRANCH  12  13
ATOM     13  O   UNL     1      34.282 -13.157 -23.487  0.00  0.00    -0.480 OA
ATOM     14  H   UNL     1      35.216 -13.108 -23.528  0.00  0.00    +0.295 HD
ENDBRANCH  12  13
ENDBRANCH  10  12
ENDBRANCH   9  10
ENDBRANCH   1   9
TORSDOF 6
ENDMDL
