MODEL 1
REMARK VINA RESULT:      -7.9      0.000      0.000
REMARK  Name = 29029
REMARK  10 active torsions:
REMARK  status: ('A' for Active; 'I' for Inactive)
REMARK    1  A    between atoms: C_1  and  C_3
REMARK    2  A    between atoms: C_1  and  N_17
REMARK    3  A    between atoms: C_1  and  C_31
REMARK    4  A    between atoms: C_4  and  O_10
REMARK    5  A    between atoms: C_5  and  O_12
REMARK    6  A    between atoms: C_6  and  O_14
REMARK    7  A    between atoms: C_7  and  S_8
REMARK    8  A    between atoms: C_18  and  C_22
REMARK    9  A    between atoms: C_21  and  C_27
REMARK   10  A    between atoms: C_27  and  C_28
REMARK                            x       y       z     vdW  Elec       q    Type
REMARK                         _______ _______ _______ _____ _____    ______ ____
ROOT
ATOM      1  C   UNL     1      35.309 -23.773 -16.042  0.00  0.00    +0.116 C 
ENDROOT
BRANCH   1   3
ATOM      2  O   UNL     1      35.561 -24.457 -13.774  0.00  0.00    -0.341 OA
ATOM      3  C   UNL     1      36.301 -24.257 -14.988  0.00  0.00    +0.164 C 
ATOM      4  C   UNL     1      37.020 -25.542 -15.413  0.00  0.00    +0.168 C 
ATOM      5  C   UNL     1      37.913 -26.050 -14.279  0.00  0.00    +0.170 C 
ATOM      6  C   UNL     1      37.099 -26.192 -12.992  0.00  0.00    +0.177 C 
ATOM      7  C   UNL     1      36.341 -24.901 -12.655  0.00  0.00    +0.192 C 
BRANCH   7   8
ATOM      8  S   UNL     1      37.395 -23.570 -11.961  0.00  0.00    -0.109 S 
ATOM      9  C   UNL     1      36.412 -23.224 -10.487  0.00  0.00    +0.072 C 
ENDBRANCH   7   8
BRANCH   4  10
ATOM     10  O   UNL     1      36.044 -26.534 -15.736  0.00  0.00    -0.379 OA
ATOM     11  H   UNL     1      36.278 -27.371 -15.306  0.00  0.00    +0.211 HD
ENDBRANCH   4  10
BRANCH   5  12
ATOM     12  O   UNL     1      38.465 -27.317 -14.626  0.00  0.00    -0.379 OA
ATOM     13  H   UNL     1      39.427 -27.238 -14.714  0.00  0.00    +0.211 HD
ENDBRANCH   5  12
BRANCH   6  14
ATOM     14  O   UNL     1      37.932 -26.585 -11.906  0.00  0.00    -0.379 OA
ATOM     15  H   UNL     1      38.294 -25.795 -11.474  0.00  0.00    +0.211 HD
ENDBRANCH   6  14
ENDBRANCH   1   3
BRANCH   1  17
ATOM     16  O   UNL     1      32.851 -23.162 -17.460  0.00  0.00    -0.277 OA
ATOM     17  N   UNL     1      33.954 -23.943 -15.565  0.00  0.00    -0.304 N 
ATOM     18  C   UNL     1      32.840 -23.621 -16.319  0.00  0.00    +0.203 C 
ATOM     19  H   UNL     1      33.818 -24.304 -14.659  0.00  0.00    +0.149 HD
BRANCH  18  22
ATOM     20  N   UNL     1      31.219 -22.716 -14.828  0.00  0.00    +0.392 N 
ATOM     21  C   UNL     1      29.477 -22.944 -16.335  0.00  0.00    -0.022 C 
ATOM     22  C   UNL     1      31.564 -23.916 -15.599  0.00  0.00    +0.020 C 
ATOM     23  C   UNL     1      30.408 -24.131 -16.577  0.00  0.00    -0.014 C 
ATOM     24  C   UNL     1      29.761 -22.590 -14.882  0.00  0.00    -0.077 C 
ATOM     25  C   UNL     1      31.718 -22.751 -13.460  0.00  0.00    -0.100 C 
ATOM     26  H   UNL     1      31.670 -21.898 -15.235  0.00  0.00    -0.079 HD
BRANCH  21  27
ATOM     27  C   UNL     1      28.014 -23.255 -16.605  0.00  0.00    -0.002 C 
BRANCH  27  28
ATOM     28  C   UNL     1      27.112 -22.080 -16.230  0.00  0.00    -0.000 C 
ATOM     29  C   UNL     1      26.338 -21.566 -17.432  0.00  0.00    -0.000 C 
ENDBRANCH  27  28
ENDBRANCH  21  27
ENDBRANCH  18  22
ENDBRANCH   1  17
BRANCH   1  31
ATOM     30 CL   UNL     1      35.482 -22.162 -18.287  0.00  0.00    -0.113 Cl
ATOM     31  C   UNL     1      35.586 -22.329 -16.506  0.00  0.00    +0.100 C 
ATOM     32  C   UNL     1      36.945 -21.813 -16.039  0.00  0.00    +0.019 C 
ENDBRANCH   1  31
TORSDOF 10
ENDMDL
MODEL 2
REMARK VINA RESULT:      -7.7      4.111      6.844
REMARK  Name = 29029
REMARK  10 active torsions:
REMARK  status: ('A' for Active; 'I' for Inactive)
REMARK    1  A    between atoms: C_1  and  C_3
REMARK    2  A    between atoms: C_1  and  N_17
REMARK    3  A    between atoms: C_1  and  C_31
REMARK    4  A    between atoms: C_4  and  O_10
REMARK    5  A    between atoms: C_5  and  O_12
REMARK    6  A    between atoms: C_6  and  O_14
REMARK    7  A    between atoms: C_7  and  S_8
REMARK    8  A    between atoms: C_18  and  C_22
REMARK    9  A    between atoms: C_21  and  C_27
REMARK   10  A    between atoms: C_27  and  C_28
REMARK                            x       y       z     vdW  Elec       q    Type
REMARK                         _______ _______ _______ _____ _____    ______ ____
ROOT
ATOM      1  C   UNL     1      33.678 -23.959 -15.950  0.00  0.00    +0.116 C 
ENDROOT
BRANCH   1   3
ATOM      2  O   UNL     1      31.378 -24.428 -16.357  0.00  0.00    -0.341 OA
ATOM      3  C   UNL     1      32.256 -23.781 -15.423  0.00  0.00    +0.164 C 
ATOM      4  C   UNL     1      32.082 -24.358 -14.014  0.00  0.00    +0.168 C 
ATOM      5  C   UNL     1      30.618 -24.264 -13.579  0.00  0.00    +0.170 C 
ATOM      6  C   UNL     1      29.714 -24.911 -14.629  0.00  0.00    +0.177 C 
ATOM      7  C   UNL     1      29.983 -24.349 -16.032  0.00  0.00    +0.192 C 
BRANCH   7   8
ATOM      8  S   UNL     1      29.288 -22.676 -16.319  0.00  0.00    -0.109 S 
ATOM      9  C   UNL     1      27.884 -23.167 -17.341  0.00  0.00    +0.072 C 
ENDBRANCH   7   8
BRANCH   4  10
ATOM     10  O   UNL     1      32.493 -25.727 -14.019  0.00  0.00    -0.379 OA
ATOM     11  H   UNL     1      33.344 -25.811 -13.562  0.00  0.00    +0.211 HD
ENDBRANCH   4  10
BRANCH   5  12
ATOM     12  O   UNL     1      30.438 -24.930 -12.332  0.00  0.00    -0.379 OA
ATOM     13  H   UNL     1      30.689 -24.335 -11.609  0.00  0.00    +0.211 HD
ENDBRANCH   5  12
BRANCH   6  14
ATOM     14  O   UNL     1      28.342 -24.758 -14.281  0.00  0.00    -0.379 OA
ATOM     15  H   UNL     1      27.918 -24.140 -14.897  0.00  0.00    +0.211 HD
ENDBRANCH   6  14
ENDBRANCH   1   3
BRANCH   1  17
ATOM     16  O   UNL     1      33.693 -23.615 -18.832  0.00  0.00    -0.277 OA
ATOM     17  N   UNL     1      34.083 -22.786 -16.692  0.00  0.00    -0.304 N 
ATOM     18  C   UNL     1      34.055 -22.718 -18.074  0.00  0.00    +0.203 C 
ATOM     19  H   UNL     1      34.395 -21.999 -16.190  0.00  0.00    +0.149 HD
BRANCH  18  22
ATOM     20  N   UNL     1      35.743 -21.608 -19.335  0.00  0.00    +0.392 N 
ATOM     21  C   UNL     1      34.255 -20.811 -20.919  0.00  0.00    -0.022 C 
ATOM     22  C   UNL     1      34.502 -21.386 -18.584  0.00  0.00    +0.020 C 
ATOM     23  C   UNL     1      33.503 -20.809 -19.589  0.00  0.00    -0.014 C 
ATOM     24  C   UNL     1      35.708 -20.695 -20.479  0.00  0.00    -0.077 C 
ATOM     25  C   UNL     1      36.941 -21.431 -18.526  0.00  0.00    -0.100 C 
ATOM     26  H   UNL     1      35.794 -22.578 -19.645  0.00  0.00    -0.079 HD
BRANCH  21  27
ATOM     27  C   UNL     1      33.820 -19.703 -21.863  0.00  0.00    -0.002 C 
BRANCH  27  28
ATOM     28  C   UNL     1      35.017 -19.061 -22.564  0.00  0.00    -0.000 C 
ATOM     29  C   UNL     1      34.853 -19.078 -24.075  0.00  0.00    -0.000 C 
ENDBRANCH  27  28
ENDBRANCH  21  27
ENDBRANCH  18  22
ENDBRANCH   1  17
BRANCH   1  31
ATOM     30 CL   UNL     1      35.661 -22.908 -14.328  0.00  0.00    -0.113 Cl
ATOM     31  C   UNL     1      34.685 -24.322 -14.839  0.00  0.00    +0.100 C 
ATOM     32  C   UNL     1      35.627 -25.452 -15.247  0.00  0.00    +0.019 C 
ENDBRANCH   1  31
TORSDOF 10
ENDMDL
MODEL 3
REMARK VINA RESULT:      -7.4     15.003     16.952
REMARK  Name = 29029
REMARK  10 active torsions:
REMARK  status: ('A' for Active; 'I' for Inactive)
REMARK    1  A    between atoms: C_1  and  C_3
REMARK    2  A    between atoms: C_1  and  N_17
REMARK    3  A    between atoms: C_1  and  C_31
REMARK    4  A    between atoms: C_4  and  O_10
REMARK    5  A    between atoms: C_5  and  O_12
REMARK    6  A    between atoms: C_6  and  O_14
REMARK    7  A    between atoms: C_7  and  S_8
REMARK    8  A    between atoms: C_18  and  C_22
REMARK    9  A    between atoms: C_21  and  C_27
REMARK   10  A    between atoms: C_27  and  C_28
REMARK                            x       y       z     vdW  Elec       q    Type
REMARK                         _______ _______ _______ _____ _____    ______ ____
ROOT
ATOM      1  C   UNL     1      33.441 -10.354 -24.289  0.00  0.00    +0.116 C 
ENDROOT
BRANCH   1   3
ATOM      2  O   UNL     1      31.973 -11.721 -23.004  0.00  0.00    -0.341 OA
ATOM      3  C   UNL     1      33.365 -11.479 -23.260  0.00  0.00    +0.164 C 
ATOM      4  C   UNL     1      34.066 -12.754 -23.740  0.00  0.00    +0.168 C 
ATOM      5  C   UNL     1      33.861 -13.885 -22.730  0.00  0.00    +0.170 C 
ATOM      6  C   UNL     1      32.371 -14.069 -22.441  0.00  0.00    +0.177 C 
ATOM      7  C   UNL     1      31.705 -12.747 -22.038  0.00  0.00    +0.192 C 
BRANCH   7   8
ATOM      8  S   UNL     1      32.073 -12.212 -20.323  0.00  0.00    -0.109 S 
ATOM      9  C   UNL     1      30.840 -10.899 -20.206  0.00  0.00    +0.072 C 
ENDBRANCH   7   8
BRANCH   4  10
ATOM     10  O   UNL     1      33.520 -13.136 -25.005  0.00  0.00    -0.379 OA
ATOM     11  H   UNL     1      33.961 -13.941 -25.319  0.00  0.00    +0.211 HD
ENDBRANCH   4  10
BRANCH   5  12
ATOM     12  O   UNL     1      34.391 -15.102 -23.250  0.00  0.00    -0.379 OA
ATOM     13  H   UNL     1      34.886 -14.918 -24.063  0.00  0.00    +0.211 HD
ENDBRANCH   5  12
BRANCH   6  14
ATOM     14  O   UNL     1      32.167 -15.062 -21.441  0.00  0.00    -0.379 OA
ATOM     15  H   UNL     1      32.495 -14.733 -20.589  0.00  0.00    +0.211 HD
ENDBRANCH   6  14
ENDBRANCH   1   3
BRANCH   1  17
ATOM     16  O   UNL     1      33.269  -8.946 -21.757  0.00  0.00    -0.277 OA
ATOM     17  N   UNL     1      32.525  -9.293 -23.935  0.00  0.00    -0.304 N 
ATOM     18  C   UNL     1      32.520  -8.680 -22.694  0.00  0.00    +0.203 C 
ATOM     19  H   UNL     1      31.873  -8.993 -24.608  0.00  0.00    +0.149 HD
BRANCH  18  22
ATOM     20  N   UNL     1      32.103  -6.486 -21.868  0.00  0.00    +0.392 N 
ATOM     21  C   UNL     1      31.658  -5.613 -23.965  0.00  0.00    -0.022 C 
ATOM     22  C   UNL     1      31.490  -7.601 -22.600  0.00  0.00    +0.020 C 
ATOM     23  C   UNL     1      31.134  -7.048 -23.982  0.00  0.00    -0.014 C 
ATOM     24  C   UNL     1      31.603  -5.256 -22.486  0.00  0.00    -0.077 C 
ATOM     25  C   UNL     1      31.841  -6.528 -20.436  0.00  0.00    -0.100 C 
ATOM     26  H   UNL     1      33.119  -6.541 -21.936  0.00  0.00    -0.079 HD
BRANCH  21  27
ATOM     27  C   UNL     1      30.858  -4.666 -24.844  0.00  0.00    -0.002 C 
BRANCH  27  28
ATOM     28  C   UNL     1      31.754  -3.940 -25.847  0.00  0.00    -0.000 C 
ATOM     29  C   UNL     1      32.950  -4.790 -26.242  0.00  0.00    -0.000 C 
ENDBRANCH  27  28
ENDBRANCH  21  27
ENDBRANCH  18  22
ENDBRANCH   1  17
BRANCH   1  31
ATOM     30 CL   UNL     1      34.962  -8.046 -24.445  0.00  0.00    -0.113 Cl
ATOM     31  C   UNL     1      34.878  -9.835 -24.502  0.00  0.00    +0.100 C 
ATOM     32  C   UNL     1      35.488 -10.318 -25.815  0.00  0.00    +0.019 C 
ENDBRANCH   1  31
TORSDOF 10
ENDMDL
MODEL 4
REMARK VINA RESULT:      -7.2      9.011     12.186
REMARK  Name = 29029
REMARK  10 active torsions:
REMARK  status: ('A' for Active; 'I' for Inactive)
REMARK    1  A    between atoms: C_1  and  C_3
REMARK    2  A    between atoms: C_1  and  N_17
REMARK    3  A    between atoms: C_1  and  C_31
REMARK    4  A    between atoms: C_4  and  O_10
REMARK    5  A    between atoms: C_5  and  O_12
REMARK    6  A    between atoms: C_6  and  O_14
REMARK    7  A    between atoms: C_7  and  S_8
REMARK    8  A    between atoms: C_18  and  C_22
REMARK    9  A    between atoms: C_21  and  C_27
REMARK   10  A    between atoms: C_27  and  C_28
REMARK                            x       y       z     vdW  Elec       q    Type
REMARK                         _______ _______ _______ _____ _____    ______ ____
ROOT
ATOM      1  C   UNL     1      34.879 -16.354 -23.268  0.00  0.00    +0.116 C 
ENDROOT
BRANCH   1   3
ATOM      2  O   UNL     1      33.329 -14.677 -23.947  0.00  0.00    -0.341 OA
ATOM      3  C   UNL     1      34.311 -14.976 -22.942  0.00  0.00    +0.164 C 
ATOM      4  C   UNL     1      33.697 -14.916 -21.539  0.00  0.00    +0.168 C 
ATOM      5  C   UNL     1      33.038 -13.556 -21.305  0.00  0.00    +0.170 C 
ATOM      6  C   UNL     1      32.045 -13.251 -22.428  0.00  0.00    +0.177 C 
ATOM      7  C   UNL     1      32.693 -13.399 -23.812  0.00  0.00    +0.192 C 
BRANCH   7   8
ATOM      8  S   UNL     1      33.799 -12.010 -24.276  0.00  0.00    -0.109 S 
ATOM      9  C   UNL     1      33.713 -12.219 -26.067  0.00  0.00    +0.072 C 
ENDBRANCH   7   8
BRANCH   4  10
ATOM     10  O   UNL     1      32.718 -15.951 -21.417  0.00  0.00    -0.379 OA
ATOM     11  H   UNL     1      32.036 -15.833 -22.096  0.00  0.00    +0.211 HD
ENDBRANCH   4  10
BRANCH   5  12
ATOM     12  O   UNL     1      32.347 -13.559 -20.058  0.00  0.00    -0.379 OA
ATOM     13  H   UNL     1      32.576 -14.362 -19.564  0.00  0.00    +0.211 HD
ENDBRANCH   5  12
BRANCH   6  14
ATOM     14  O   UNL     1      31.484 -11.952 -22.270  0.00  0.00    -0.379 OA
ATOM     15  H   UNL     1      31.506 -11.702 -21.333  0.00  0.00    +0.211 HD
ENDBRANCH   6  14
ENDBRANCH   1   3
BRANCH   1  17
ATOM     16  O   UNL     1      36.734 -18.435 -22.459  0.00  0.00    -0.277 OA
ATOM     17  N   UNL     1      34.781 -17.218 -22.112  0.00  0.00    -0.304 N 
ATOM     18  C   UNL     1      35.722 -18.187 -21.809  0.00  0.00    +0.203 C 
ATOM     19  H   UNL     1      34.007 -17.113 -21.513  0.00  0.00    +0.149 HD
BRANCH  18  22
ATOM     20  N   UNL     1      34.463 -19.997 -20.910  0.00  0.00    +0.392 N 
ATOM     21  C   UNL     1      36.332 -21.105 -20.111  0.00  0.00    -0.022 C 
ATOM     22  C   UNL     1      35.393 -18.921 -20.549  0.00  0.00    +0.020 C 
ATOM     23  C   UNL     1      36.627 -19.612 -19.968  0.00  0.00    -0.014 C 
ATOM     24  C   UNL     1      34.811 -21.148 -20.073  0.00  0.00    -0.077 C 
ATOM     25  C   UNL     1      33.064 -19.617 -20.769  0.00  0.00    -0.100 C 
ATOM     26  H   UNL     1      34.560 -20.225 -21.900  0.00  0.00    -0.079 HD
BRANCH  21  27
ATOM     27  C   UNL     1      36.986 -21.958 -19.038  0.00  0.00    -0.002 C 
BRANCH  27  28
ATOM     28  C   UNL     1      36.237 -21.861 -17.710  0.00  0.00    -0.000 C 
ATOM     29  C   UNL     1      37.194 -21.706 -16.539  0.00  0.00    -0.000 C 
ENDBRANCH  27  28
ENDBRANCH  21  27
ENDBRANCH  18  22
ENDBRANCH   1  17
BRANCH   1  31
ATOM     30 CL   UNL     1      34.203 -18.774 -24.433  0.00  0.00    -0.113 Cl
ATOM     31  C   UNL     1      34.237 -16.984 -24.521  0.00  0.00    +0.100 C 
ATOM     32  C   UNL     1      34.937 -16.565 -25.812  0.00  0.00    +0.019 C 
ENDBRANCH   1  31
TORSDOF 10
ENDMDL
MODEL 5
REMARK VINA RESULT:      -7.2     10.805     13.549
REMARK  Name = 29029
REMARK  10 active torsions:
REMARK  status: ('A' for Active; 'I' for Inactive)
REMARK    1  A    between atoms: C_1  and  C_3
REMARK    2  A    between atoms: C_1  and  N_17
REMARK    3  A    between atoms: C_1  and  C_31
REMARK    4  A    between atoms: C_4  and  O_10
REMARK    5  A    between atoms: C_5  and  O_12
REMARK    6  A    between atoms: C_6  and  O_14
REMARK    7  A    between atoms: C_7  and  S_8
REMARK    8  A    between atoms: C_18  and  C_22
REMARK    9  A    between atoms: C_21  and  C_27
REMARK   10  A    between atoms: C_27  and  C_28
REMARK                            x       y       z     vdW  Elec       q    Type
REMARK                         _______ _______ _______ _____ _____    ______ ____
ROOT
ATOM      1  C   UNL     1      33.707 -13.743 -24.154  0.00  0.00    +0.116 C 
ENDROOT
BRANCH   1   3
ATOM      2  O   UNL     1      32.078 -12.149 -23.462  0.00  0.00    -0.341 OA
ATOM      3  C   UNL     1      33.262 -12.828 -23.017  0.00  0.00    +0.164 C 
ATOM      4  C   UNL     1      33.000 -13.599 -21.719  0.00  0.00    +0.168 C 
ATOM      5  C   UNL     1      32.444 -12.660 -20.646  0.00  0.00    +0.170 C 
ATOM      6  C   UNL     1      31.221 -11.914 -21.182  0.00  0.00    +0.177 C 
ATOM      7  C   UNL     1      31.520 -11.223 -22.519  0.00  0.00    +0.192 C 
BRANCH   7   8
ATOM      8  S   UNL     1      32.513  -9.689 -22.367  0.00  0.00    -0.109 S 
ATOM      9  C   UNL     1      31.408  -8.591 -23.277  0.00  0.00    +0.072 C 
ENDBRANCH   7   8
BRANCH   4  10
ATOM     10  O   UNL     1      32.055 -14.640 -21.981  0.00  0.00    -0.379 OA
ATOM     11  H   UNL     1      31.978 -15.211 -21.201  0.00  0.00    +0.211 HD
ENDBRANCH   4  10
BRANCH   5  12
ATOM     12  O   UNL     1      32.068 -13.408 -19.493  0.00  0.00    -0.379 OA
ATOM     13  H   UNL     1      31.125 -13.632 -19.546  0.00  0.00    +0.211 HD
ENDBRANCH   5  12
BRANCH   6  14
ATOM     14  O   UNL     1      30.741 -10.975 -20.225  0.00  0.00    -0.379 OA
ATOM     15  H   UNL     1      31.459 -10.736 -19.618  0.00  0.00    +0.211 HD
ENDBRANCH   6  14
ENDBRANCH   1   3
BRANCH   1  17
ATOM     16  O   UNL     1      35.724 -15.736 -23.532  0.00  0.00    -0.277 OA
ATOM     17  N   UNL     1      33.492 -15.127 -23.792  0.00  0.00    -0.304 N 
ATOM     18  C   UNL     1      34.525 -16.004 -23.512  0.00  0.00    +0.203 C 
ATOM     19  H   UNL     1      32.568 -15.460 -23.744  0.00  0.00    +0.149 HD
BRANCH  18  22
ATOM     20  N   UNL     1      34.776 -18.331 -23.954  0.00  0.00    +0.392 N 
ATOM     21  C   UNL     1      35.364 -18.841 -21.774  0.00  0.00    -0.022 C 
ATOM     22  C   UNL     1      34.026 -17.364 -23.143  0.00  0.00    +0.020 C 
ATOM     23  C   UNL     1      34.350 -17.701 -21.686  0.00  0.00    -0.014 C 
ATOM     24  C   UNL     1      35.011 -19.498 -23.101  0.00  0.00    -0.077 C 
ATOM     25  C   UNL     1      34.100 -18.684 -25.195  0.00  0.00    -0.100 C 
ATOM     26  H   UNL     1      35.657 -17.920 -24.260  0.00  0.00    -0.079 HD
BRANCH  21  27
ATOM     27  C   UNL     1      35.306 -19.796 -20.594  0.00  0.00    -0.002 C 
BRANCH  27  28
ATOM     28  C   UNL     1      33.894 -20.342 -20.383  0.00  0.00    -0.000 C 
ATOM     29  C   UNL     1      33.900 -21.573 -19.492  0.00  0.00    -0.000 C 
ENDBRANCH  27  28
ENDBRANCH  21  27
ENDBRANCH  18  22
ENDBRANCH   1  17
BRANCH   1  31
ATOM     30 CL   UNL     1      32.809 -14.827 -26.539  0.00  0.00    -0.113 Cl
ATOM     31  C   UNL     1      33.048 -13.385 -25.502  0.00  0.00    +0.100 C 
ATOM     32  C   UNL     1      33.839 -12.339 -26.283  0.00  0.00    +0.019 C 
ENDBRANCH   1  31
TORSDOF 10
ENDMDL
MODEL 6
REMARK VINA RESULT:      -7.1      3.040      7.430
REMARK  Name = 29029
REMARK  10 active torsions:
REMARK  status: ('A' for Active; 'I' for Inactive)
REMARK    1  A    between atoms: C_1  and  C_3
REMARK    2  A    between atoms: C_1  and  N_17
REMARK    3  A    between atoms: C_1  and  C_31
REMARK    4  A    between atoms: C_4  and  O_10
REMARK    5  A    between atoms: C_5  and  O_12
REMARK    6  A    between atoms: C_6  and  O_14
REMARK    7  A    between atoms: C_7  and  S_8
REMARK    8  A    between atoms: C_18  and  C_22
REMARK    9  A    between atoms: C_21  and  C_27
REMARK   10  A    between atoms: C_27  and  C_28
REMARK                            x       y       z     vdW  Elec       q    Type
REMARK                         _______ _______ _______ _____ _____    ______ ____
ROOT
ATOM      1  C   UNL     1      33.115 -22.809 -16.112  0.00  0.00    +0.116 C 
ENDROOT
BRANCH   1   3
ATOM      2  O   UNL     1      30.966 -23.796 -16.397  0.00  0.00    -0.341 OA
ATOM      3  C   UNL     1      31.783 -23.115 -15.433  0.00  0.00    +0.164 C 
ATOM      4  C   UNL     1      31.958 -23.959 -14.166  0.00  0.00    +0.168 C 
ATOM      5  C   UNL     1      30.592 -24.339 -13.589  0.00  0.00    +0.170 C 
ATOM      6  C   UNL     1      29.733 -25.006 -14.664  0.00  0.00    +0.177 C 
ATOM      7  C   UNL     1      29.655 -24.152 -15.937  0.00  0.00    +0.192 C 
BRANCH   7   8
ATOM      8  S   UNL     1      28.538 -22.703 -15.803  0.00  0.00    -0.109 S 
ATOM      9  C   UNL     1      27.696 -22.897 -17.387  0.00  0.00    +0.072 C 
ENDBRANCH   7   8
BRANCH   4  10
ATOM     10  O   UNL     1      32.686 -25.144 -14.495  0.00  0.00    -0.379 OA
ATOM     11  H   UNL     1      32.952 -25.597 -13.679  0.00  0.00    +0.211 HD
ENDBRANCH   4  10
BRANCH   5  12
ATOM     12  O   UNL     1      30.760 -25.240 -12.497  0.00  0.00    -0.379 OA
ATOM     13  H   UNL     1      30.326 -24.878 -11.709  0.00  0.00    +0.211 HD
ENDBRANCH   5  12
BRANCH   6  14
ATOM     14  O   UNL     1      28.430 -25.291 -14.167  0.00  0.00    -0.379 OA
ATOM     15  H   UNL     1      28.182 -24.622 -13.509  0.00  0.00    +0.211 HD
ENDBRANCH   6  14
ENDBRANCH   1   3
BRANCH   1  17
ATOM     16  O   UNL     1      35.792 -21.699 -15.954  0.00  0.00    -0.277 OA
ATOM     17  N   UNL     1      34.211 -23.273 -15.291  0.00  0.00    -0.304 N 
ATOM     18  C   UNL     1      35.458 -22.674 -15.284  0.00  0.00    +0.203 C 
ATOM     19  H   UNL     1      34.063 -24.053 -14.709  0.00  0.00    +0.149 HD
BRANCH  18  22
ATOM     20  N   UNL     1      35.615 -24.311 -13.561  0.00  0.00    +0.392 N 
ATOM     21  C   UNL     1      37.158 -25.599 -14.710  0.00  0.00    -0.022 C 
ATOM     22  C   UNL     1      36.399 -23.335 -14.329  0.00  0.00    +0.020 C 
ATOM     23  C   UNL     1      37.466 -24.145 -15.067  0.00  0.00    -0.014 C 
ATOM     24  C   UNL     1      36.483 -25.471 -13.351  0.00  0.00    -0.077 C 
ATOM     25  C   UNL     1      35.101 -23.774 -12.309  0.00  0.00    -0.100 C 
ATOM     26  H   UNL     1      34.778 -24.572 -14.081  0.00  0.00    -0.079 HD
BRANCH  21  27
ATOM     27  C   UNL     1      38.387 -26.492 -14.692  0.00  0.00    -0.002 C 
BRANCH  27  28
ATOM     28  C   UNL     1      39.676 -25.674 -14.746  0.00  0.00    -0.000 C 
ATOM     29  C   UNL     1      40.858 -26.458 -14.199  0.00  0.00    -0.000 C 
ENDBRANCH  27  28
ENDBRANCH  21  27
ENDBRANCH  18  22
ENDBRANCH   1  17
BRANCH   1  31
ATOM     30 CL   UNL     1      34.251 -24.802 -17.663  0.00  0.00    -0.113 Cl
ATOM     31  C   UNL     1      33.192 -23.360 -17.551  0.00  0.00    +0.100 C 
ATOM     32  C   UNL     1      33.672 -22.315 -18.555  0.00  0.00    +0.019 C 
ENDBRANCH   1  31
TORSDOF 10
ENDMDL
MODEL 7
REMARK VINA RESULT:      -7.0      3.158      5.253
REMARK  Name = 29029
REMARK  10 active torsions:
REMARK  status: ('A' for Active; 'I' for Inactive)
REMARK    1  A    between atoms: C_1  and  C_3
REMARK    2  A    between atoms: C_1  and  N_17
REMARK    3  A    between atoms: C_1  and  C_31
REMARK    4  A    between atoms: C_4  and  O_10
REMARK    5  A    between atoms: C_5  and  O_12
REMARK    6  A    between atoms: C_6  and  O_14
REMARK    7  A    between atoms: C_7  and  S_8
REMARK    8  A    between atoms: C_18  and  C_22
REMARK    9  A    between atoms: C_21  and  C_27
REMARK   10  A    between atoms: C_27  and  C_28
REMARK                            x       y       z     vdW  Elec       q    Type
REMARK                         _______ _______ _______ _____ _____    ______ ____
ROOT
ATOM      1  C   UNL     1      34.631 -22.959 -15.276  0.00  0.00    +0.116 C 
ENDROOT
BRANCH   1   3
ATOM      2  O   UNL     1      35.394 -24.168 -13.371  0.00  0.00    -0.341 OA
ATOM      3  C   UNL     1      35.844 -23.608 -14.614  0.00  0.00    +0.164 C 
ATOM      4  C   UNL     1      36.486 -24.681 -15.501  0.00  0.00    +0.168 C 
ATOM      5  C   UNL     1      37.619 -25.382 -14.749  0.00  0.00    +0.170 C 
ATOM      6  C   UNL     1      37.113 -25.911 -13.407  0.00  0.00    +0.177 C 
ATOM      7  C   UNL     1      36.413 -24.813 -12.593  0.00  0.00    +0.192 C 
BRANCH   7   8
ATOM      8  S   UNL     1      37.558 -23.617 -11.804  0.00  0.00    -0.109 S 
ATOM      9  C   UNL     1      36.520 -23.179 -10.394  0.00  0.00    +0.072 C 
ENDBRANCH   7   8
BRANCH   4  10
ATOM     10  O   UNL     1      35.489 -25.637 -15.867  0.00  0.00    -0.379 OA
ATOM     11  H   UNL     1      35.078 -25.372 -16.705  0.00  0.00    +0.211 HD
ENDBRANCH   4  10
BRANCH   5  12
ATOM     12  O   UNL     1      38.114 -26.471 -15.524  0.00  0.00    -0.379 OA
ATOM     13  H   UNL     1      37.573 -26.573 -16.323  0.00  0.00    +0.211 HD
ENDBRANCH   5  12
BRANCH   6  14
ATOM     14  O   UNL     1      38.174 -26.493 -12.658  0.00  0.00    -0.379 OA
ATOM     15  H   UNL     1      37.894 -27.357 -12.318  0.00  0.00    +0.211 HD
ENDBRANCH   6  14
ENDBRANCH   1   3
BRANCH   1  17
ATOM     16  O   UNL     1      36.655 -21.318 -16.554  0.00  0.00    -0.277 OA
ATOM     17  N   UNL     1      34.865 -22.799 -16.694  0.00  0.00    -0.304 N 
ATOM     18  C   UNL     1      35.861 -21.989 -17.210  0.00  0.00    +0.203 C 
ATOM     19  H   UNL     1      34.287 -23.289 -17.323  0.00  0.00    +0.149 HD
BRANCH  18  22
ATOM     20  N   UNL     1      34.583 -21.585 -19.178  0.00  0.00    +0.392 N 
ATOM     21  C   UNL     1      36.041 -19.976 -19.982  0.00  0.00    -0.022 C 
ATOM     22  C   UNL     1      35.901 -22.023 -18.704  0.00  0.00    +0.020 C 
ATOM     23  C   UNL     1      36.903 -21.008 -19.258  0.00  0.00    -0.014 C 
ATOM     24  C   UNL     1      34.818 -20.788 -20.385  0.00  0.00    -0.077 C 
ATOM     25  C   UNL     1      33.664 -22.689 -19.418  0.00  0.00    -0.100 C 
ATOM     26  H   UNL     1      34.121 -21.029 -18.460  0.00  0.00    -0.079 HD
BRANCH  21  27
ATOM     27  C   UNL     1      36.742 -19.318 -21.159  0.00  0.00    -0.002 C 
BRANCH  27  28
ATOM     28  C   UNL     1      35.888 -18.210 -21.773  0.00  0.00    -0.000 C 
ATOM     29  C   UNL     1      35.574 -18.492 -23.233  0.00  0.00    -0.000 C 
ENDBRANCH  27  28
ENDBRANCH  21  27
ENDBRANCH  18  22
ENDBRANCH   1  17
BRANCH   1  31
ATOM     30 CL   UNL     1      32.191 -23.667 -16.378  0.00  0.00    -0.113 Cl
ATOM     31  C   UNL     1      33.317 -23.713 -14.984  0.00  0.00    +0.100 C 
ATOM     32  C   UNL     1      32.597 -23.180 -13.749  0.00  0.00    +0.019 C 
ENDBRANCH   1  31
TORSDOF 10
ENDMDL
MODEL 8
REMARK VINA RESULT:      -7.0      3.207      5.599
REMARK  Name = 29029
REMARK  10 active torsions:
REMARK  status: ('A' for Active; 'I' for Inactive)
REMARK    1  A    between atoms: C_1  and  C_3
REMARK    2  A    between atoms: C_1  and  N_17
REMARK    3  A    between atoms: C_1  and  C_31
REMARK    4  A    between atoms: C_4  and  O_10
REMARK    5  A    between atoms: C_5  and  O_12
REMARK    6  A    between atoms: C_6  and  O_14
REMARK    7  A    between atoms: C_7  and  S_8
REMARK    8  A    between atoms: C_18  and  C_22
REMARK    9  A    between atoms: C_21  and  C_27
REMARK   10  A    between atoms: C_27  and  C_28
REMARK                            x       y       z     vdW  Elec       q    Type
REMARK                         _______ _______ _______ _____ _____    ______ ____
ROOT
ATOM      1  C   UNL     1      34.424 -23.211 -15.104  0.00  0.00    +0.116 C 
ENDROOT
BRANCH   1   3
ATOM      2  O   UNL     1      36.703 -23.546 -14.494  0.00  0.00    -0.341 OA
ATOM      3  C   UNL     1      35.405 -24.156 -14.416  0.00  0.00    +0.164 C 
ATOM      4  C   UNL     1      35.016 -24.439 -12.961  0.00  0.00    +0.168 C 
ATOM      5  C   UNL     1      36.089 -25.292 -12.281  0.00  0.00    +0.170 C 
ATOM      6  C   UNL     1      37.462 -24.637 -12.439  0.00  0.00    +0.177 C 
ATOM      7  C   UNL     1      37.766 -24.308 -13.907  0.00  0.00    +0.192 C 
BRANCH   7   8
ATOM      8  S   UNL     1      38.233 -25.763 -14.922  0.00  0.00    -0.109 S 
ATOM      9  C   UNL     1      40.009 -25.453 -14.992  0.00  0.00    +0.072 C 
ENDBRANCH   7   8
BRANCH   4  10
ATOM     10  O   UNL     1      34.881 -23.196 -12.268  0.00  0.00    -0.379 OA
ATOM     11  H   UNL     1      33.999 -22.827 -12.433  0.00  0.00    +0.211 HD
ENDBRANCH   4  10
BRANCH   5  12
ATOM     12  O   UNL     1      35.793 -25.429 -10.894  0.00  0.00    -0.379 OA
ATOM     13  H   UNL     1      36.616 -25.384 -10.381  0.00  0.00    +0.211 HD
ENDBRANCH   5  12
BRANCH   6  14
ATOM     14  O   UNL     1      38.483 -25.459 -11.884  0.00  0.00    -0.379 OA
ATOM     15  H   UNL     1      38.495 -25.353 -10.920  0.00  0.00    +0.211 HD
ENDBRANCH   6  14
ENDBRANCH   1   3
BRANCH   1  17
ATOM     16  O   UNL     1      36.363 -21.374 -16.241  0.00  0.00    -0.277 OA
ATOM     17  N   UNL     1      34.777 -23.058 -16.499  0.00  0.00    -0.304 N 
ATOM     18  C   UNL     1      35.719 -22.148 -16.945  0.00  0.00    +0.203 C 
ATOM     19  H   UNL     1      34.323 -23.627 -17.162  0.00  0.00    +0.149 HD
BRANCH  18  22
ATOM     20  N   UNL     1      34.613 -21.899 -19.040  0.00  0.00    +0.392 N 
ATOM     21  C   UNL     1      36.006 -20.190 -19.748  0.00  0.00    -0.022 C 
ATOM     22  C   UNL     1      35.909 -22.212 -18.427  0.00  0.00    +0.020 C 
ATOM     23  C   UNL     1      36.875 -21.129 -18.912  0.00  0.00    -0.014 C 
ATOM     24  C   UNL     1      34.900 -21.112 -20.242  0.00  0.00    -0.077 C 
ATOM     25  C   UNL     1      33.817 -23.082 -19.333  0.00  0.00    -0.100 C 
ATOM     26  H   UNL     1      34.038 -21.368 -18.386  0.00  0.00    -0.079 HD
BRANCH  21  27
ATOM     27  C   UNL     1      36.763 -19.502 -20.871  0.00  0.00    -0.002 C 
BRANCH  27  28
ATOM     28  C   UNL     1      35.970 -18.331 -21.448  0.00  0.00    -0.000 C 
ATOM     29  C   UNL     1      35.509 -18.615 -22.868  0.00  0.00    -0.000 C 
ENDBRANCH  27  28
ENDBRANCH  21  27
ENDBRANCH  18  22
ENDBRANCH   1  17
BRANCH   1  31
ATOM     30 CL   UNL     1      32.062 -23.673 -16.474  0.00  0.00    -0.113 Cl
ATOM     31  C   UNL     1      32.954 -23.637 -14.919  0.00  0.00    +0.100 C 
ATOM     32  C   UNL     1      32.202 -22.742 -13.938  0.00  0.00    +0.019 C 
ENDBRANCH   1  31
TORSDOF 10
ENDMDL
MODEL 9
REMARK VINA RESULT:      -6.9     13.046     14.978
REMARK  Name = 29029
REMARK  10 active torsions:
REMARK  status: ('A' for Active; 'I' for Inactive)
REMARK    1  A    between atoms: C_1  and  C_3
REMARK    2  A    between atoms: C_1  and  N_17
REMARK    3  A    between atoms: C_1  and  C_31
REMARK    4  A    between atoms: C_4  and  O_10
REMARK    5  A    between atoms: C_5  and  O_12
REMARK    6  A    between atoms: C_6  and  O_14
REMARK    7  A    between atoms: C_7  and  S_8
REMARK    8  A    between atoms: C_18  and  C_22
REMARK    9  A    between atoms: C_21  and  C_27
REMARK   10  A    between atoms: C_27  and  C_28
REMARK                            x       y       z     vdW  Elec       q    Type
REMARK                         _______ _______ _______ _____ _____    ______ ____
ROOT
ATOM      1  C   UNL     1      32.815 -13.309 -24.181  0.00  0.00    +0.116 C 
ENDROOT
BRANCH   1   3
ATOM      2  O   UNL     1      34.569 -14.534 -23.133  0.00  0.00    -0.341 OA
ATOM      3  C   UNL     1      33.139 -14.475 -23.252  0.00  0.00    +0.164 C 
ATOM      4  C   UNL     1      32.479 -14.324 -21.877  0.00  0.00    +0.168 C 
ATOM      5  C   UNL     1      32.928 -15.451 -20.945  0.00  0.00    +0.170 C 
ATOM      6  C   UNL     1      34.455 -15.516 -20.894  0.00  0.00    +0.177 C 
ATOM      7  C   UNL     1      35.065 -15.592 -22.301  0.00  0.00    +0.192 C 
BRANCH   7   8
ATOM      8  S   UNL     1      34.921 -17.238 -23.096  0.00  0.00    -0.109 S 
ATOM      9  C   UNL     1      34.981 -16.687 -24.813  0.00  0.00    +0.072 C 
ENDBRANCH   7   8
BRANCH   4  10
ATOM     10  O   UNL     1      32.854 -13.062 -21.319  0.00  0.00    -0.379 OA
ATOM     11  H   UNL     1      32.590 -12.350 -21.922  0.00  0.00    +0.211 HD
ENDBRANCH   4  10
BRANCH   5  12
ATOM     12  O   UNL     1      32.425 -15.224 -19.631  0.00  0.00    -0.379 OA
ATOM     13  H   UNL     1      32.848 -14.436 -19.255  0.00  0.00    +0.211 HD
ENDBRANCH   5  12
BRANCH   6  14
ATOM     14  O   UNL     1      34.889 -16.613 -20.097  0.00  0.00    -0.379 OA
ATOM     15  H   UNL     1      34.771 -16.397 -19.159  0.00  0.00    +0.211 HD
ENDBRANCH   6  14
ENDBRANCH   1   3
BRANCH   1  17
ATOM     16  O   UNL     1      31.245 -11.112 -23.118  0.00  0.00    -0.277 OA
ATOM     17  N   UNL     1      33.306 -12.072 -23.617  0.00  0.00    -0.304 N 
ATOM     18  C   UNL     1      32.474 -11.078 -23.133  0.00  0.00    +0.203 C 
ATOM     19  H   UNL     1      34.279 -11.929 -23.576  0.00  0.00    +0.149 HD
BRANCH  18  22
ATOM     20  N   UNL     1      33.584  -9.054 -23.719  0.00  0.00    +0.392 N 
ATOM     21  C   UNL     1      32.211  -7.736 -22.401  0.00  0.00    -0.022 C 
ATOM     22  C   UNL     1      33.238  -9.917 -22.583  0.00  0.00    +0.020 C 
ATOM     23  C   UNL     1      32.368  -9.063 -21.659  0.00  0.00    -0.014 C 
ATOM     24  C   UNL     1      33.478  -7.674 -23.242  0.00  0.00    -0.077 C 
ATOM     25  C   UNL     1      34.896  -9.344 -24.280  0.00  0.00    -0.100 C 
ATOM     26  H   UNL     1      32.941  -9.222 -24.493  0.00  0.00    -0.079 HD
BRANCH  21  27
ATOM     27  C   UNL     1      32.040  -6.542 -21.477  0.00  0.00    -0.002 C 
BRANCH  27  28
ATOM     28  C   UNL     1      30.873  -5.658 -21.914  0.00  0.00    -0.000 C 
ATOM     29  C   UNL     1      31.274  -4.723 -23.044  0.00  0.00    -0.000 C 
ENDBRANCH  27  28
ENDBRANCH  21  27
ENDBRANCH  18  22
ENDBRANCH   1  17
BRANCH   1  31
ATOM     30 CL   UNL     1      33.620 -11.989 -26.478  0.00  0.00    -0.113 Cl
ATOM     31  C   UNL     1      33.323 -13.534 -25.621  0.00  0.00    +0.100 C 
ATOM     32  C   UNL     1      32.368 -14.387 -26.453  0.00  0.00    +0.019 C 
ENDBRANCH   1  31
TORSDOF 10
ENDMDL
