MODEL 1
REMARK VINA RESULT:      -9.3      0.000      0.000
REMARK  Name = 670006
REMARK  4 active torsions:
REMARK  status: ('A' for Active; 'I' for Inactive)
REMARK    1  A    between atoms: N_2  and  C_6
REMARK    2  A    between atoms: C_3  and  C_11
REMARK    3  A    between atoms: C_11  and  C_12
REMARK    4  A    between atoms: C_11  and  C_18
REMARK                            x       y       z     vdW  Elec       q    Type
REMARK                         _______ _______ _______ _____ _____    ______ ____
ROOT
ATOM      1  O   UNL     1      35.132 -16.398 -20.298  0.00  0.00    -0.274 OA
ATOM      2  N   UNL     1      33.829 -16.097 -22.228  0.00  0.00    -0.284 N 
ATOM      3  C   UNL     1      34.721 -16.768 -21.394  0.00  0.00    +0.230 C 
ATOM      4  H   UNL     1      33.617 -16.537 -23.081  0.00  0.00    +0.155 HD
ENDROOT
BRANCH   2   6
ATOM      5  N   UNL     1      31.947 -12.421 -21.521  0.00  0.00    -0.242 NA
ATOM      6  C   UNL     1      33.193 -14.855 -21.989  0.00  0.00    +0.053 C 
ATOM      7  C   UNL     1      32.957 -14.000 -23.047  0.00  0.00    +0.035 C 
ATOM      8  C   UNL     1      32.819 -14.521 -20.702  0.00  0.00    +0.035 C 
ATOM      9  C   UNL     1      32.333 -12.797 -22.761  0.00  0.00    +0.100 C 
ATOM     10  C   UNL     1      32.201 -13.294 -20.522  0.00  0.00    +0.100 C 
ENDBRANCH   2   6
BRANCH   3  11
ATOM     11  C   UNL     1      35.185 -18.091 -22.022  0.00  0.00    +0.099 C 
BRANCH  11  12
ATOM     12  C   UNL     1      34.753 -19.264 -21.159  0.00  0.00    -0.014 C 
ATOM     13  C   UNL     1      33.406 -19.467 -20.931  0.00  0.00    -0.004 C 
ATOM     14  C   UNL     1      35.719 -20.095 -20.627  0.00  0.00    -0.004 C 
ATOM     15  C   UNL     1      33.009 -20.543 -20.138  0.00  0.00    -0.000 C 
ATOM     16  C   UNL     1      35.321 -21.172 -19.833  0.00  0.00    -0.000 C 
ATOM     17  C   UNL     1      33.966 -21.396 -19.589  0.00  0.00    -0.000 C 
ENDBRANCH  11  12
BRANCH  11  18
ATOM     18  C   UNL     1      34.690 -18.209 -23.478  0.00  0.00    +0.013 C 
ATOM     19  C   UNL     1      35.041 -19.544 -24.123  0.00  0.00    +0.001 C 
ENDBRANCH  11  18
ENDBRANCH   3  11
TORSDOF 4
ENDMDL
MODEL 2
REMARK VINA RESULT:      -8.5      2.273      6.287
REMARK  Name = 670006
REMARK  4 active torsions:
REMARK  status: ('A' for Active; 'I' for Inactive)
REMARK    1  A    between atoms: N_2  and  C_6
REMARK    2  A    between atoms: C_3  and  C_11
REMARK    3  A    between atoms: C_11  and  C_12
REMARK    4  A    between atoms: C_11  and  C_18
REMARK                            x       y       z     vdW  Elec       q    Type
REMARK                         _______ _______ _______ _____ _____    ______ ____
ROOT
ATOM      1  O   UNL     1      35.651 -17.828 -20.649  0.00  0.00    -0.274 OA
ATOM      2  N   UNL     1      34.228 -19.598 -21.246  0.00  0.00    -0.284 N 
ATOM      3  C   UNL     1      34.801 -18.335 -21.377  0.00  0.00    +0.230 C 
ATOM      4  H   UNL     1      33.550 -19.839 -21.917  0.00  0.00    +0.155 HD
ENDROOT
BRANCH   2   6
ATOM      5  N   UNL     1      35.056 -22.488 -18.327  0.00  0.00    -0.242 NA
ATOM      6  C   UNL     1      34.507 -20.574 -20.260  0.00  0.00    +0.053 C 
ATOM      7  C   UNL     1      33.464 -21.256 -19.666  0.00  0.00    +0.035 C 
ATOM      8  C   UNL     1      35.819 -20.828 -19.910  0.00  0.00    +0.035 C 
ATOM      9  C   UNL     1      33.790 -22.200 -18.707  0.00  0.00    +0.100 C 
ATOM     10  C   UNL     1      36.039 -21.793 -18.940  0.00  0.00    +0.100 C 
ENDBRANCH   2   6
BRANCH   3  11
ATOM     11  C   UNL     1      34.222 -17.580 -22.584  0.00  0.00    +0.099 C 
BRANCH  11  12
ATOM     12  C   UNL     1      33.820 -16.172 -22.179  0.00  0.00    -0.014 C 
ATOM     13  C   UNL     1      33.034 -15.997 -21.057  0.00  0.00    -0.004 C 
ATOM     14  C   UNL     1      34.252 -15.107 -22.945  0.00  0.00    -0.004 C 
ATOM     15  C   UNL     1      32.664 -14.704 -20.686  0.00  0.00    -0.000 C 
ATOM     16  C   UNL     1      33.882 -13.814 -22.573  0.00  0.00    -0.000 C 
ATOM     17  C   UNL     1      33.088 -13.613 -21.444  0.00  0.00    -0.000 C 
ENDBRANCH  11  12
BRANCH  11  18
ATOM     18  C   UNL     1      35.211 -17.600 -23.767  0.00  0.00    +0.013 C 
ATOM     19  C   UNL     1      34.590 -18.125 -25.056  0.00  0.00    +0.001 C 
ENDBRANCH  11  18
ENDBRANCH   3  11
TORSDOF 4
ENDMDL
MODEL 3
REMARK VINA RESULT:      -8.2      5.187      8.519
REMARK  Name = 670006
REMARK  4 active torsions:
REMARK  status: ('A' for Active; 'I' for Inactive)
REMARK    1  A    between atoms: N_2  and  C_6
REMARK    2  A    between atoms: C_3  and  C_11
REMARK    3  A    between atoms: C_11  and  C_12
REMARK    4  A    between atoms: C_11  and  C_18
REMARK                            x       y       z     vdW  Elec       q    Type
REMARK                         _______ _______ _______ _____ _____    ______ ____
ROOT
ATOM      1  O   UNL     1      33.636 -24.057 -18.615  0.00  0.00    -0.274 OA
ATOM      2  N   UNL     1      33.796 -22.878 -16.592  0.00  0.00    -0.284 N 
ATOM      3  C   UNL     1      34.141 -23.193 -17.904  0.00  0.00    +0.230 C 
ATOM      4  H   UNL     1      34.317 -22.159 -16.167  0.00  0.00    +0.155 HD
ENDROOT
BRANCH   2   6
ATOM      5  N   UNL     1      30.799 -24.630 -14.246  0.00  0.00    -0.242 NA
ATOM      6  C   UNL     1      32.784 -23.469 -15.800  0.00  0.00    +0.053 C 
ATOM      7  C   UNL     1      31.460 -23.294 -16.149  0.00  0.00    +0.035 C 
ATOM      8  C   UNL     1      33.138 -24.213 -14.691  0.00  0.00    +0.035 C 
ATOM      9  C   UNL     1      30.507 -23.892 -15.341  0.00  0.00    +0.100 C 
ATOM     10  C   UNL     1      32.109 -24.771 -13.949  0.00  0.00    +0.100 C 
ENDBRANCH   2   6
BRANCH   3  11
ATOM     11  C   UNL     1      35.299 -22.315 -18.405  0.00  0.00    +0.099 C 
BRANCH  11  12
ATOM     12  C   UNL     1      34.797 -21.326 -19.444  0.00  0.00    -0.014 C 
ATOM     13  C   UNL     1      33.438 -21.114 -19.564  0.00  0.00    -0.004 C 
ATOM     14  C   UNL     1      35.716 -20.666 -20.237  0.00  0.00    -0.004 C 
ATOM     15  C   UNL     1      32.978 -20.206 -20.518  0.00  0.00    -0.000 C 
ATOM     16  C   UNL     1      35.254 -19.758 -21.190  0.00  0.00    -0.000 C 
ATOM     17  C   UNL     1      33.886 -19.528 -21.331  0.00  0.00    -0.000 C 
ENDBRANCH  11  12
BRANCH  11  18
ATOM     18  C   UNL     1      36.013 -21.627 -17.224  0.00  0.00    +0.013 C 
ATOM     19  C   UNL     1      37.318 -22.310 -16.835  0.00  0.00    +0.001 C 
ENDBRANCH  11  18
ENDBRANCH   3  11
TORSDOF 4
ENDMDL
MODEL 4
REMARK VINA RESULT:      -8.0      3.377      8.009
REMARK  Name = 670006
REMARK  4 active torsions:
REMARK  status: ('A' for Active; 'I' for Inactive)
REMARK    1  A    between atoms: N_2  and  C_6
REMARK    2  A    between atoms: C_3  and  C_11
REMARK    3  A    between atoms: C_11  and  C_12
REMARK    4  A    between atoms: C_11  and  C_18
REMARK                            x       y       z     vdW  Elec       q    Type
REMARK                         _______ _______ _______ _____ _____    ______ ____
ROOT
ATOM      1  O   UNL     1      32.099 -12.587 -22.633  0.00  0.00    -0.274 OA
ATOM      2  N   UNL     1      34.152 -13.371 -23.457  0.00  0.00    -0.284 N 
ATOM      3  C   UNL     1      33.052 -12.518 -23.403  0.00  0.00    +0.230 C 
ATOM      4  H   UNL     1      34.822 -13.172 -24.150  0.00  0.00    +0.155 HD
ENDROOT
BRANCH   2   6
ATOM      5  N   UNL     1      34.940 -16.680 -21.012  0.00  0.00    -0.242 NA
ATOM      6  C   UNL     1      34.419 -14.488 -22.632  0.00  0.00    +0.053 C 
ATOM      7  C   UNL     1      34.798 -15.683 -23.210  0.00  0.00    +0.035 C 
ATOM      8  C   UNL     1      34.294 -14.365 -21.261  0.00  0.00    +0.035 C 
ATOM      9  C   UNL     1      35.046 -16.747 -22.359  0.00  0.00    +0.100 C 
ATOM     10  C   UNL     1      34.566 -15.489 -20.498  0.00  0.00    +0.100 C 
ENDBRANCH   2   6
BRANCH   3  11
ATOM     11  C   UNL     1      33.140 -11.423 -24.478  0.00  0.00    +0.099 C 
BRANCH  11  12
ATOM     12  C   UNL     1      33.427 -10.077 -23.835  0.00  0.00    -0.014 C 
ATOM     13  C   UNL     1      32.533  -9.572 -22.912  0.00  0.00    -0.004 C 
ATOM     14  C   UNL     1      34.575  -9.397 -24.191  0.00  0.00    -0.004 C 
ATOM     15  C   UNL     1      32.796  -8.335 -22.321  0.00  0.00    -0.000 C 
ATOM     16  C   UNL     1      34.838  -8.160 -23.600  0.00  0.00    -0.000 C 
ATOM     17  C   UNL     1      33.949  -7.630 -22.665  0.00  0.00    -0.000 C 
ENDBRANCH  11  12
BRANCH  11  18
ATOM     18  C   UNL     1      34.173 -11.799 -25.559  0.00  0.00    +0.013 C 
ATOM     19  C   UNL     1      33.555 -12.514 -26.754  0.00  0.00    +0.001 C 
ENDBRANCH  11  18
ENDBRANCH   3  11
TORSDOF 4
ENDMDL
MODEL 5
REMARK VINA RESULT:      -8.0      3.395      8.124
REMARK  Name = 670006
REMARK  4 active torsions:
REMARK  status: ('A' for Active; 'I' for Inactive)
REMARK    1  A    between atoms: N_2  and  C_6
REMARK    2  A    between atoms: C_3  and  C_11
REMARK    3  A    between atoms: C_11  and  C_12
REMARK    4  A    between atoms: C_11  and  C_18
REMARK                            x       y       z     vdW  Elec       q    Type
REMARK                         _______ _______ _______ _____ _____    ______ ____
ROOT
ATOM      1  O   UNL     1      32.044 -12.613 -22.722  0.00  0.00    -0.274 OA
ATOM      2  N   UNL     1      34.169 -13.313 -23.434  0.00  0.00    -0.284 N 
ATOM      3  C   UNL     1      33.037 -12.500 -23.435  0.00  0.00    +0.230 C 
ATOM      4  H   UNL     1      34.870 -13.082 -24.085  0.00  0.00    +0.155 HD
ENDROOT
BRANCH   2   6
ATOM      5  N   UNL     1      34.935 -16.624 -20.983  0.00  0.00    -0.242 NA
ATOM      6  C   UNL     1      34.427 -14.431 -22.606  0.00  0.00    +0.053 C 
ATOM      7  C   UNL     1      34.297 -14.306 -21.237  0.00  0.00    +0.035 C 
ATOM      8  C   UNL     1      34.805 -15.628 -23.182  0.00  0.00    +0.035 C 
ATOM      9  C   UNL     1      34.563 -15.428 -20.471  0.00  0.00    +0.100 C 
ATOM     10  C   UNL     1      35.047 -16.692 -22.328  0.00  0.00    +0.100 C 
ENDBRANCH   2   6
BRANCH   3  11
ATOM     11  C   UNL     1      33.147 -11.389 -24.491  0.00  0.00    +0.099 C 
BRANCH  11  12
ATOM     12  C   UNL     1      33.435 -10.055 -23.823  0.00  0.00    -0.014 C 
ATOM     13  C   UNL     1      34.556  -9.344 -24.203  0.00  0.00    -0.004 C 
ATOM     14  C   UNL     1      32.565  -9.590 -22.856  0.00  0.00    -0.004 C 
ATOM     15  C   UNL     1      34.821  -8.120 -23.589  0.00  0.00    -0.000 C 
ATOM     16  C   UNL     1      32.830  -8.365 -22.243  0.00  0.00    -0.000 C 
ATOM     17  C   UNL     1      33.957  -7.630 -22.610  0.00  0.00    -0.000 C 
ENDBRANCH  11  12
BRANCH  11  18
ATOM     18  C   UNL     1      34.194 -11.756 -25.563  0.00  0.00    +0.013 C 
ATOM     19  C   UNL     1      33.592 -12.474 -26.764  0.00  0.00    +0.001 C 
ENDBRANCH  11  18
ENDBRANCH   3  11
TORSDOF 4
ENDMDL
MODEL 6
REMARK VINA RESULT:      -8.0      5.794     10.716
REMARK  Name = 670006
REMARK  4 active torsions:
REMARK  status: ('A' for Active; 'I' for Inactive)
REMARK    1  A    between atoms: N_2  and  C_6
REMARK    2  A    between atoms: C_3  and  C_11
REMARK    3  A    between atoms: C_11  and  C_12
REMARK    4  A    between atoms: C_11  and  C_18
REMARK                            x       y       z     vdW  Elec       q    Type
REMARK                         _______ _______ _______ _____ _____    ______ ____
ROOT
ATOM      1  O   UNL     1      31.459  -9.219 -23.253  0.00  0.00    -0.274 OA
ATOM      2  N   UNL     1      33.661  -9.947 -23.612  0.00  0.00    -0.284 N 
ATOM      3  C   UNL     1      32.672  -9.033 -23.255  0.00  0.00    +0.230 C 
ATOM      4  H   UNL     1      34.589  -9.623 -23.564  0.00  0.00    +0.155 HD
ENDROOT
BRANCH   2   6
ATOM      5  N   UNL     1      33.144 -13.912 -24.864  0.00  0.00    -0.242 NA
ATOM      6  C   UNL     1      33.487 -11.286 -24.035  0.00  0.00    +0.053 C 
ATOM      7  C   UNL     1      33.811 -11.635 -25.331  0.00  0.00    +0.035 C 
ATOM      8  C   UNL     1      32.996 -12.220 -23.144  0.00  0.00    +0.035 C 
ATOM      9  C   UNL     1      33.621 -12.958 -25.696  0.00  0.00    +0.100 C 
ATOM     10  C   UNL     1      32.843 -13.517 -23.608  0.00  0.00    +0.100 C 
ENDBRANCH   2   6
BRANCH   3  11
ATOM     11  C   UNL     1      33.279  -7.680 -22.854  0.00  0.00    +0.099 C 
BRANCH  11  12
ATOM     12  C   UNL     1      33.363  -6.763 -24.062  0.00  0.00    -0.014 C 
ATOM     13  C   UNL     1      32.277  -5.972 -24.380  0.00  0.00    -0.004 C 
ATOM     14  C   UNL     1      34.525  -6.745 -24.808  0.00  0.00    -0.004 C 
ATOM     15  C   UNL     1      32.353  -5.130 -25.489  0.00  0.00    -0.000 C 
ATOM     16  C   UNL     1      34.602  -5.902 -25.918  0.00  0.00    -0.000 C 
ATOM     17  C   UNL     1      33.516  -5.095 -26.258  0.00  0.00    -0.000 C 
ENDBRANCH  11  12
BRANCH  11  18
ATOM     18  C   UNL     1      32.493  -7.053 -21.684  0.00  0.00    +0.013 C 
ATOM     19  C   UNL     1      32.776  -7.725 -20.346  0.00  0.00    +0.001 C 
ENDBRANCH  11  18
ENDBRANCH   3  11
TORSDOF 4
ENDMDL
MODEL 7
REMARK VINA RESULT:      -7.9      4.454      9.085
REMARK  Name = 670006
REMARK  4 active torsions:
REMARK  status: ('A' for Active; 'I' for Inactive)
REMARK    1  A    between atoms: N_2  and  C_6
REMARK    2  A    between atoms: C_3  and  C_11
REMARK    3  A    between atoms: C_11  and  C_12
REMARK    4  A    between atoms: C_11  and  C_18
REMARK                            x       y       z     vdW  Elec       q    Type
REMARK                         _______ _______ _______ _____ _____    ______ ____
ROOT
ATOM      1  O   UNL     1      33.937 -11.043 -24.630  0.00  0.00    -0.274 OA
ATOM      2  N   UNL     1      32.894 -12.812 -23.491  0.00  0.00    -0.284 N 
ATOM      3  C   UNL     1      33.244 -11.482 -23.716  0.00  0.00    +0.230 C 
ATOM      4  H   UNL     1      32.338 -12.986 -22.699  0.00  0.00    +0.155 HD
ENDROOT
BRANCH   2   6
ATOM      5  N   UNL     1      33.940 -16.152 -25.794  0.00  0.00    -0.242 NA
ATOM      6  C   UNL     1      33.247 -13.940 -24.268  0.00  0.00    +0.053 C 
ATOM      7  C   UNL     1      34.040 -14.925 -23.713  0.00  0.00    +0.035 C 
ATOM      8  C   UNL     1      32.793 -14.036 -25.569  0.00  0.00    +0.035 C 
ATOM      9  C   UNL     1      34.358 -16.008 -24.516  0.00  0.00    +0.100 C 
ATOM     10  C   UNL     1      33.167 -15.160 -26.288  0.00  0.00    +0.100 C 
ENDBRANCH   2   6
BRANCH   3  11
ATOM     11  C   UNL     1      32.658 -10.559 -22.636  0.00  0.00    +0.099 C 
BRANCH  11  12
ATOM     12  C   UNL     1      32.612  -9.125 -23.138  0.00  0.00    -0.014 C 
ATOM     13  C   UNL     1      31.406  -8.602 -23.561  0.00  0.00    -0.004 C 
ATOM     14  C   UNL     1      33.778  -8.385 -23.155  0.00  0.00    -0.004 C 
ATOM     15  C   UNL     1      31.364  -7.286 -24.022  0.00  0.00    -0.000 C 
ATOM     16  C   UNL     1      33.735  -7.069 -23.616  0.00  0.00    -0.000 C 
ATOM     17  C   UNL     1      32.528  -6.520 -24.049  0.00  0.00    -0.000 C 
ENDBRANCH  11  12
BRANCH  11  18
ATOM     18  C   UNL     1      31.280 -11.070 -22.169  0.00  0.00    +0.013 C 
ATOM     19  C   UNL     1      31.174 -11.205 -20.655  0.00  0.00    +0.001 C 
ENDBRANCH  11  18
ENDBRANCH   3  11
TORSDOF 4
ENDMDL
MODEL 8
REMARK VINA RESULT:      -7.9      2.502      6.354
REMARK  Name = 670006
REMARK  4 active torsions:
REMARK  status: ('A' for Active; 'I' for Inactive)
REMARK    1  A    between atoms: N_2  and  C_6
REMARK    2  A    between atoms: C_3  and  C_11
REMARK    3  A    between atoms: C_11  and  C_12
REMARK    4  A    between atoms: C_11  and  C_18
REMARK                            x       y       z     vdW  Elec       q    Type
REMARK                         _______ _______ _______ _____ _____    ______ ____
ROOT
ATOM      1  O   UNL     1      36.806 -18.647 -21.481  0.00  0.00    -0.274 OA
ATOM      2  N   UNL     1      34.595 -18.896 -20.734  0.00  0.00    -0.284 N 
ATOM      3  C   UNL     1      35.661 -18.230 -21.335  0.00  0.00    +0.230 C 
ATOM      4  H   UNL     1      33.744 -18.403 -20.692  0.00  0.00    +0.155 HD
ENDROOT
BRANCH   2   6
ATOM      5  N   UNL     1      34.588 -22.749 -19.090  0.00  0.00    -0.242 NA
ATOM      6  C   UNL     1      34.593 -20.197 -20.179  0.00  0.00    +0.053 C 
ATOM      7  C   UNL     1      35.793 -20.798 -19.854  0.00  0.00    +0.035 C 
ATOM      8  C   UNL     1      33.390 -20.844 -19.971  0.00  0.00    +0.035 C 
ATOM      9  C   UNL     1      35.737 -22.072 -19.315  0.00  0.00    +0.100 C 
ATOM     10  C   UNL     1      33.442 -22.116 -19.425  0.00  0.00    +0.100 C 
ENDBRANCH   2   6
BRANCH   3  11
ATOM     11  C   UNL     1      35.249 -16.828 -21.810  0.00  0.00    +0.099 C 
BRANCH  11  12
ATOM     12  C   UNL     1      34.754 -16.884 -23.246  0.00  0.00    -0.014 C 
ATOM     13  C   UNL     1      34.804 -18.086 -23.924  0.00  0.00    -0.004 C 
ATOM     14  C   UNL     1      34.267 -15.732 -23.831  0.00  0.00    -0.004 C 
ATOM     15  C   UNL     1      34.349 -18.138 -25.242  0.00  0.00    -0.000 C 
ATOM     16  C   UNL     1      33.812 -15.784 -25.149  0.00  0.00    -0.000 C 
ATOM     17  C   UNL     1      33.853 -16.987 -25.854  0.00  0.00    -0.000 C 
ENDBRANCH  11  12
BRANCH  11  18
ATOM     18  C   UNL     1      34.217 -16.206 -20.848  0.00  0.00    +0.013 C 
ATOM     19  C   UNL     1      34.495 -14.740 -20.540  0.00  0.00    +0.001 C 
ENDBRANCH  11  18
ENDBRANCH   3  11
TORSDOF 4
ENDMDL
MODEL 9
REMARK VINA RESULT:      -7.9      8.195     10.399
REMARK  Name = 670006
REMARK  4 active torsions:
REMARK  status: ('A' for Active; 'I' for Inactive)
REMARK    1  A    between atoms: N_2  and  C_6
REMARK    2  A    between atoms: C_3  and  C_11
REMARK    3  A    between atoms: C_11  and  C_12
REMARK    4  A    between atoms: C_11  and  C_18
REMARK                            x       y       z     vdW  Elec       q    Type
REMARK                         _______ _______ _______ _____ _____    ______ ____
ROOT
ATOM      1  O   UNL     1      34.610 -23.720 -16.651  0.00  0.00    -0.274 OA
ATOM      2  N   UNL     1      33.987 -23.286 -14.430  0.00  0.00    -0.284 N 
ATOM      3  C   UNL     1      34.867 -23.353 -15.508  0.00  0.00    +0.230 C 
ATOM      4  H   UNL     1      34.369 -22.978 -13.577  0.00  0.00    +0.155 HD
ENDROOT
BRANCH   2   6
ATOM      5  N   UNL     1      29.908 -24.245 -14.395  0.00  0.00    -0.242 NA
ATOM      6  C   UNL     1      32.610 -23.610 -14.418  0.00  0.00    +0.053 C 
ATOM      7  C   UNL     1      31.694 -22.695 -14.899  0.00  0.00    +0.035 C 
ATOM      8  C   UNL     1      32.205 -24.836 -13.927  0.00  0.00    +0.035 C 
ATOM      9  C   UNL     1      30.358 -23.058 -14.865  0.00  0.00    +0.100 C 
ATOM     10  C   UNL     1      30.845 -25.103 -13.937  0.00  0.00    +0.100 C 
ENDBRANCH   2   6
BRANCH   3  11
ATOM     11  C   UNL     1      36.283 -22.914 -15.103  0.00  0.00    +0.099 C 
BRANCH  11  12
ATOM     12  C   UNL     1      36.885 -23.914 -14.131  0.00  0.00    -0.014 C 
ATOM     13  C   UNL     1      37.006 -25.234 -14.517  0.00  0.00    -0.004 C 
ATOM     14  C   UNL     1      37.296 -23.474 -12.888  0.00  0.00    -0.004 C 
ATOM     15  C   UNL     1      37.559 -26.152 -13.624  0.00  0.00    -0.000 C 
ATOM     16  C   UNL     1      37.850 -24.393 -11.995  0.00  0.00    -0.000 C 
ATOM     17  C   UNL     1      37.981 -25.731 -12.364  0.00  0.00    -0.000 C 
ENDBRANCH  11  12
BRANCH  11  18
ATOM     18  C   UNL     1      37.163 -22.691 -16.350  0.00  0.00    +0.013 C 
ATOM     19  C   UNL     1      37.203 -21.236 -16.800  0.00  0.00    +0.001 C 
ENDBRANCH  11  18
ENDBRANCH   3  11
TORSDOF 4
ENDMDL
