MODEL 1
REMARK VINA RESULT:      -9.5      0.000      0.000
REMARK  Name = 6013
REMARK  1 active torsions:
REMARK  status: ('A' for Active; 'I' for Inactive)
REMARK    1  A    between atoms: C_9  and  O_21
REMARK                            x       y       z     vdW  Elec       q    Type
REMARK                         _______ _______ _______ _____ _____    ______ ____
ROOT
ATOM      1  O   UNL     1      33.831 -18.919 -21.585  0.00  0.00    -0.291 OA
ATOM      2  C   UNL     1      35.857 -22.814 -15.333  0.00  0.00    +0.002 C 
ATOM      3  C   UNL     1      34.842 -23.832 -14.779  0.00  0.00    +0.025 C 
ATOM      4  C   UNL     1      35.818 -22.713 -16.861  0.00  0.00    +0.001 C 
ATOM      5  C   UNL     1      34.387 -22.268 -17.299  0.00  0.00    +0.003 C 
ATOM      6  C   UNL     1      34.253 -22.090 -18.860  0.00  0.00    +0.016 C 
ATOM      7  C   UNL     1      33.434 -23.349 -15.149  0.00  0.00    +0.002 C 
ATOM      8  C   UNL     1      33.283 -23.163 -16.670  0.00  0.00    +0.000 C 
ATOM      9  C   UNL     1      35.183 -23.735 -13.279  0.00  0.00    +0.110 C 
ATOM     10  C   UNL     1      37.163 -23.202 -14.646  0.00  0.00    +0.003 C 
ATOM     11  C   UNL     1      36.862 -21.717 -17.383  0.00  0.00    +0.004 C 
ATOM     12  C   UNL     1      36.724 -23.678 -13.249  0.00  0.00    +0.029 C 
ATOM     13  C   UNL     1      35.411 -21.230 -19.381  0.00  0.00    -0.042 C 
ATOM     14  C   UNL     1      36.797 -21.595 -18.899  0.00  0.00    +0.022 C 
ATOM     15  C   UNL     1      35.042 -25.284 -15.284  0.00  0.00    +0.002 C 
ATOM     16  C   UNL     1      32.895 -21.390 -19.158  0.00  0.00    +0.012 C 
ATOM     17  C   UNL     1      34.289 -23.446 -19.602  0.00  0.00    +0.004 C 
ATOM     18  C   UNL     1      32.797 -20.823 -20.565  0.00  0.00    +0.069 C 
ATOM     19  C   UNL     1      35.262 -20.208 -20.240  0.00  0.00    +0.029 C 
ATOM     20  C   UNL     1      33.944 -19.887 -20.835  0.00  0.00    +0.173 C 
ENDROOT
BRANCH   9  21
ATOM     21  O   UNL     1      34.684 -24.824 -12.527  0.00  0.00    -0.384 OA
ATOM     22  H   UNL     1      34.055 -25.328 -13.068  0.00  0.00    +0.210 HD
ENDBRANCH   9  21
TORSDOF 1
ENDMDL
MODEL 2
REMARK VINA RESULT:      -8.0     14.385     18.752
REMARK  Name = 6013
REMARK  1 active torsions:
REMARK  status: ('A' for Active; 'I' for Inactive)
REMARK    1  A    between atoms: C_9  and  O_21
REMARK                            x       y       z     vdW  Elec       q    Type
REMARK                         _______ _______ _______ _____ _____    ______ ____
ROOT
ATOM      1  O   UNL     1      32.807 -11.810 -22.942  0.00  0.00    -0.291 OA
ATOM      2  C   UNL     1      32.826  -4.792 -25.958  0.00  0.00    +0.002 C 
ATOM      3  C   UNL     1      31.709  -3.830 -25.509  0.00  0.00    +0.025 C 
ATOM      4  C   UNL     1      33.271  -5.742 -24.841  0.00  0.00    +0.001 C 
ATOM      5  C   UNL     1      32.044  -6.593 -24.387  0.00  0.00    +0.003 C 
ATOM      6  C   UNL     1      32.408  -7.639 -23.265  0.00  0.00    +0.016 C 
ATOM      7  C   UNL     1      30.481  -4.670 -25.134  0.00  0.00    +0.002 C 
ATOM      8  C   UNL     1      30.816  -5.703 -24.044  0.00  0.00    +0.000 C 
ATOM      9  C   UNL     1      31.554  -3.004 -26.801  0.00  0.00    +0.110 C 
ATOM     10  C   UNL     1      33.854  -3.867 -26.603  0.00  0.00    +0.003 C 
ATOM     11  C   UNL     1      34.405  -6.662 -25.310  0.00  0.00    +0.004 C 
ATOM     12  C   UNL     1      33.005  -2.770 -27.270  0.00  0.00    +0.029 C 
ATOM     13  C   UNL     1      33.654  -8.430 -23.685  0.00  0.00    -0.042 C 
ATOM     14  C   UNL     1      34.822  -7.627 -24.208  0.00  0.00    +0.022 C 
ATOM     15  C   UNL     1      32.088  -2.907 -24.323  0.00  0.00    +0.002 C 
ATOM     16  C   UNL     1      31.201  -8.605 -23.087  0.00  0.00    +0.012 C 
ATOM     17  C   UNL     1      32.705  -6.956 -21.910  0.00  0.00    +0.004 C 
ATOM     18  C   UNL     1      31.542  -9.874 -22.321  0.00  0.00    +0.069 C 
ATOM     19  C   UNL     1      33.764  -9.765 -23.591  0.00  0.00    +0.029 C 
ATOM     20  C   UNL     1      32.696 -10.586 -22.973  0.00  0.00    +0.173 C 
ENDROOT
BRANCH   9  21
ATOM     21  O   UNL     1      30.866  -1.786 -26.599  0.00  0.00    -0.384 OA
ATOM     22  H   UNL     1      31.316  -1.077 -27.086  0.00  0.00    +0.210 HD
ENDBRANCH   9  21
TORSDOF 1
ENDMDL
MODEL 3
REMARK VINA RESULT:      -8.0      6.355      9.720
REMARK  Name = 6013
REMARK  1 active torsions:
REMARK  status: ('A' for Active; 'I' for Inactive)
REMARK    1  A    between atoms: C_9  and  O_21
REMARK                            x       y       z     vdW  Elec       q    Type
REMARK                         _______ _______ _______ _____ _____    ______ ____
ROOT
ATOM      1  O   UNL     1      34.292 -10.332 -25.874  0.00  0.00    -0.291 OA
ATOM      2  C   UNL     1      34.822 -17.460 -23.177  0.00  0.00    +0.002 C 
ATOM      3  C   UNL     1      34.646 -17.652 -21.659  0.00  0.00    +0.025 C 
ATOM      4  C   UNL     1      33.951 -16.328 -23.734  0.00  0.00    +0.001 C 
ATOM      5  C   UNL     1      34.344 -14.996 -23.021  0.00  0.00    +0.003 C 
ATOM      6  C   UNL     1      33.532 -13.754 -23.557  0.00  0.00    +0.016 C 
ATOM      7  C   UNL     1      35.104 -16.365 -20.961  0.00  0.00    +0.002 C 
ATOM      8  C   UNL     1      34.328 -15.139 -21.473  0.00  0.00    +0.000 C 
ATOM      9  C   UNL     1      35.576 -18.863 -21.451  0.00  0.00    +0.110 C 
ATOM     10  C   UNL     1      34.657 -18.870 -23.737  0.00  0.00    +0.003 C 
ATOM     11  C   UNL     1      34.124 -16.184 -25.251  0.00  0.00    +0.004 C 
ATOM     12  C   UNL     1      35.277 -19.776 -22.658  0.00  0.00    +0.029 C 
ATOM     13  C   UNL     1      33.578 -13.733 -25.090  0.00  0.00    -0.042 C 
ATOM     14  C   UNL     1      33.283 -15.037 -25.794  0.00  0.00    +0.022 C 
ATOM     15  C   UNL     1      33.203 -17.999 -21.214  0.00  0.00    +0.002 C 
ATOM     16  C   UNL     1      34.186 -12.461 -22.988  0.00  0.00    +0.012 C 
ATOM     17  C   UNL     1      32.051 -13.799 -23.119  0.00  0.00    +0.004 C 
ATOM     18  C   UNL     1      33.752 -11.192 -23.705  0.00  0.00    +0.069 C 
ATOM     19  C   UNL     1      33.837 -12.636 -25.820  0.00  0.00    +0.029 C 
ATOM     20  C   UNL     1      34.012 -11.310 -25.183  0.00  0.00    +0.173 C 
ENDROOT
BRANCH   9  21
ATOM     21  O   UNL     1      35.350 -19.529 -20.223  0.00  0.00    -0.384 OA
ATOM     22  H   UNL     1      35.936 -20.300 -20.162  0.00  0.00    +0.210 HD
ENDBRANCH   9  21
TORSDOF 1
ENDMDL
MODEL 4
REMARK VINA RESULT:      -7.9      3.099      4.725
REMARK  Name = 6013
REMARK  1 active torsions:
REMARK  status: ('A' for Active; 'I' for Inactive)
REMARK    1  A    between atoms: C_9  and  O_21
REMARK                            x       y       z     vdW  Elec       q    Type
REMARK                         _______ _______ _______ _____ _____    ______ ____
ROOT
ATOM      1  O   UNL     1      27.982 -21.913 -15.700  0.00  0.00    -0.291 OA
ATOM      2  C   UNL     1      35.512 -23.124 -15.256  0.00  0.00    +0.002 C 
ATOM      3  C   UNL     1      36.021 -23.961 -14.067  0.00  0.00    +0.025 C 
ATOM      4  C   UNL     1      34.137 -23.579 -15.753  0.00  0.00    +0.001 C 
ATOM      5  C   UNL     1      33.110 -23.447 -14.584  0.00  0.00    +0.003 C 
ATOM      6  C   UNL     1      31.646 -23.852 -15.008  0.00  0.00    +0.016 C 
ATOM      7  C   UNL     1      35.047 -23.768 -12.898  0.00  0.00    +0.002 C 
ATOM      8  C   UNL     1      33.610 -24.151 -13.292  0.00  0.00    +0.000 C 
ATOM      9  C   UNL     1      37.401 -23.306 -13.871  0.00  0.00    +0.110 C 
ATOM     10  C   UNL     1      36.692 -23.125 -16.224  0.00  0.00    +0.003 C 
ATOM     11  C   UNL     1      33.674 -22.748 -16.957  0.00  0.00    +0.004 C 
ATOM     12  C   UNL     1      37.928 -23.107 -15.306  0.00  0.00    +0.029 C 
ATOM     13  C   UNL     1      31.272 -23.136 -16.312  0.00  0.00    -0.042 C 
ATOM     14  C   UNL     1      32.292 -23.182 -17.427  0.00  0.00    +0.022 C 
ATOM     15  C   UNL     1      36.181 -25.474 -14.364  0.00  0.00    +0.002 C 
ATOM     16  C   UNL     1      30.673 -23.425 -13.871  0.00  0.00    +0.012 C 
ATOM     17  C   UNL     1      31.510 -25.374 -15.237  0.00  0.00    +0.004 C 
ATOM     18  C   UNL     1      29.212 -23.409 -14.292  0.00  0.00    +0.069 C 
ATOM     19  C   UNL     1      30.104 -22.506 -16.517  0.00  0.00    +0.029 C 
ATOM     20  C   UNL     1      29.024 -22.535 -15.503  0.00  0.00    +0.173 C 
ENDROOT
BRANCH   9  21
ATOM     21  O   UNL     1      38.283 -24.094 -13.094  0.00  0.00    -0.384 OA
ATOM     22  H   UNL     1      38.687 -24.774 -13.655  0.00  0.00    +0.210 HD
ENDBRANCH   9  21
TORSDOF 1
ENDMDL
MODEL 5
REMARK VINA RESULT:      -7.9     15.482     19.895
REMARK  Name = 6013
REMARK  1 active torsions:
REMARK  status: ('A' for Active; 'I' for Inactive)
REMARK    1  A    between atoms: C_9  and  O_21
REMARK                            x       y       z     vdW  Elec       q    Type
REMARK                         _______ _______ _______ _____ _____    ______ ____
ROOT
ATOM      1  O   UNL     1      32.463  -7.647 -19.518  0.00  0.00    -0.291 OA
ATOM      2  C   UNL     1      32.925  -3.455 -25.889  0.00  0.00    +0.002 C 
ATOM      3  C   UNL     1      33.562  -4.120 -27.124  0.00  0.00    +0.025 C 
ATOM      4  C   UNL     1      32.139  -4.446 -25.023  0.00  0.00    +0.001 C 
ATOM      5  C   UNL     1      33.112  -5.565 -24.532  0.00  0.00    +0.003 C 
ATOM      6  C   UNL     1      32.407  -6.617 -23.592  0.00  0.00    +0.016 C 
ATOM      7  C   UNL     1      34.570  -5.167 -26.633  0.00  0.00    +0.002 C 
ATOM      8  C   UNL     1      33.904  -6.201 -25.708  0.00  0.00    +0.000 C 
ATOM      9  C   UNL     1      34.192  -2.878 -27.781  0.00  0.00    +0.110 C 
ATOM     10  C   UNL     1      32.206  -2.241 -26.469  0.00  0.00    +0.003 C 
ATOM     11  C   UNL     1      31.491  -3.747 -23.822  0.00  0.00    +0.004 C 
ATOM     12  C   UNL     1      33.114  -1.786 -27.625  0.00  0.00    +0.029 C 
ATOM     13  C   UNL     1      31.621  -5.884 -22.498  0.00  0.00    -0.042 C 
ATOM     14  C   UNL     1      30.739  -4.741 -22.946  0.00  0.00    +0.022 C 
ATOM     15  C   UNL     1      32.551  -4.787 -28.092  0.00  0.00    +0.002 C 
ATOM     16  C   UNL     1      33.507  -7.511 -22.948  0.00  0.00    +0.012 C 
ATOM     17  C   UNL     1      31.422  -7.520 -24.370  0.00  0.00    +0.004 C 
ATOM     18  C   UNL     1      33.019  -8.311 -21.751  0.00  0.00    +0.069 C 
ATOM     19  C   UNL     1      31.659  -6.212 -21.196  0.00  0.00    +0.029 C 
ATOM     20  C   UNL     1      32.411  -7.397 -20.721  0.00  0.00    +0.173 C 
ENDROOT
BRANCH   9  21
ATOM     21  O   UNL     1      34.536  -3.084 -29.137  0.00  0.00    -0.384 OA
ATOM     22  H   UNL     1      35.443  -3.424 -29.191  0.00  0.00    +0.210 HD
ENDBRANCH   9  21
TORSDOF 1
ENDMDL
MODEL 6
REMARK VINA RESULT:      -7.6      9.458     13.869
REMARK  Name = 6013
REMARK  1 active torsions:
REMARK  status: ('A' for Active; 'I' for Inactive)
REMARK    1  A    between atoms: C_9  and  O_21
REMARK                            x       y       z     vdW  Elec       q    Type
REMARK                         _______ _______ _______ _____ _____    ______ ____
ROOT
ATOM      1  O   UNL     1      34.315 -16.490 -21.093  0.00  0.00    -0.291 OA
ATOM      2  C   UNL     1      32.633  -9.082 -21.903  0.00  0.00    +0.002 C 
ATOM      3  C   UNL     1      32.862  -8.457 -23.292  0.00  0.00    +0.025 C 
ATOM      4  C   UNL     1      32.186 -10.546 -21.981  0.00  0.00    +0.001 C 
ATOM      5  C   UNL     1      33.291 -11.370 -22.715  0.00  0.00    +0.003 C 
ATOM      6  C   UNL     1      32.946 -12.906 -22.808  0.00  0.00    +0.016 C 
ATOM      7  C   UNL     1      33.998  -9.225 -23.978  0.00  0.00    +0.002 C 
ATOM      8  C   UNL     1      33.685 -10.729 -24.074  0.00  0.00    +0.000 C 
ATOM      9  C   UNL     1      33.221  -7.021 -22.865  0.00  0.00    +0.110 C 
ATOM     10  C   UNL     1      31.738  -8.067 -21.198  0.00  0.00    +0.003 C 
ATOM     11  C   UNL     1      31.935 -11.129 -20.584  0.00  0.00    +0.004 C 
ATOM     12  C   UNL     1      32.221  -6.707 -21.733  0.00  0.00    +0.029 C 
ATOM     13  C   UNL     1      32.530 -13.425 -21.425  0.00  0.00    -0.042 C 
ATOM     14  C   UNL     1      31.523 -12.592 -20.664  0.00  0.00    +0.022 C 
ATOM     15  C   UNL     1      31.613  -8.449 -24.211  0.00  0.00    +0.002 C 
ATOM     16  C   UNL     1      34.214 -13.663 -23.299  0.00  0.00    +0.012 C 
ATOM     17  C   UNL     1      31.787 -13.180 -23.794  0.00  0.00    +0.004 C 
ATOM     18  C   UNL     1      34.151 -15.166 -23.082  0.00  0.00    +0.069 C 
ATOM     19  C   UNL     1      32.986 -14.564 -20.881  0.00  0.00    +0.029 C 
ATOM     20  C   UNL     1      33.878 -15.476 -21.634  0.00  0.00    +0.173 C 
ENDROOT
BRANCH   9  21
ATOM     21  O   UNL     1      33.123  -6.088 -23.923  0.00  0.00    -0.384 OA
ATOM     22  H   UNL     1      32.379  -6.328 -24.497  0.00  0.00    +0.210 HD
ENDBRANCH   9  21
TORSDOF 1
ENDMDL
MODEL 7
REMARK VINA RESULT:      -7.1     10.844     14.551
REMARK  Name = 6013
REMARK  1 active torsions:
REMARK  status: ('A' for Active; 'I' for Inactive)
REMARK    1  A    between atoms: C_9  and  O_21
REMARK                            x       y       z     vdW  Elec       q    Type
REMARK                         _______ _______ _______ _____ _____    ______ ____
ROOT
ATOM      1  O   UNL     1      30.525  -4.417 -22.747  0.00  0.00    -0.291 OA
ATOM      2  C   UNL     1      32.163 -11.867 -22.327  0.00  0.00    +0.002 C 
ATOM      3  C   UNL     1      33.058 -12.454 -23.435  0.00  0.00    +0.025 C 
ATOM      4  C   UNL     1      32.528 -10.421 -21.976  0.00  0.00    +0.001 C 
ATOM      5  C   UNL     1      32.370  -9.539 -23.255  0.00  0.00    +0.003 C 
ATOM      6  C   UNL     1      32.682  -8.015 -22.989  0.00  0.00    +0.016 C 
ATOM      7  C   UNL     1      32.842 -11.627 -24.709  0.00  0.00    +0.002 C 
ATOM      8  C   UNL     1      33.135 -10.135 -24.470  0.00  0.00    +0.000 C 
ATOM      9  C   UNL     1      32.486 -13.883 -23.489  0.00  0.00    +0.110 C 
ATOM     10  C   UNL     1      32.204 -12.931 -21.234  0.00  0.00    +0.003 C 
ATOM     11  C   UNL     1      31.642  -9.878 -20.849  0.00  0.00    +0.004 C 
ATOM     12  C   UNL     1      32.279 -14.260 -22.008  0.00  0.00    +0.029 C 
ATOM     13  C   UNL     1      31.912  -7.543 -21.749  0.00  0.00    -0.042 C 
ATOM     14  C   UNL     1      31.986  -8.430 -20.527  0.00  0.00    +0.022 C 
ATOM     15  C   UNL     1      34.569 -12.492 -23.092  0.00  0.00    +0.002 C 
ATOM     16  C   UNL     1      32.232  -7.200 -24.236  0.00  0.00    +0.012 C 
ATOM     17  C   UNL     1      34.188  -7.767 -22.746  0.00  0.00    +0.004 C 
ATOM     18  C   UNL     1      32.124  -5.704 -23.980  0.00  0.00    +0.069 C 
ATOM     19  C   UNL     1      31.214  -6.397 -21.688  0.00  0.00    +0.029 C 
ATOM     20  C   UNL     1      31.210  -5.436 -22.815  0.00  0.00    +0.173 C 
ENDROOT
BRANCH   9  21
ATOM     21  O   UNL     1      33.341 -14.797 -24.147  0.00  0.00    -0.384 OA
ATOM     22  H   UNL     1      32.846 -15.603 -24.365  0.00  0.00    +0.210 HD
ENDBRANCH   9  21
TORSDOF 1
ENDMDL
MODEL 8
REMARK VINA RESULT:      -7.1      3.511      5.294
REMARK  Name = 6013
REMARK  1 active torsions:
REMARK  status: ('A' for Active; 'I' for Inactive)
REMARK    1  A    between atoms: C_9  and  O_21
REMARK                            x       y       z     vdW  Elec       q    Type
REMARK                         _______ _______ _______ _____ _____    ______ ____
ROOT
ATOM      1  O   UNL     1      27.874 -24.358 -16.415  0.00  0.00    -0.291 OA
ATOM      2  C   UNL     1      35.266 -24.884 -14.555  0.00  0.00    +0.002 C 
ATOM      3  C   UNL     1      36.201 -23.773 -15.070  0.00  0.00    +0.025 C 
ATOM      4  C   UNL     1      33.862 -24.366 -14.223  0.00  0.00    +0.001 C 
ATOM      5  C   UNL     1      33.234 -23.754 -15.515  0.00  0.00    +0.003 C 
ATOM      6  C   UNL     1      31.763 -23.230 -15.290  0.00  0.00    +0.016 C 
ATOM      7  C   UNL     1      35.615 -23.227 -16.379  0.00  0.00    +0.002 C 
ATOM      8  C   UNL     1      34.177 -22.716 -16.183  0.00  0.00    +0.000 C 
ATOM      9  C   UNL     1      37.495 -24.592 -15.236  0.00  0.00    +0.110 C 
ATOM     10  C   UNL     1      36.086 -25.563 -13.463  0.00  0.00    +0.003 C 
ATOM     11  C   UNL     1      32.967 -25.488 -13.682  0.00  0.00    +0.004 C 
ATOM     12  C   UNL     1      37.534 -25.488 -13.982  0.00  0.00    +0.029 C 
ATOM     13  C   UNL     1      30.933 -24.313 -14.588  0.00  0.00    -0.042 C 
ATOM     14  C   UNL     1      31.563 -24.977 -13.385  0.00  0.00    +0.022 C 
ATOM     15  C   UNL     1      36.427 -22.606 -14.076  0.00  0.00    +0.002 C 
ATOM     16  C   UNL     1      31.143 -22.902 -16.679  0.00  0.00    +0.012 C 
ATOM     17  C   UNL     1      31.731 -21.956 -14.414  0.00  0.00    +0.004 C 
ATOM     18  C   UNL     1      29.631 -22.747 -16.651  0.00  0.00    +0.069 C 
ATOM     19  C   UNL     1      29.697 -24.676 -14.967  0.00  0.00    +0.029 C 
ATOM     20  C   UNL     1      28.988 -23.975 -16.062  0.00  0.00    +0.173 C 
ENDROOT
BRANCH   9  21
ATOM     21  O   UNL     1      38.652 -23.785 -15.339  0.00  0.00    -0.384 OA
ATOM     22  H   UNL     1      38.840 -23.608 -16.274  0.00  0.00    +0.210 HD
ENDBRANCH   9  21
TORSDOF 1
ENDMDL
MODEL 9
REMARK VINA RESULT:      -6.7      3.284      6.444
REMARK  Name = 6013
REMARK  1 active torsions:
REMARK  status: ('A' for Active; 'I' for Inactive)
REMARK    1  A    between atoms: C_9  and  O_21
REMARK                            x       y       z     vdW  Elec       q    Type
REMARK                         _______ _______ _______ _____ _____    ______ ____
ROOT
ATOM      1  O   UNL     1      39.627 -24.042 -12.851  0.00  0.00    -0.291 OA
ATOM      2  C   UNL     1      32.212 -23.187 -14.480  0.00  0.00    +0.002 C 
ATOM      3  C   UNL     1      31.792 -23.354 -15.952  0.00  0.00    +0.025 C 
ATOM      4  C   UNL     1      33.373 -24.108 -14.089  0.00  0.00    +0.001 C 
ATOM      5  C   UNL     1      34.603 -23.777 -14.992  0.00  0.00    +0.003 C 
ATOM      6  C   UNL     1      35.872 -24.645 -14.637  0.00  0.00    +0.016 C 
ATOM      7  C   UNL     1      32.982 -22.957 -16.835  0.00  0.00    +0.002 C 
ATOM      8  C   UNL     1      34.234 -23.788 -16.501  0.00  0.00    +0.000 C 
ATOM      9  C   UNL     1      30.606 -22.371 -15.988  0.00  0.00    +0.110 C 
ATOM     10  C   UNL     1      30.894 -23.287 -13.719  0.00  0.00    +0.003 C 
ATOM     11  C   UNL     1      33.745 -23.942 -12.610  0.00  0.00    +0.004 C 
ATOM     12  C   UNL     1      29.868 -22.627 -14.658  0.00  0.00    +0.029 C 
ATOM     13  C   UNL     1      36.119 -24.600 -13.124  0.00  0.00    -0.042 C 
ATOM     14  C   UNL     1      34.920 -24.834 -12.234  0.00  0.00    +0.022 C 
ATOM     15  C   UNL     1      31.319 -24.781 -16.331  0.00  0.00    +0.002 C 
ATOM     16  C   UNL     1      37.096 -24.052 -15.394  0.00  0.00    +0.012 C 
ATOM     17  C   UNL     1      35.696 -26.123 -15.053  0.00  0.00    +0.004 C 
ATOM     18  C   UNL     1      38.435 -24.543 -14.867  0.00  0.00    +0.069 C 
ATOM     19  C   UNL     1      37.322 -24.391 -12.564  0.00  0.00    +0.029 C 
ATOM     20  C   UNL     1      38.547 -24.277 -13.389  0.00  0.00    +0.173 C 
ENDROOT
BRANCH   9  21
ATOM     21  O   UNL     1      29.759 -22.566 -17.103  0.00  0.00    -0.384 OA
ATOM     22  H   UNL     1      28.880 -22.842 -16.797  0.00  0.00    +0.210 HD
ENDBRANCH   9  21
TORSDOF 1
ENDMDL
