MODEL 1
REMARK VINA RESULT:     -12.5      0.000      0.000
REMARK  Name = 24941248
REMARK  7 active torsions:
REMARK  status: ('A' for Active; 'I' for Inactive)
REMARK    1  A    between atoms: N_2  and  C_24
REMARK    2  A    between atoms: C_6  and  C_14
REMARK    3  A    between atoms: C_13  and  C_19
REMARK    4  A    between atoms: C_19  and  C_20
REMARK    5  A    between atoms: C_20  and  C_21
REMARK    6  A    between atoms: C_21  and  O_22
REMARK    7  A    between atoms: C_24  and  C_26
REMARK                            x       y       z     vdW  Elec       q    Type
REMARK                         _______ _______ _______ _____ _____    ______ ____
ROOT
ATOM      1  O   UNL     1      33.350 -15.487 -26.494  0.00  0.00    -0.352 OA
ATOM      2  N   UNL     1      35.431 -17.623 -21.957  0.00  0.00    -0.316 N 
ATOM      3  N   UNL     1      33.010 -14.196 -26.106  0.00  0.00    -0.077 NA
ATOM      4  N   UNL     1      34.865 -17.924 -24.251  0.00  0.00    -0.226 NA
ATOM      5  C   UNL     1      33.921 -15.309 -24.334  0.00  0.00    +0.062 A 
ATOM      6  C   UNL     1      33.358 -14.111 -24.818  0.00  0.00    +0.123 A 
ATOM      7  C   UNL     1      34.896 -17.107 -23.166  0.00  0.00    +0.129 C 
ATOM      8  C   UNL     1      34.443 -15.791 -23.133  0.00  0.00    +0.039 C 
ATOM      9  C   UNL     1      33.891 -16.146 -25.436  0.00  0.00    +0.196 A 
ATOM     10  C   UNL     1      34.356 -17.447 -25.413  0.00  0.00    +0.140 C 
ATOM     11  H   UNL     1      35.460 -17.039 -21.165  0.00  0.00    +0.148 HD
ENDROOT
BRANCH   6  14
ATOM     12 CL   UNL     1      34.510  -9.131 -24.148  0.00  0.00    -0.082 Cl
ATOM     13  C   UNL     1      32.023 -11.678 -22.323  0.00  0.00    -0.021 C 
ATOM     14  C   UNL     1      33.144 -12.890 -24.086  0.00  0.00    +0.021 C 
ATOM     15  C   UNL     1      32.232 -12.861 -23.032  0.00  0.00    -0.003 C 
ATOM     16  C   UNL     1      32.728 -10.524 -22.669  0.00  0.00    +0.007 C 
ATOM     17  C   UNL     1      33.849 -11.737 -24.432  0.00  0.00    +0.013 C 
ATOM     18  C   UNL     1      33.640 -10.554 -23.723  0.00  0.00    +0.057 C 
BRANCH  13  19
ATOM     19  C   UNL     1      31.047 -11.645 -21.196  0.00  0.00    +0.029 C 
BRANCH  19  20
ATOM     20  C   UNL     1      31.740 -11.591 -19.828  0.00  0.00    +0.036 C 
BRANCH  20  21
ATOM     21  C   UNL     1      31.445 -10.296 -19.086  0.00  0.00    +0.138 C 
BRANCH  21  22
ATOM     22  O   UNL     1      32.607  -9.477 -19.111  0.00  0.00    -0.382 OA
ATOM     23  H   UNL     1      33.245  -9.843 -19.743  0.00  0.00    +0.210 HD
ENDBRANCH  21  22
ENDBRANCH  20  21
ENDBRANCH  19  20
ENDBRANCH  13  19
ENDBRANCH   6  14
BRANCH   2  24
ATOM     24  C   UNL     1      35.930 -18.954 -21.844  0.00  0.00    +0.093 C 
ATOM     25  C   UNL     1      37.357 -18.918 -21.302  0.00  0.00    +0.026 C 
BRANCH  24  26
ATOM     26  C   UNL     1      34.997 -19.792 -20.997  0.00  0.00    -0.005 C 
ATOM     27  C   UNL     1      33.625 -19.545 -21.018  0.00  0.00    -0.003 C 
ATOM     28  C   UNL     1      35.510 -20.811 -20.194  0.00  0.00    -0.003 C 
ATOM     29  C   UNL     1      32.764 -20.317 -20.236  0.00  0.00    -0.000 C 
ATOM     30  C   UNL     1      34.650 -21.583 -19.413  0.00  0.00    -0.000 C 
ATOM     31  C   UNL     1      33.277 -21.337 -19.435  0.00  0.00    -0.000 C 
ENDBRANCH  24  26
ENDBRANCH   2  24
TORSDOF 7
ENDMDL
MODEL 2
REMARK VINA RESULT:     -11.9      1.628      2.604
REMARK  Name = 24941248
REMARK  7 active torsions:
REMARK  status: ('A' for Active; 'I' for Inactive)
REMARK    1  A    between atoms: N_2  and  C_24
REMARK    2  A    between atoms: C_6  and  C_14
REMARK    3  A    between atoms: C_13  and  C_19
REMARK    4  A    between atoms: C_19  and  C_20
REMARK    5  A    between atoms: C_20  and  C_21
REMARK    6  A    between atoms: C_21  and  O_22
REMARK    7  A    between atoms: C_24  and  C_26
REMARK                            x       y       z     vdW  Elec       q    Type
REMARK                         _______ _______ _______ _____ _____    ______ ____
ROOT
ATOM      1  O   UNL     1      33.360 -15.620 -26.521  0.00  0.00    -0.352 OA
ATOM      2  N   UNL     1      35.462 -17.650 -21.945  0.00  0.00    -0.316 N 
ATOM      3  N   UNL     1      33.045 -14.314 -26.169  0.00  0.00    -0.077 NA
ATOM      4  N   UNL     1      34.865 -18.011 -24.221  0.00  0.00    -0.226 NA
ATOM      5  C   UNL     1      33.959 -15.386 -24.374  0.00  0.00    +0.062 A 
ATOM      6  C   UNL     1      33.408 -14.195 -24.888  0.00  0.00    +0.123 A 
ATOM      7  C   UNL     1      34.921 -17.162 -23.163  0.00  0.00    +0.129 C 
ATOM      8  C   UNL     1      34.488 -15.839 -23.164  0.00  0.00    +0.039 C 
ATOM      9  C   UNL     1      33.905 -16.255 -25.449  0.00  0.00    +0.196 A 
ATOM     10  C   UNL     1      34.350 -17.562 -25.392  0.00  0.00    +0.140 C 
ATOM     11  H   UNL     1      35.509 -17.042 -21.170  0.00  0.00    +0.148 HD
ENDROOT
BRANCH   6  14
ATOM     12 CL   UNL     1      31.003 -11.564 -21.163  0.00  0.00    -0.082 Cl
ATOM     13  C   UNL     1      33.769 -10.616 -23.893  0.00  0.00    -0.021 C 
ATOM     14  C   UNL     1      33.221 -12.949 -24.191  0.00  0.00    +0.021 C 
ATOM     15  C   UNL     1      33.950 -11.823 -24.568  0.00  0.00    -0.003 C 
ATOM     16  C   UNL     1      32.858 -10.536 -22.839  0.00  0.00    +0.007 C 
ATOM     17  C   UNL     1      32.309 -12.870 -23.138  0.00  0.00    +0.013 C 
ATOM     18  C   UNL     1      32.128 -11.663 -22.462  0.00  0.00    +0.057 C 
BRANCH  13  19
ATOM     19  C   UNL     1      34.551  -9.411 -24.295  0.00  0.00    +0.029 C 
BRANCH  19  20
ATOM     20  C   UNL     1      34.364  -8.244 -23.317  0.00  0.00    +0.036 C 
BRANCH  20  21
ATOM     21  C   UNL     1      33.707  -7.041 -23.978  0.00  0.00    +0.138 C 
BRANCH  21  22
ATOM     22  O   UNL     1      32.381  -6.912 -23.482  0.00  0.00    -0.382 OA
ATOM     23  H   UNL     1      32.399  -6.449 -22.630  0.00  0.00    +0.210 HD
ENDBRANCH  21  22
ENDBRANCH  20  21
ENDBRANCH  19  20
ENDBRANCH  13  19
ENDBRANCH   6  14
BRANCH   2  24
ATOM     24  C   UNL     1      35.943 -18.984 -21.796  0.00  0.00    +0.093 C 
ATOM     25  C   UNL     1      37.353 -18.955 -21.212  0.00  0.00    +0.026 C 
BRANCH  24  26
ATOM     26  C   UNL     1      34.975 -19.798 -20.965  0.00  0.00    -0.005 C 
ATOM     27  C   UNL     1      35.443 -20.860 -20.192  0.00  0.00    -0.003 C 
ATOM     28  C   UNL     1      33.615 -19.486 -20.972  0.00  0.00    -0.003 C 
ATOM     29  C   UNL     1      34.551 -21.612 -19.426  0.00  0.00    -0.000 C 
ATOM     30  C   UNL     1      32.724 -20.237 -20.207  0.00  0.00    -0.000 C 
ATOM     31  C   UNL     1      33.191 -21.299 -19.433  0.00  0.00    -0.000 C 
ENDBRANCH  24  26
ENDBRANCH   2  24
TORSDOF 7
ENDMDL
MODEL 3
REMARK VINA RESULT:     -10.0      3.154      8.519
REMARK  Name = 24941248
REMARK  7 active torsions:
REMARK  status: ('A' for Active; 'I' for Inactive)
REMARK    1  A    between atoms: N_2  and  C_24
REMARK    2  A    between atoms: C_6  and  C_14
REMARK    3  A    between atoms: C_13  and  C_19
REMARK    4  A    between atoms: C_19  and  C_20
REMARK    5  A    between atoms: C_20  and  C_21
REMARK    6  A    between atoms: C_21  and  O_22
REMARK    7  A    between atoms: C_24  and  C_26
REMARK                            x       y       z     vdW  Elec       q    Type
REMARK                         _______ _______ _______ _____ _____    ______ ____
ROOT
ATOM      1  O   UNL     1      33.758 -16.497 -26.271  0.00  0.00    -0.352 OA
ATOM      2  N   UNL     1      32.543 -12.710 -22.575  0.00  0.00    -0.316 N 
ATOM      3  N   UNL     1      34.349 -17.499 -25.511  0.00  0.00    -0.077 NA
ATOM      4  N   UNL     1      32.506 -13.381 -24.859  0.00  0.00    -0.226 NA
ATOM      5  C   UNL     1      33.743 -15.769 -24.151  0.00  0.00    +0.062 A 
ATOM      6  C   UNL     1      34.331 -17.046 -24.253  0.00  0.00    +0.123 A 
ATOM      7  C   UNL     1      32.842 -13.671 -23.575  0.00  0.00    +0.129 C 
ATOM      8  C   UNL     1      33.460 -14.842 -23.147  0.00  0.00    +0.039 C 
ATOM      9  C   UNL     1      33.399 -15.468 -25.457  0.00  0.00    +0.196 A 
ATOM     10  C   UNL     1      32.784 -14.288 -25.827  0.00  0.00    +0.140 C 
ATOM     11  H   UNL     1      32.781 -12.910 -21.640  0.00  0.00    +0.148 HD
ENDROOT
BRANCH   6  14
ATOM     12 CL   UNL     1      38.480 -18.749 -21.712  0.00  0.00    -0.082 Cl
ATOM     13  C   UNL     1      34.543 -19.331 -21.310  0.00  0.00    -0.021 C 
ATOM     14  C   UNL     1      34.873 -17.844 -23.185  0.00  0.00    +0.021 C 
ATOM     15  C   UNL     1      34.018 -18.559 -22.345  0.00  0.00    -0.003 C 
ATOM     16  C   UNL     1      35.924 -19.390 -21.114  0.00  0.00    +0.007 C 
ATOM     17  C   UNL     1      36.253 -17.903 -22.989  0.00  0.00    +0.013 C 
ATOM     18  C   UNL     1      36.778 -18.676 -21.953  0.00  0.00    +0.057 C 
BRANCH  13  19
ATOM     19  C   UNL     1      33.630 -20.094 -20.411  0.00  0.00    +0.029 C 
BRANCH  19  20
ATOM     20  C   UNL     1      34.355 -21.224 -19.668  0.00  0.00    +0.036 C 
BRANCH  20  21
ATOM     21  C   UNL     1      33.392 -22.110 -18.891  0.00  0.00    +0.138 C 
BRANCH  21  22
ATOM     22  O   UNL     1      33.765 -23.469 -19.078  0.00  0.00    -0.382 OA
ATOM     23  H   UNL     1      34.707 -23.576 -18.873  0.00  0.00    +0.210 HD
ENDBRANCH  21  22
ENDBRANCH  20  21
ENDBRANCH  19  20
ENDBRANCH  13  19
ENDBRANCH   6  14
BRANCH   2  24
ATOM     24  C   UNL     1      31.913 -11.465 -22.868  0.00  0.00    +0.093 C 
ATOM     25  C   UNL     1      31.035 -11.050 -21.689  0.00  0.00    +0.026 C 
BRANCH  24  26
ATOM     26  C   UNL     1      32.951 -10.425 -23.227  0.00  0.00    -0.005 C 
ATOM     27  C   UNL     1      32.866  -9.141 -22.692  0.00  0.00    -0.003 C 
ATOM     28  C   UNL     1      33.994 -10.751 -24.095  0.00  0.00    -0.003 C 
ATOM     29  C   UNL     1      33.823  -8.180 -23.025  0.00  0.00    -0.000 C 
ATOM     30  C   UNL     1      34.950  -9.792 -24.427  0.00  0.00    -0.000 C 
ATOM     31  C   UNL     1      34.865  -8.507 -23.891  0.00  0.00    -0.000 C 
ENDBRANCH  24  26
ENDBRANCH   2  24
TORSDOF 7
ENDMDL
MODEL 4
REMARK VINA RESULT:      -9.9      7.759     12.993
REMARK  Name = 24941248
REMARK  7 active torsions:
REMARK  status: ('A' for Active; 'I' for Inactive)
REMARK    1  A    between atoms: N_2  and  C_24
REMARK    2  A    between atoms: C_6  and  C_14
REMARK    3  A    between atoms: C_13  and  C_19
REMARK    4  A    between atoms: C_19  and  C_20
REMARK    5  A    between atoms: C_20  and  C_21
REMARK    6  A    between atoms: C_21  and  O_22
REMARK    7  A    between atoms: C_24  and  C_26
REMARK                            x       y       z     vdW  Elec       q    Type
REMARK                         _______ _______ _______ _____ _____    ______ ____
ROOT
ATOM      1  O   UNL     1      31.582 -24.237 -14.667  0.00  0.00    -0.352 OA
ATOM      2  N   UNL     1      34.474 -22.012 -18.687  0.00  0.00    -0.316 N 
ATOM      3  N   UNL     1      32.555 -24.604 -13.746  0.00  0.00    -0.077 NA
ATOM      4  N   UNL     1      32.331 -22.614 -17.841  0.00  0.00    -0.226 NA
ATOM      5  C   UNL     1      33.548 -23.630 -15.555  0.00  0.00    +0.062 A 
ATOM      6  C   UNL     1      33.717 -24.235 -14.294  0.00  0.00    +0.123 A 
ATOM      7  C   UNL     1      33.677 -22.585 -17.662  0.00  0.00    +0.129 C 
ATOM      8  C   UNL     1      34.355 -23.072 -16.548  0.00  0.00    +0.039 C 
ATOM      9  C   UNL     1      32.177 -23.658 -15.743  0.00  0.00    +0.196 A 
ATOM     10  C   UNL     1      31.555 -23.157 -16.872  0.00  0.00    +0.140 C 
ATOM     11  H   UNL     1      35.452 -21.984 -18.568  0.00  0.00    +0.148 HD
ENDROOT
BRANCH   6  14
ATOM     12 CL   UNL     1      36.619 -23.448 -10.106  0.00  0.00    -0.082 Cl
ATOM     13  C   UNL     1      37.148 -25.479 -13.511  0.00  0.00    -0.021 C 
ATOM     14  C   UNL     1      34.956 -24.468 -13.598  0.00  0.00    +0.021 C 
ATOM     15  C   UNL     1      35.948 -25.252 -14.185  0.00  0.00    -0.003 C 
ATOM     16  C   UNL     1      37.355 -24.921 -12.249  0.00  0.00    +0.007 C 
ATOM     17  C   UNL     1      35.163 -23.910 -12.336  0.00  0.00    +0.013 C 
ATOM     18  C   UNL     1      36.363 -24.137 -11.662  0.00  0.00    +0.057 C 
BRANCH  13  19
ATOM     19  C   UNL     1      38.209 -26.319 -14.138  0.00  0.00    +0.029 C 
BRANCH  19  20
ATOM     20  C   UNL     1      39.617 -25.772 -13.871  0.00  0.00    +0.036 C 
BRANCH  20  21
ATOM     21  C   UNL     1      40.188 -25.044 -15.079  0.00  0.00    +0.138 C 
BRANCH  21  22
ATOM     22  O   UNL     1      40.558 -26.003 -16.061  0.00  0.00    -0.382 OA
ATOM     23  H   UNL     1      41.517 -26.139 -16.033  0.00  0.00    +0.210 HD
ENDBRANCH  21  22
ENDBRANCH  20  21
ENDBRANCH  19  20
ENDBRANCH  13  19
ENDBRANCH   6  14
BRANCH   2  24
ATOM     24  C   UNL     1      33.917 -21.475 -19.885  0.00  0.00    +0.093 C 
ATOM     25  C   UNL     1      32.546 -20.875 -19.583  0.00  0.00    +0.026 C 
BRANCH  24  26
ATOM     26  C   UNL     1      34.874 -20.482 -20.507  0.00  0.00    -0.005 C 
ATOM     27  C   UNL     1      34.413 -19.570 -21.455  0.00  0.00    -0.003 C 
ATOM     28  C   UNL     1      36.218 -20.478 -20.132  0.00  0.00    -0.003 C 
ATOM     29  C   UNL     1      35.295 -18.654 -22.031  0.00  0.00    -0.000 C 
ATOM     30  C   UNL     1      37.100 -19.564 -20.706  0.00  0.00    -0.000 C 
ATOM     31  C   UNL     1      36.638 -18.651 -21.655  0.00  0.00    -0.000 C 
ENDBRANCH  24  26
ENDBRANCH   2  24
TORSDOF 7
ENDMDL
MODEL 5
REMARK VINA RESULT:      -9.8      3.798      9.765
REMARK  Name = 24941248
REMARK  7 active torsions:
REMARK  status: ('A' for Active; 'I' for Inactive)
REMARK    1  A    between atoms: N_2  and  C_24
REMARK    2  A    between atoms: C_6  and  C_14
REMARK    3  A    between atoms: C_13  and  C_19
REMARK    4  A    between atoms: C_19  and  C_20
REMARK    5  A    between atoms: C_20  and  C_21
REMARK    6  A    between atoms: C_21  and  O_22
REMARK    7  A    between atoms: C_24  and  C_26
REMARK                            x       y       z     vdW  Elec       q    Type
REMARK                         _______ _______ _______ _____ _____    ______ ____
ROOT
ATOM      1  O   UNL     1      31.983 -13.438 -20.133  0.00  0.00    -0.352 OA
ATOM      2  N   UNL     1      32.132  -8.846 -23.027  0.00  0.00    -0.316 N 
ATOM      3  N   UNL     1      32.414 -14.396 -21.042  0.00  0.00    -0.077 NA
ATOM      4  N   UNL     1      31.664  -9.901 -20.944  0.00  0.00    -0.226 NA
ATOM      5  C   UNL     1      32.394 -12.347 -22.048  0.00  0.00    +0.062 A 
ATOM      6  C   UNL     1      32.653 -13.727 -22.174  0.00  0.00    +0.123 A 
ATOM      7  C   UNL     1      32.078 -10.021 -22.232  0.00  0.00    +0.129 C 
ATOM      8  C   UNL     1      32.457 -11.208 -22.851  0.00  0.00    +0.039 C 
ATOM      9  C   UNL     1      31.971 -12.219 -20.736  0.00  0.00    +0.196 A 
ATOM     10  C   UNL     1      31.606 -11.012 -20.171  0.00  0.00    +0.140 C 
ATOM     11  H   UNL     1      32.432  -8.921 -23.963  0.00  0.00    +0.148 HD
ENDROOT
BRANCH   6  14
ATOM     12 CL   UNL     1      33.099 -13.882 -27.308  0.00  0.00    -0.082 Cl
ATOM     13  C   UNL     1      34.248 -16.310 -24.345  0.00  0.00    -0.021 C 
ATOM     14  C   UNL     1      33.123 -14.422 -23.344  0.00  0.00    +0.021 C 
ATOM     15  C   UNL     1      33.792 -15.638 -23.211  0.00  0.00    -0.003 C 
ATOM     16  C   UNL     1      34.033 -15.767 -25.612  0.00  0.00    +0.007 C 
ATOM     17  C   UNL     1      32.908 -13.878 -24.612  0.00  0.00    +0.013 C 
ATOM     18  C   UNL     1      33.364 -14.551 -25.745  0.00  0.00    +0.057 C 
BRANCH  13  19
ATOM     19  C   UNL     1      34.965 -17.610 -24.203  0.00  0.00    +0.029 C 
BRANCH  19  20
ATOM     20  C   UNL     1      34.769 -18.234 -22.815  0.00  0.00    +0.036 C 
BRANCH  20  21
ATOM     21  C   UNL     1      36.078 -18.348 -22.047  0.00  0.00    +0.138 C 
BRANCH  21  22
ATOM     22  O   UNL     1      35.800 -18.307 -20.654  0.00  0.00    -0.382 OA
ATOM     23  H   UNL     1      36.134 -19.114 -20.235  0.00  0.00    +0.210 HD
ENDBRANCH  21  22
ENDBRANCH  20  21
ENDBRANCH  19  20
ENDBRANCH  13  19
ENDBRANCH   6  14
BRANCH   2  24
ATOM     24  C   UNL     1      31.771  -7.562 -22.527  0.00  0.00    +0.093 C 
ATOM     25  C   UNL     1      32.603  -7.246 -21.286  0.00  0.00    +0.026 C 
BRANCH  24  26
ATOM     26  C   UNL     1      31.911  -6.518 -23.614  0.00  0.00    -0.005 C 
ATOM     27  C   UNL     1      33.026  -6.529 -24.451  0.00  0.00    -0.003 C 
ATOM     28  C   UNL     1      30.925  -5.545 -23.778  0.00  0.00    -0.003 C 
ATOM     29  C   UNL     1      33.156  -5.566 -25.453  0.00  0.00    -0.000 C 
ATOM     30  C   UNL     1      31.054  -4.583 -24.779  0.00  0.00    -0.000 C 
ATOM     31  C   UNL     1      32.169  -4.594 -25.617  0.00  0.00    -0.000 C 
ENDBRANCH  24  26
ENDBRANCH   2  24
TORSDOF 7
ENDMDL
