MODEL 1
REMARK VINA RESULT:     -10.3      0.000      0.000
REMARK  Name = 2092
REMARK  7 active torsions:
REMARK  status: ('A' for Active; 'I' for Inactive)
REMARK    1  A    between atoms: N_1  and  C_20
REMARK    2  A    between atoms: C_12  and  O_16
REMARK    3  A    between atoms: C_13  and  O_18
REMARK    4  A    between atoms: C_20  and  C_21
REMARK    5  A    between atoms: C_21  and  C_22
REMARK    6  A    between atoms: C_22  and  N_24
REMARK    7  A    between atoms: C_25  and  C_28
REMARK                            x       y       z     vdW  Elec       q    Type
REMARK                         _______ _______ _______ _____ _____    ______ ____
ROOT
ATOM      1  N   UNL     1      34.909 -21.941 -19.075  0.00  0.00    -0.232 N 
ATOM      2  N   UNL     1      33.976 -22.856 -17.128  0.00  0.00    -0.332 NA
ATOM      3  N   UNL     1      36.335 -22.387 -17.272  0.00  0.00    -0.313 NA
ATOM      4  N   UNL     1      37.761 -22.839 -15.455  0.00  0.00    -0.332 N 
ATOM      5  C   UNL     1      35.084 -22.419 -17.758  0.00  0.00    +0.204 C 
ATOM      6  C   UNL     1      36.042 -21.451 -19.833  0.00  0.00    +0.125 C 
ATOM      7  C   UNL     1      35.395 -23.330 -15.253  0.00  0.00    +0.074 C 
ATOM      8  C   UNL     1      34.134 -23.312 -15.872  0.00  0.00    +0.134 C 
ATOM      9  C   UNL     1      36.459 -22.851 -16.013  0.00  0.00    +0.193 C 
ATOM     10  C   UNL     1      35.549 -23.809 -13.941  0.00  0.00    +0.046 C 
ATOM     11  C   UNL     1      33.045 -23.783 -15.143  0.00  0.00    +0.127 C 
ATOM     12  C   UNL     1      34.444 -24.275 -13.236  0.00  0.00    +0.169 C 
ATOM     13  C   UNL     1      33.190 -24.261 -13.838  0.00  0.00    +0.157 C 
ATOM     14  H   UNL     1      38.520 -22.502 -15.985  0.00  0.00    +0.145 HD
ATOM     15  H   UNL     1      37.908 -23.167 -14.538  0.00  0.00    +0.145 HD
ENDROOT
BRANCH  12  16
ATOM     16  O   UNL     1      34.600 -24.737 -11.964  0.00  0.00    -0.469 OA
ATOM     17  C   UNL     1      35.765 -24.314 -11.259  0.00  0.00    +0.253 C 
ENDBRANCH  12  16
BRANCH  13  18
ATOM     18  O   UNL     1      32.095 -24.712 -13.166  0.00  0.00    -0.472 OA
ATOM     19  C   UNL     1      30.977 -25.124 -13.951  0.00  0.00    +0.252 C 
ENDBRANCH  13  18
BRANCH   1  20
ATOM     20  C   UNL     1      33.597 -21.950 -19.689  0.00  0.00    +0.105 C 
BRANCH  20  21
ATOM     21  C   UNL     1      33.037 -20.532 -19.802  0.00  0.00    +0.043 C 
BRANCH  21  22
ATOM     22  C   UNL     1      33.232 -19.897 -21.178  0.00  0.00    +0.091 C 
BRANCH  22  24
ATOM     23  O   UNL     1      34.624 -18.573 -23.354  0.00  0.00    -0.272 OA
ATOM     24  N   UNL     1      33.975 -18.669 -21.119  0.00  0.00    -0.302 N 
ATOM     25  C   UNL     1      34.612 -18.107 -22.218  0.00  0.00    +0.250 C 
ATOM     26  H   UNL     1      34.036 -18.202 -20.255  0.00  0.00    +0.150 HD
BRANCH  25  28
ATOM     27  O   UNL     1      35.310 -16.047 -23.093  0.00  0.00    -0.347 OA
ATOM     28  C   UNL     1      35.293 -16.816 -21.887  0.00  0.00    +0.191 C 
ATOM     29  C   UNL     1      34.538 -16.012 -20.846  0.00  0.00    +0.042 C 
ATOM     30  C   UNL     1      33.640 -15.142 -21.692  0.00  0.00    +0.035 C 
ATOM     31  C   UNL     1      34.510 -14.872 -22.899  0.00  0.00    +0.143 C 
ENDBRANCH  25  28
ENDBRANCH  22  24
ENDBRANCH  21  22
ENDBRANCH  20  21
ENDBRANCH   1  20
TORSDOF 7
ENDMDL
MODEL 2
REMARK VINA RESULT:      -9.9      6.792     10.945
REMARK  Name = 2092
REMARK  7 active torsions:
REMARK  status: ('A' for Active; 'I' for Inactive)
REMARK    1  A    between atoms: N_1  and  C_20
REMARK    2  A    between atoms: C_12  and  O_16
REMARK    3  A    between atoms: C_13  and  O_18
REMARK    4  A    between atoms: C_20  and  C_21
REMARK    5  A    between atoms: C_21  and  C_22
REMARK    6  A    between atoms: C_22  and  N_24
REMARK    7  A    between atoms: C_25  and  C_28
REMARK                            x       y       z     vdW  Elec       q    Type
REMARK                         _______ _______ _______ _____ _____    ______ ____
ROOT
ATOM      1  N   UNL     1      31.829 -12.286 -21.443  0.00  0.00    -0.232 N 
ATOM      2  N   UNL     1      33.119 -14.235 -21.241  0.00  0.00    -0.332 NA
ATOM      3  N   UNL     1      32.438 -13.416 -23.402  0.00  0.00    -0.313 NA
ATOM      4  N   UNL     1      33.054 -14.556 -25.367  0.00  0.00    -0.332 N 
ATOM      5  C   UNL     1      32.495 -13.367 -22.062  0.00  0.00    +0.204 C 
ATOM      6  C   UNL     1      31.130 -11.302 -22.243  0.00  0.00    +0.125 C 
ATOM      7  C   UNL     1      33.768 -15.426 -23.219  0.00  0.00    +0.074 C 
ATOM      8  C   UNL     1      33.757 -15.266 -21.823  0.00  0.00    +0.134 C 
ATOM      9  C   UNL     1      33.085 -14.460 -23.953  0.00  0.00    +0.193 C 
ATOM     10  C   UNL     1      34.438 -16.508 -23.817  0.00  0.00    +0.046 C 
ATOM     11  C   UNL     1      34.429 -16.213 -21.055  0.00  0.00    +0.127 C 
ATOM     12  C   UNL     1      35.101 -17.440 -23.025  0.00  0.00    +0.169 C 
ATOM     13  C   UNL     1      35.097 -17.292 -21.642  0.00  0.00    +0.157 C 
ATOM     14  H   UNL     1      32.573 -13.878 -25.895  0.00  0.00    +0.145 HD
ATOM     15  H   UNL     1      33.511 -15.300 -25.821  0.00  0.00    +0.145 HD
ENDROOT
BRANCH  12  16
ATOM     16  O   UNL     1      35.747 -18.486 -23.611  0.00  0.00    -0.469 OA
ATOM     17  C   UNL     1      34.971 -19.340 -24.449  0.00  0.00    +0.253 C 
ENDBRANCH  12  16
BRANCH  13  18
ATOM     18  O   UNL     1      35.740 -18.192 -20.847  0.00  0.00    -0.472 OA
ATOM     19  C   UNL     1      35.145 -19.482 -20.717  0.00  0.00    +0.252 C 
ENDBRANCH  13  18
BRANCH   1  20
ATOM     20  C   UNL     1      31.824 -12.159 -20.000  0.00  0.00    +0.105 C 
BRANCH  20  21
ATOM     21  C   UNL     1      31.094 -10.888 -19.565  0.00  0.00    +0.043 C 
BRANCH  21  22
ATOM     22  C   UNL     1      32.019  -9.699 -19.311  0.00  0.00    +0.091 C 
BRANCH  22  24
ATOM     23  O   UNL     1      32.901  -6.935 -19.421  0.00  0.00    -0.272 OA
ATOM     24  N   UNL     1      32.215  -8.891 -20.483  0.00  0.00    -0.302 N 
ATOM     25  C   UNL     1      32.642  -7.570 -20.440  0.00  0.00    +0.250 C 
ATOM     26  H   UNL     1      32.038  -9.295 -21.363  0.00  0.00    +0.150 HD
BRANCH  25  28
ATOM     27  O   UNL     1      32.208  -7.902 -22.719  0.00  0.00    -0.347 OA
ATOM     28  C   UNL     1      32.788  -6.970 -21.802  0.00  0.00    +0.191 C 
ATOM     29  C   UNL     1      32.032  -5.662 -21.944  0.00  0.00    +0.042 C 
ATOM     30  C   UNL     1      30.686  -6.116 -22.458  0.00  0.00    +0.035 C 
ATOM     31  C   UNL     1      31.064  -7.291 -23.332  0.00  0.00    +0.143 C 
ENDBRANCH  25  28
ENDBRANCH  22  24
ENDBRANCH  21  22
ENDBRANCH  20  21
ENDBRANCH   1  20
TORSDOF 7
ENDMDL
MODEL 3
REMARK VINA RESULT:      -9.7      1.633      3.048
REMARK  Name = 2092
REMARK  7 active torsions:
REMARK  status: ('A' for Active; 'I' for Inactive)
REMARK    1  A    between atoms: N_1  and  C_20
REMARK    2  A    between atoms: C_12  and  O_16
REMARK    3  A    between atoms: C_13  and  O_18
REMARK    4  A    between atoms: C_20  and  C_21
REMARK    5  A    between atoms: C_21  and  C_22
REMARK    6  A    between atoms: C_22  and  N_24
REMARK    7  A    between atoms: C_25  and  C_28
REMARK                            x       y       z     vdW  Elec       q    Type
REMARK                         _______ _______ _______ _____ _____    ______ ____
ROOT
ATOM      1  N   UNL     1      34.870 -21.863 -18.823  0.00  0.00    -0.232 N 
ATOM      2  N   UNL     1      36.057 -22.661 -16.964  0.00  0.00    -0.332 NA
ATOM      3  N   UNL     1      33.663 -22.894 -17.101  0.00  0.00    -0.313 NA
ATOM      4  N   UNL     1      32.457 -23.932 -15.367  0.00  0.00    -0.332 N 
ATOM      5  C   UNL     1      34.861 -22.505 -17.566  0.00  0.00    +0.204 C 
ATOM      6  C   UNL     1      33.633 -21.650 -19.545  0.00  0.00    +0.125 C 
ATOM      7  C   UNL     1      34.866 -23.726 -15.175  0.00  0.00    +0.074 C 
ATOM      8  C   UNL     1      36.057 -23.273 -15.766  0.00  0.00    +0.134 C 
ATOM      9  C   UNL     1      33.698 -23.503 -15.900  0.00  0.00    +0.193 C 
ATOM     10  C   UNL     1      34.878 -24.364 -13.923  0.00  0.00    +0.046 C 
ATOM     11  C   UNL     1      37.247 -23.478 -15.071  0.00  0.00    +0.127 C 
ATOM     12  C   UNL     1      36.080 -24.555 -13.250  0.00  0.00    +0.169 C 
ATOM     13  C   UNL     1      37.266 -24.111 -13.826  0.00  0.00    +0.157 C 
ATOM     14  H   UNL     1      31.626 -23.779 -15.872  0.00  0.00    +0.145 HD
ATOM     15  H   UNL     1      32.426 -24.383 -14.492  0.00  0.00    +0.145 HD
ENDROOT
BRANCH  12  16
ATOM     16  O   UNL     1      36.084 -25.174 -12.037  0.00  0.00    -0.469 OA
ATOM     17  C   UNL     1      35.704 -24.389 -10.908  0.00  0.00    +0.253 C 
ENDBRANCH  12  16
BRANCH  13  18
ATOM     18  O   UNL     1      38.455 -24.288 -13.185  0.00  0.00    -0.472 OA
ATOM     19  C   UNL     1      39.268 -25.378 -13.616  0.00  0.00    +0.252 C 
ENDBRANCH  13  18
BRANCH   1  20
ATOM     20  C   UNL     1      36.115 -21.395 -19.397  0.00  0.00    +0.105 C 
BRANCH  20  21
ATOM     21  C   UNL     1      35.867 -20.663 -20.716  0.00  0.00    +0.043 C 
BRANCH  21  22
ATOM     22  C   UNL     1      36.489 -19.269 -20.777  0.00  0.00    +0.091 C 
BRANCH  22  24
ATOM     23  O   UNL     1      35.051 -17.970 -22.939  0.00  0.00    -0.272 OA
ATOM     24  N   UNL     1      35.511 -18.223 -20.669  0.00  0.00    -0.302 N 
ATOM     25  C   UNL     1      34.870 -17.658 -21.765  0.00  0.00    +0.250 C 
ATOM     26  H   UNL     1      35.283 -17.889 -19.772  0.00  0.00    +0.150 HD
BRANCH  25  28
ATOM     27  O   UNL     1      34.525 -15.793 -20.387  0.00  0.00    -0.347 OA
ATOM     28  C   UNL     1      33.881 -16.607 -21.371  0.00  0.00    +0.191 C 
ATOM     29  C   UNL     1      33.500 -15.705 -22.529  0.00  0.00    +0.042 C 
ATOM     30  C   UNL     1      34.504 -14.583 -22.413  0.00  0.00    +0.035 C 
ATOM     31  C   UNL     1      34.676 -14.468 -20.915  0.00  0.00    +0.143 C 
ENDBRANCH  25  28
ENDBRANCH  22  24
ENDBRANCH  21  22
ENDBRANCH  20  21
ENDBRANCH   1  20
TORSDOF 7
ENDMDL
MODEL 4
REMARK VINA RESULT:      -9.6      1.763      3.209
REMARK  Name = 2092
REMARK  7 active torsions:
REMARK  status: ('A' for Active; 'I' for Inactive)
REMARK    1  A    between atoms: N_1  and  C_20
REMARK    2  A    between atoms: C_12  and  O_16
REMARK    3  A    between atoms: C_13  and  O_18
REMARK    4  A    between atoms: C_20  and  C_21
REMARK    5  A    between atoms: C_21  and  C_22
REMARK    6  A    between atoms: C_22  and  N_24
REMARK    7  A    between atoms: C_25  and  C_28
REMARK                            x       y       z     vdW  Elec       q    Type
REMARK                         _______ _______ _______ _____ _____    ______ ____
ROOT
ATOM      1  N   UNL     1      34.015 -20.965 -19.988  0.00  0.00    -0.232 N 
ATOM      2  N   UNL     1      35.318 -21.824 -18.236  0.00  0.00    -0.332 NA
ATOM      3  N   UNL     1      32.955 -22.277 -18.362  0.00  0.00    -0.313 NA
ATOM      4  N   UNL     1      31.896 -23.596 -16.725  0.00  0.00    -0.332 N 
ATOM      5  C   UNL     1      34.098 -21.728 -18.802  0.00  0.00    +0.204 C 
ATOM      6  C   UNL     1      32.746 -20.805 -20.668  0.00  0.00    +0.125 C 
ATOM      7  C   UNL     1      34.278 -23.174 -16.548  0.00  0.00    +0.074 C 
ATOM      8  C   UNL     1      35.406 -22.549 -17.107  0.00  0.00    +0.134 C 
ATOM      9  C   UNL     1      33.077 -22.995 -17.230  0.00  0.00    +0.193 C 
ATOM     10  C   UNL     1      34.381 -23.929 -15.367  0.00  0.00    +0.046 C 
ATOM     11  C   UNL     1      36.625 -22.704 -16.453  0.00  0.00    +0.127 C 
ATOM     12  C   UNL     1      35.612 -24.066 -14.734  0.00  0.00    +0.169 C 
ATOM     13  C   UNL     1      36.736 -23.454 -15.278  0.00  0.00    +0.157 C 
ATOM     14  H   UNL     1      31.042 -23.475 -17.200  0.00  0.00    +0.145 HD
ATOM     15  H   UNL     1      31.930 -24.131 -15.900  0.00  0.00    +0.145 HD
ENDROOT
BRANCH  12  16
ATOM     16  O   UNL     1      35.704 -24.799 -13.590  0.00  0.00    -0.469 OA
ATOM     17  C   UNL     1      35.328 -24.155 -12.375  0.00  0.00    +0.253 C 
ENDBRANCH  12  16
BRANCH  13  18
ATOM     18  O   UNL     1      37.951 -23.575 -14.675  0.00  0.00    -0.472 OA
ATOM     19  C   UNL     1      38.698 -24.758 -14.956  0.00  0.00    +0.252 C 
ENDBRANCH  13  18
BRANCH   1  20
ATOM     20  C   UNL     1      35.195 -20.323 -20.530  0.00  0.00    +0.105 C 
BRANCH  20  21
ATOM     21  C   UNL     1      34.855 -19.527 -21.790  0.00  0.00    +0.043 C 
BRANCH  21  22
ATOM     22  C   UNL     1      35.923 -18.511 -22.187  0.00  0.00    +0.091 C 
BRANCH  22  24
ATOM     23  O   UNL     1      34.557 -16.579 -23.870  0.00  0.00    -0.272 OA
ATOM     24  N   UNL     1      35.557 -17.163 -21.849  0.00  0.00    -0.302 N 
ATOM     25  C   UNL     1      34.900 -16.306 -22.723  0.00  0.00    +0.250 C 
ATOM     26  H   UNL     1      35.782 -16.830 -20.950  0.00  0.00    +0.150 HD
BRANCH  25  28
ATOM     27  O   UNL     1      33.451 -14.464 -22.768  0.00  0.00    -0.347 OA
ATOM     28  C   UNL     1      34.616 -14.971 -22.111  0.00  0.00    +0.191 C 
ATOM     29  C   UNL     1      34.297 -15.067 -20.631  0.00  0.00    +0.042 C 
ATOM     30  C   UNL     1      32.794 -15.214 -20.629  0.00  0.00    +0.035 C 
ATOM     31  C   UNL     1      32.393 -14.354 -21.806  0.00  0.00    +0.143 C 
ENDBRANCH  25  28
ENDBRANCH  22  24
ENDBRANCH  21  22
ENDBRANCH  20  21
ENDBRANCH   1  20
TORSDOF 7
ENDMDL
MODEL 5
REMARK VINA RESULT:      -9.5      7.513     13.310
REMARK  Name = 2092
REMARK  7 active torsions:
REMARK  status: ('A' for Active; 'I' for Inactive)
REMARK    1  A    between atoms: N_1  and  C_20
REMARK    2  A    between atoms: C_12  and  O_16
REMARK    3  A    between atoms: C_13  and  O_18
REMARK    4  A    between atoms: C_20  and  C_21
REMARK    5  A    between atoms: C_21  and  C_22
REMARK    6  A    between atoms: C_22  and  N_24
REMARK    7  A    between atoms: C_25  and  C_28
REMARK                            x       y       z     vdW  Elec       q    Type
REMARK                         _______ _______ _______ _____ _____    ______ ____
ROOT
ATOM      1  N   UNL     1      32.966 -13.498 -22.991  0.00  0.00    -0.232 N 
ATOM      2  N   UNL     1      33.106 -11.183 -23.340  0.00  0.00    -0.332 NA
ATOM      3  N   UNL     1      31.924 -12.083 -21.443  0.00  0.00    -0.313 NA
ATOM      4  N   UNL     1      30.880 -10.654 -19.891  0.00  0.00    -0.332 N 
ATOM      5  C   UNL     1      32.648 -12.189 -22.568  0.00  0.00    +0.204 C 
ATOM      6  C   UNL     1      32.516 -14.644 -22.227  0.00  0.00    +0.125 C 
ATOM      7  C   UNL     1      32.056  -9.692 -21.780  0.00  0.00    +0.074 C 
ATOM      8  C   UNL     1      32.809  -9.932 -22.943  0.00  0.00    +0.134 C 
ATOM      9  C   UNL     1      31.643 -10.819 -21.074  0.00  0.00    +0.193 C 
ATOM     10  C   UNL     1      31.751  -8.382 -21.376  0.00  0.00    +0.046 C 
ATOM     11  C   UNL     1      33.240  -8.831 -23.677  0.00  0.00    +0.127 C 
ATOM     12  C   UNL     1      32.194  -7.299 -22.129  0.00  0.00    +0.169 C 
ATOM     13  C   UNL     1      32.940  -7.524 -23.281  0.00  0.00    +0.157 C 
ATOM     14  H   UNL     1      30.582 -11.444 -19.384  0.00  0.00    +0.145 HD
ATOM     15  H   UNL     1      30.646  -9.751 -19.577  0.00  0.00    +0.145 HD
ENDROOT
BRANCH  12  16
ATOM     16  O   UNL     1      31.895  -6.032 -21.730  0.00  0.00    -0.469 OA
ATOM     17  C   UNL     1      30.604  -5.532 -22.076  0.00  0.00    +0.253 C 
ENDBRANCH  12  16
BRANCH  13  18
ATOM     18  O   UNL     1      33.385  -6.479 -24.033  0.00  0.00    -0.472 OA
ATOM     19  C   UNL     1      34.564  -6.694 -24.807  0.00  0.00    +0.252 C 
ENDBRANCH  13  18
BRANCH   1  20
ATOM     20  C   UNL     1      33.731 -13.711 -24.202  0.00  0.00    +0.105 C 
BRANCH  20  21
ATOM     21  C   UNL     1      32.940 -14.545 -25.210  0.00  0.00    +0.043 C 
BRANCH  21  22
ATOM     22  C   UNL     1      33.666 -15.807 -25.673  0.00  0.00    +0.091 C 
BRANCH  22  24
ATOM     23  O   UNL     1      34.052 -18.628 -25.107  0.00  0.00    -0.272 OA
ATOM     24  N   UNL     1      34.481 -16.386 -24.642  0.00  0.00    -0.302 N 
ATOM     25  C   UNL     1      34.607 -17.756 -24.444  0.00  0.00    +0.250 C 
ATOM     26  H   UNL     1      34.977 -15.781 -24.045  0.00  0.00    +0.150 HD
BRANCH  25  28
ATOM     27  O   UNL     1      35.578 -16.936 -22.474  0.00  0.00    -0.347 OA
ATOM     28  C   UNL     1      35.536 -18.089 -23.320  0.00  0.00    +0.191 C 
ATOM     29  C   UNL     1      35.038 -19.251 -22.481  0.00  0.00    +0.042 C 
ATOM     30  C   UNL     1      34.235 -18.557 -21.406  0.00  0.00    +0.035 C 
ATOM     31  C   UNL     1      35.023 -17.284 -21.198  0.00  0.00    +0.143 C 
ENDBRANCH  25  28
ENDBRANCH  22  24
ENDBRANCH  21  22
ENDBRANCH  20  21
ENDBRANCH   1  20
TORSDOF 7
ENDMDL
MODEL 6
REMARK VINA RESULT:      -9.3      8.872     12.716
REMARK  Name = 2092
REMARK  7 active torsions:
REMARK  status: ('A' for Active; 'I' for Inactive)
REMARK    1  A    between atoms: N_1  and  C_20
REMARK    2  A    between atoms: C_12  and  O_16
REMARK    3  A    between atoms: C_13  and  O_18
REMARK    4  A    between atoms: C_20  and  C_21
REMARK    5  A    between atoms: C_21  and  C_22
REMARK    6  A    between atoms: C_22  and  N_24
REMARK    7  A    between atoms: C_25  and  C_28
REMARK                            x       y       z     vdW  Elec       q    Type
REMARK                         _______ _______ _______ _____ _____    ______ ____
ROOT
ATOM      1  N   UNL     1      31.694 -11.672 -20.861  0.00  0.00    -0.232 N 
ATOM      2  N   UNL     1      32.309 -12.710 -22.872  0.00  0.00    -0.332 NA
ATOM      3  N   UNL     1      32.676 -13.796 -20.753  0.00  0.00    -0.313 NA
ATOM      4  N   UNL     1      33.663 -15.930 -20.653  0.00  0.00    -0.332 N 
ATOM      5  C   UNL     1      32.255 -12.783 -21.528  0.00  0.00    +0.204 C 
ATOM      6  C   UNL     1      31.594 -11.659 -19.416  0.00  0.00    +0.125 C 
ATOM      7  C   UNL     1      33.317 -14.886 -22.814  0.00  0.00    +0.074 C 
ATOM      8  C   UNL     1      32.842 -13.765 -23.515  0.00  0.00    +0.134 C 
ATOM      9  C   UNL     1      33.204 -14.835 -21.427  0.00  0.00    +0.193 C 
ATOM     10  C   UNL     1      33.872 -15.982 -23.496  0.00  0.00    +0.046 C 
ATOM     11  C   UNL     1      32.938 -13.778 -24.904  0.00  0.00    +0.127 C 
ATOM     12  C   UNL     1      33.957 -15.968 -24.884  0.00  0.00    +0.169 C 
ATOM     13  C   UNL     1      33.488 -14.865 -25.589  0.00  0.00    +0.157 C 
ATOM     14  H   UNL     1      33.587 -15.904 -19.671  0.00  0.00    +0.145 HD
ATOM     15  H   UNL     1      34.058 -16.715 -21.095  0.00  0.00    +0.145 HD
ENDROOT
BRANCH  12  16
ATOM     16  O   UNL     1      34.496 -17.034 -25.538  0.00  0.00    -0.469 OA
ATOM     17  C   UNL     1      34.514 -18.280 -24.843  0.00  0.00    +0.253 C 
ENDBRANCH  12  16
BRANCH  13  18
ATOM     18  O   UNL     1      33.561 -14.830 -26.949  0.00  0.00    -0.472 OA
ATOM     19  C   UNL     1      33.521 -13.545 -27.567  0.00  0.00    +0.252 C 
ENDBRANCH  13  18
BRANCH   1  20
ATOM     20  C   UNL     1      31.226 -10.526 -21.613  0.00  0.00    +0.105 C 
BRANCH  20  21
ATOM     21  C   UNL     1      31.987  -9.262 -21.214  0.00  0.00    +0.043 C 
BRANCH  21  22
ATOM     22  C   UNL     1      32.626  -8.527 -22.391  0.00  0.00    +0.091 C 
BRANCH  22  24
ATOM     23  O   UNL     1      32.176  -5.823 -21.433  0.00  0.00    -0.272 OA
ATOM     24  N   UNL     1      31.758  -7.533 -22.959  0.00  0.00    -0.302 N 
ATOM     25  C   UNL     1      31.606  -6.258 -22.430  0.00  0.00    +0.250 C 
ATOM     26  H   UNL     1      31.246  -7.768 -23.766  0.00  0.00    +0.150 HD
BRANCH  25  28
ATOM     27  O   UNL     1      30.715  -4.102 -22.666  0.00  0.00    -0.347 OA
ATOM     28  C   UNL     1      30.662  -5.416 -23.229  0.00  0.00    +0.191 C 
ATOM     29  C   UNL     1      31.074  -5.303 -24.685  0.00  0.00    +0.042 C 
ATOM     30  C   UNL     1      31.935  -4.063 -24.685  0.00  0.00    +0.035 C 
ATOM     31  C   UNL     1      31.250  -3.203 -23.647  0.00  0.00    +0.143 C 
ENDBRANCH  25  28
ENDBRANCH  22  24
ENDBRANCH  21  22
ENDBRANCH  20  21
ENDBRANCH   1  20
TORSDOF 7
ENDMDL
MODEL 7
REMARK VINA RESULT:      -9.2      3.167      7.666
REMARK  Name = 2092
REMARK  7 active torsions:
REMARK  status: ('A' for Active; 'I' for Inactive)
REMARK    1  A    between atoms: N_1  and  C_20
REMARK    2  A    between atoms: C_12  and  O_16
REMARK    3  A    between atoms: C_13  and  O_18
REMARK    4  A    between atoms: C_20  and  C_21
REMARK    5  A    between atoms: C_21  and  C_22
REMARK    6  A    between atoms: C_22  and  N_24
REMARK    7  A    between atoms: C_25  and  C_28
REMARK                            x       y       z     vdW  Elec       q    Type
REMARK                         _______ _______ _______ _____ _____    ______ ____
ROOT
ATOM      1  N   UNL     1      34.186 -24.295 -14.126  0.00  0.00    -0.232 N 
ATOM      2  N   UNL     1      33.817 -23.324 -16.229  0.00  0.00    -0.332 NA
ATOM      3  N   UNL     1      36.026 -23.403 -15.269  0.00  0.00    -0.313 NA
ATOM      4  N   UNL     1      37.869 -22.503 -16.423  0.00  0.00    -0.332 N 
ATOM      5  C   UNL     1      34.704 -23.641 -15.265  0.00  0.00    +0.204 C 
ATOM      6  C   UNL     1      35.063 -24.675 -13.037  0.00  0.00    +0.125 C 
ATOM      7  C   UNL     1      35.670 -22.398 -17.439  0.00  0.00    +0.074 C 
ATOM      8  C   UNL     1      34.303 -22.701 -17.318  0.00  0.00    +0.134 C 
ATOM      9  C   UNL     1      36.479 -22.778 -16.372  0.00  0.00    +0.193 C 
ATOM     10  C   UNL     1      36.167 -21.746 -18.581  0.00  0.00    +0.046 C 
ATOM     11  C   UNL     1      33.461 -22.337 -18.365  0.00  0.00    +0.127 C 
ATOM     12  C   UNL     1      35.302 -21.392 -19.612  0.00  0.00    +0.169 C 
ATOM     13  C   UNL     1      33.948 -21.688 -19.504  0.00  0.00    +0.157 C 
ATOM     14  H   UNL     1      38.450 -22.768 -15.673  0.00  0.00    +0.145 HD
ATOM     15  H   UNL     1      38.253 -22.048 -17.206  0.00  0.00    +0.145 HD
ENDROOT
BRANCH  12  16
ATOM     16  O   UNL     1      35.791 -20.761 -20.715  0.00  0.00    -0.469 OA
ATOM     17  C   UNL     1      36.446 -19.511 -20.510  0.00  0.00    +0.253 C 
ENDBRANCH  12  16
BRANCH  13  18
ATOM     18  O   UNL     1      33.084 -21.351 -20.501  0.00  0.00    -0.472 OA
ATOM     19  C   UNL     1      32.679 -19.986 -20.573  0.00  0.00    +0.252 C 
ENDBRANCH  13  18
BRANCH   1  20
ATOM     20  C   UNL     1      32.770 -24.581 -14.027  0.00  0.00    +0.105 C 
BRANCH  20  21
ATOM     21  C   UNL     1      32.034 -23.455 -13.300  0.00  0.00    +0.043 C 
BRANCH  21  22
ATOM     22  C   UNL     1      31.338 -22.467 -14.234  0.00  0.00    +0.091 C 
BRANCH  22  24
ATOM     23  O   UNL     1      30.327 -22.577 -16.953  0.00  0.00    -0.272 OA
ATOM     24  N   UNL     1      30.049 -22.931 -14.668  0.00  0.00    -0.302 N 
ATOM     25  C   UNL     1      29.650 -22.948 -15.998  0.00  0.00    +0.250 C 
ATOM     26  H   UNL     1      29.416 -23.255 -13.987  0.00  0.00    +0.150 HD
BRANCH  25  28
ATOM     27  O   UNL     1      27.427 -22.786 -15.270  0.00  0.00    -0.347 OA
ATOM     28  C   UNL     1      28.272 -23.503 -16.176  0.00  0.00    +0.191 C 
ATOM     29  C   UNL     1      27.732 -23.279 -17.575  0.00  0.00    +0.042 C 
ATOM     30  C   UNL     1      27.014 -21.956 -17.441  0.00  0.00    +0.035 C 
ATOM     31  C   UNL     1      26.472 -22.035 -16.032  0.00  0.00    +0.143 C 
ENDBRANCH  25  28
ENDBRANCH  22  24
ENDBRANCH  21  22
ENDBRANCH  20  21
ENDBRANCH   1  20
TORSDOF 7
ENDMDL
MODEL 8
REMARK VINA RESULT:      -9.2      1.956      2.623
REMARK  Name = 2092
REMARK  7 active torsions:
REMARK  status: ('A' for Active; 'I' for Inactive)
REMARK    1  A    between atoms: N_1  and  C_20
REMARK    2  A    between atoms: C_12  and  O_16
REMARK    3  A    between atoms: C_13  and  O_18
REMARK    4  A    between atoms: C_20  and  C_21
REMARK    5  A    between atoms: C_21  and  C_22
REMARK    6  A    between atoms: C_22  and  N_24
REMARK    7  A    between atoms: C_25  and  C_28
REMARK                            x       y       z     vdW  Elec       q    Type
REMARK                         _______ _______ _______ _____ _____    ______ ____
ROOT
ATOM      1  N   UNL     1      34.593 -21.526 -19.487  0.00  0.00    -0.232 N 
ATOM      2  N   UNL     1      32.774 -22.288 -18.217  0.00  0.00    -0.332 NA
ATOM      3  N   UNL     1      35.041 -22.676 -17.496  0.00  0.00    -0.313 NA
ATOM      4  N   UNL     1      35.482 -23.831 -15.494  0.00  0.00    -0.332 N 
ATOM      5  C   UNL     1      34.114 -22.198 -18.342  0.00  0.00    +0.204 C 
ATOM      6  C   UNL     1      36.018 -21.380 -19.708  0.00  0.00    +0.125 C 
ATOM      7  C   UNL     1      33.182 -23.469 -16.169  0.00  0.00    +0.074 C 
ATOM      8  C   UNL     1      32.310 -22.925 -17.127  0.00  0.00    +0.134 C 
ATOM      9  C   UNL     1      34.542 -23.308 -16.417  0.00  0.00    +0.193 C 
ATOM     10  C   UNL     1      32.685 -24.133 -15.035  0.00  0.00    +0.046 C 
ATOM     11  C   UNL     1      30.941 -23.066 -16.915  0.00  0.00    +0.127 C 
ATOM     12  C   UNL     1      31.312 -24.260 -14.848  0.00  0.00    +0.169 C 
ATOM     13  C   UNL     1      30.439 -23.726 -15.789  0.00  0.00    +0.157 C 
ATOM     14  H   UNL     1      36.447 -23.723 -15.660  0.00  0.00    +0.145 HD
ATOM     15  H   UNL     1      35.172 -24.303 -14.688  0.00  0.00    +0.145 HD
ENDROOT
BRANCH  12  16
ATOM     16  O   UNL     1      30.838 -24.906 -13.746  0.00  0.00    -0.469 OA
ATOM     17  C   UNL     1      30.406 -24.094 -12.655  0.00  0.00    +0.253 C 
ENDBRANCH  12  16
BRANCH  13  18
ATOM     18  O   UNL     1      29.092 -23.838 -15.626  0.00  0.00    -0.472 OA
ATOM     19  C   UNL     1      28.278 -23.592 -16.772  0.00  0.00    +0.252 C 
ENDBRANCH  13  18
BRANCH   1  20
ATOM     20  C   UNL     1      33.667 -20.990 -20.463  0.00  0.00    +0.105 C 
BRANCH  20  21
ATOM     21  C   UNL     1      34.088 -19.588 -20.905  0.00  0.00    +0.043 C 
BRANCH  21  22
ATOM     22  C   UNL     1      34.516 -19.503 -22.368  0.00  0.00    +0.091 C 
BRANCH  22  24
ATOM     23  O   UNL     1      34.175 -18.367 -25.018  0.00  0.00    -0.272 OA
ATOM     24  N   UNL     1      34.799 -18.157 -22.784  0.00  0.00    -0.302 N 
ATOM     25  C   UNL     1      34.603 -17.699 -24.080  0.00  0.00    +0.250 C 
ATOM     26  H   UNL     1      35.148 -17.526 -22.114  0.00  0.00    +0.150 HD
BRANCH  25  28
ATOM     27  O   UNL     1      34.056 -15.723 -25.217  0.00  0.00    -0.347 OA
ATOM     28  C   UNL     1      34.952 -16.252 -24.236  0.00  0.00    +0.191 C 
ATOM     29  C   UNL     1      34.744 -15.464 -22.957  0.00  0.00    +0.042 C 
ATOM     30  C   UNL     1      33.322 -14.976 -23.102  0.00  0.00    +0.035 C 
ATOM     31  C   UNL     1      33.221 -14.738 -24.592  0.00  0.00    +0.143 C 
ENDBRANCH  25  28
ENDBRANCH  22  24
ENDBRANCH  21  22
ENDBRANCH  20  21
ENDBRANCH   1  20
TORSDOF 7
ENDMDL
MODEL 9
REMARK VINA RESULT:      -9.1      1.655      2.312
REMARK  Name = 2092
REMARK  7 active torsions:
REMARK  status: ('A' for Active; 'I' for Inactive)
REMARK    1  A    between atoms: N_1  and  C_20
REMARK    2  A    between atoms: C_12  and  O_16
REMARK    3  A    between atoms: C_13  and  O_18
REMARK    4  A    between atoms: C_20  and  C_21
REMARK    5  A    between atoms: C_21  and  C_22
REMARK    6  A    between atoms: C_22  and  N_24
REMARK    7  A    between atoms: C_25  and  C_28
REMARK                            x       y       z     vdW  Elec       q    Type
REMARK                         _______ _______ _______ _____ _____    ______ ____
ROOT
ATOM      1  N   UNL     1      35.185 -21.760 -19.170  0.00  0.00    -0.232 N 
ATOM      2  N   UNL     1      33.287 -22.566 -18.052  0.00  0.00    -0.332 NA
ATOM      3  N   UNL     1      35.461 -22.636 -17.015  0.00  0.00    -0.313 NA
ATOM      4  N   UNL     1      35.730 -23.518 -14.850  0.00  0.00    -0.332 N 
ATOM      5  C   UNL     1      34.617 -22.351 -18.020  0.00  0.00    +0.204 C 
ATOM      6  C   UNL     1      36.607 -21.491 -19.229  0.00  0.00    +0.125 C 
ATOM      7  C   UNL     1      33.519 -23.471 -15.843  0.00  0.00    +0.074 C 
ATOM      8  C   UNL     1      32.738 -23.127 -16.960  0.00  0.00    +0.134 C 
ATOM      9  C   UNL     1      34.880 -23.197 -15.938  0.00  0.00    +0.193 C 
ATOM     10  C   UNL     1      32.935 -24.058 -14.707  0.00  0.00    +0.046 C 
ATOM     11  C   UNL     1      31.371 -23.386 -16.903  0.00  0.00    +0.127 C 
ATOM     12  C   UNL     1      31.566 -24.307 -14.677  0.00  0.00    +0.169 C 
ATOM     13  C   UNL     1      30.784 -23.970 -15.776  0.00  0.00    +0.157 C 
ATOM     14  H   UNL     1      36.695 -23.328 -14.907  0.00  0.00    +0.145 HD
ATOM     15  H   UNL     1      35.357 -23.930 -14.038  0.00  0.00    +0.145 HD
ENDROOT
BRANCH  12  16
ATOM     16  O   UNL     1      31.007 -24.875 -13.573  0.00  0.00    -0.469 OA
ATOM     17  C   UNL     1      30.497 -23.992 -12.576  0.00  0.00    +0.253 C 
ENDBRANCH  12  16
BRANCH  13  18
ATOM     18  O   UNL     1      29.442 -24.204 -15.769  0.00  0.00    -0.472 OA
ATOM     19  C   UNL     1      28.585 -23.066 -15.853  0.00  0.00    +0.252 C 
ENDBRANCH  13  18
BRANCH   1  20
ATOM     20  C   UNL     1      34.354 -21.431 -20.310  0.00  0.00    +0.105 C 
BRANCH  20  21
ATOM     21  C   UNL     1      34.151 -19.920 -20.421  0.00  0.00    +0.043 C 
BRANCH  21  22
ATOM     22  C   UNL     1      35.183 -19.219 -21.303  0.00  0.00    +0.091 C 
BRANCH  22  24
ATOM     23  O   UNL     1      34.523 -17.400 -23.467  0.00  0.00    -0.272 OA
ATOM     24  N   UNL     1      35.083 -17.787 -21.239  0.00  0.00    -0.302 N 
ATOM     25  C   UNL     1      34.759 -16.993 -22.332  0.00  0.00    +0.250 C 
ATOM     26  H   UNL     1      35.251 -17.346 -20.376  0.00  0.00    +0.150 HD
BRANCH  25  28
ATOM     27  O   UNL     1      33.664 -14.973 -22.796  0.00  0.00    -0.347 OA
ATOM     28  C   UNL     1      34.698 -15.539 -21.986  0.00  0.00    +0.191 C 
ATOM     29  C   UNL     1      34.320 -15.303 -20.536  0.00  0.00    +0.042 C 
ATOM     30  C   UNL     1      32.816 -15.190 -20.604  0.00  0.00    +0.035 C 
ATOM     31  C   UNL     1      32.612 -14.509 -21.939  0.00  0.00    +0.143 C 
ENDBRANCH  25  28
ENDBRANCH  22  24
ENDBRANCH  21  22
ENDBRANCH  20  21
ENDBRANCH   1  20
TORSDOF 7
ENDMDL
