MODEL 1
REMARK VINA RESULT:      -6.0      0.000      0.000
REMARK  Name = 6274
REMARK  5 active torsions:
REMARK  status: ('A' for Active; 'I' for Inactive)
REMARK    1  A    between atoms: CA_1  and  N_2
REMARK    2  A    between atoms: CA_1  and  C_7
REMARK    3  A    between atoms: CA_1  and  CB_10
REMARK    4  A    between atoms: C_7  and  O_8
REMARK    5  A    between atoms: CB_10  and  CG_13
REMARK                            x       y       z     vdW  Elec       q    Type
REMARK                         _______ _______ _______ _____ _____    ______ ____
ROOT
ATOM      1  CA  HIS A   1      39.286 -25.052 -14.162  0.00  0.00    +0.041 C 
ENDROOT
BRANCH   1   2
ATOM      2  N   HIS A   1      38.532 -24.626 -15.338  0.00  0.00    +0.389 N 
ATOM      3  H1  HIS A   1      37.742 -25.255 -15.483  0.00  0.00    -0.088 HD
ATOM      4  H2  HIS A   1      39.138 -24.648 -16.158  0.00  0.00    -0.088 HD
ATOM      5  H3  HIS A   1      38.187 -23.676 -15.197  0.00  0.00    -0.088 HD
ENDBRANCH   1   2
BRANCH   1   7
ATOM      6  OXT HIS A   1      41.103 -26.660 -13.944  0.00  0.00    -0.253 OA
ATOM      7  C   HIS A   1      40.385 -25.976 -14.662  0.00  0.00    +0.293 C 
BRANCH   7   8
ATOM      8  O   HIS A   1      40.468 -25.992 -16.018  0.00  0.00    -0.482 OA
ATOM      9  H   HIS A   1      40.991 -25.356 -16.463  0.00  0.00    +0.295 HD
ENDBRANCH   7   8
ENDBRANCH   1   7
BRANCH   1  10
ATOM     10  CB  HIS A   1      38.348 -25.755 -13.169  0.00  0.00    +0.031 C 
BRANCH  10  13
ATOM     11  ND1 HIS A   1      35.894 -25.345 -13.063  0.00  0.00    -0.319 N 
ATOM     12  NE2 HIS A   1      35.727 -23.355 -12.094  0.00  0.00    -0.315 N 
ATOM     13  CG  HIS A   1      37.143 -24.918 -12.806  0.00  0.00    +0.036 C 
ATOM     14  CD2 HIS A   1      37.047 -23.709 -12.219  0.00  0.00    +0.069 C 
ATOM     15  CE1 HIS A   1      35.059 -24.361 -12.613  0.00  0.00    +0.182 C 
ATOM     16  HD1 HIS A   1      35.634 -26.195 -13.489  0.00  0.00    +0.148 HD
ATOM     17  HE2 HIS A   1      35.362 -22.528 -11.704  0.00  0.00    +0.148 HD
ENDBRANCH  10  13
ENDBRANCH   1  10
TORSDOF 5
ENDMDL
MODEL 2
REMARK VINA RESULT:      -6.0      3.366      4.897
REMARK  Name = 6274
REMARK  5 active torsions:
REMARK  status: ('A' for Active; 'I' for Inactive)
REMARK    1  A    between atoms: CA_1  and  N_2
REMARK    2  A    between atoms: CA_1  and  C_7
REMARK    3  A    between atoms: CA_1  and  CB_10
REMARK    4  A    between atoms: C_7  and  O_8
REMARK    5  A    between atoms: CB_10  and  CG_13
REMARK                            x       y       z     vdW  Elec       q    Type
REMARK                         _______ _______ _______ _____ _____    ______ ____
ROOT
ATOM      1  CA  HIS A   1      36.806 -24.254 -12.203  0.00  0.00    +0.041 C 
ENDROOT
BRANCH   1   2
ATOM      2  N   HIS A   1      37.702 -23.545 -11.292  0.00  0.00    +0.389 N 
ATOM      3  H1  HIS A   1      38.632 -23.961 -11.337  0.00  0.00    -0.088 HD
ATOM      4  H2  HIS A   1      37.344 -23.616 -10.340  0.00  0.00    -0.088 HD
ATOM      5  H3  HIS A   1      37.755 -22.563 -11.563  0.00  0.00    -0.088 HD
ENDBRANCH   1   2
BRANCH   1   7
ATOM      6  OXT HIS A   1      35.303 -25.110 -10.488  0.00  0.00    -0.253 OA
ATOM      7  C   HIS A   1      35.481 -24.409 -11.476  0.00  0.00    +0.293 C 
BRANCH   7   8
ATOM      8  O   HIS A   1      34.499 -23.647 -12.024  0.00  0.00    -0.482 OA
ATOM      9  H   HIS A   1      33.822 -23.293 -11.482  0.00  0.00    +0.295 HD
ENDBRANCH   7   8
ENDBRANCH   1   7
BRANCH   1  10
ATOM     10  CB  HIS A   1      37.418 -25.611 -12.583  0.00  0.00    +0.031 C 
BRANCH  10  13
ATOM     11  ND1 HIS A   1      39.642 -26.138 -13.571  0.00  0.00    -0.319 N 
ATOM     12  NE2 HIS A   1      39.645 -25.036 -15.498  0.00  0.00    -0.315 N 
ATOM     13  CG  HIS A   1      38.462 -25.501 -13.670  0.00  0.00    +0.036 C 
ATOM     14  CD2 HIS A   1      38.459 -24.830 -14.838  0.00  0.00    +0.069 C 
ATOM     15  CE1 HIS A   1      40.334 -25.827 -14.708  0.00  0.00    +0.182 C 
ATOM     16  HD1 HIS A   1      39.946 -26.712 -12.830  0.00  0.00    +0.148 HD
ATOM     17  HE2 HIS A   1      39.917 -24.670 -16.371  0.00  0.00    +0.148 HD
ENDBRANCH  10  13
ENDBRANCH   1  10
TORSDOF 5
ENDMDL
MODEL 3
REMARK VINA RESULT:      -5.8      3.405      4.571
REMARK  Name = 6274
REMARK  5 active torsions:
REMARK  status: ('A' for Active; 'I' for Inactive)
REMARK    1  A    between atoms: CA_1  and  N_2
REMARK    2  A    between atoms: CA_1  and  C_7
REMARK    3  A    between atoms: CA_1  and  CB_10
REMARK    4  A    between atoms: C_7  and  O_8
REMARK    5  A    between atoms: CB_10  and  CG_13
REMARK                            x       y       z     vdW  Elec       q    Type
REMARK                         _______ _______ _______ _____ _____    ______ ____
ROOT
ATOM      1  CA  HIS A   1      36.633 -23.375 -11.764  0.00  0.00    +0.041 C 
ENDROOT
BRANCH   1   2
ATOM      2  N   HIS A   1      38.012 -23.838 -11.629  0.00  0.00    +0.389 N 
ATOM      3  H1  HIS A   1      38.046 -24.849 -11.760  0.00  0.00    -0.088 HD
ATOM      4  H2  HIS A   1      38.360 -23.604 -10.700  0.00  0.00    -0.088 HD
ATOM      5  H3  HIS A   1      38.594 -23.385 -12.335  0.00  0.00    -0.088 HD
ENDBRANCH   1   2
BRANCH   1   7
ATOM      6  OXT HIS A   1      35.898 -24.338  -9.651  0.00  0.00    -0.253 OA
ATOM      7  C   HIS A   1      35.787 -24.264 -10.868  0.00  0.00    +0.293 C 
BRANCH   7   8
ATOM      8  O   HIS A   1      34.850 -24.959 -11.565  0.00  0.00    -0.482 OA
ATOM      9  H   HIS A   1      35.111 -25.657 -12.132  0.00  0.00    +0.295 HD
ENDBRANCH   7   8
ENDBRANCH   1   7
BRANCH   1  10
ATOM     10  CB  HIS A   1      36.198 -23.458 -13.235  0.00  0.00    +0.031 C 
BRANCH  10  13
ATOM     11  ND1 HIS A   1      36.468 -25.832 -13.938  0.00  0.00    -0.319 N 
ATOM     12  NE2 HIS A   1      38.248 -25.795 -15.266  0.00  0.00    -0.315 N 
ATOM     13  CG  HIS A   1      36.901 -24.559 -13.994  0.00  0.00    +0.036 C 
ATOM     14  CD2 HIS A   1      37.982 -24.533 -14.799  0.00  0.00    +0.069 C 
ATOM     15  CE1 HIS A   1      37.319 -26.554 -14.728  0.00  0.00    +0.182 C 
ATOM     16  HD1 HIS A   1      35.696 -26.173 -13.431  0.00  0.00    +0.148 HD
ATOM     17  HE2 HIS A   1      38.975 -26.071 -15.869  0.00  0.00    +0.148 HD
ENDBRANCH  10  13
ENDBRANCH   1  10
TORSDOF 5
ENDMDL
MODEL 4
REMARK VINA RESULT:      -5.7      1.667      2.006
REMARK  Name = 6274
REMARK  5 active torsions:
REMARK  status: ('A' for Active; 'I' for Inactive)
REMARK    1  A    between atoms: CA_1  and  N_2
REMARK    2  A    between atoms: CA_1  and  C_7
REMARK    3  A    between atoms: CA_1  and  CB_10
REMARK    4  A    between atoms: C_7  and  O_8
REMARK    5  A    between atoms: CB_10  and  CG_13
REMARK                            x       y       z     vdW  Elec       q    Type
REMARK                         _______ _______ _______ _____ _____    ______ ____
ROOT
ATOM      1  CA  HIS A   1      38.659 -25.544 -14.656  0.00  0.00    +0.041 C 
ENDROOT
BRANCH   1   2
ATOM      2  N   HIS A   1      38.569 -26.055 -13.291  0.00  0.00    +0.389 N 
ATOM      3  H1  HIS A   1      38.421 -27.064 -13.314  0.00  0.00    -0.088 HD
ATOM      4  H2  HIS A   1      37.787 -25.609 -12.811  0.00  0.00    -0.088 HD
ATOM      5  H3  HIS A   1      39.435 -25.850 -12.792  0.00  0.00    -0.088 HD
ENDBRANCH   1   2
BRANCH   1   7
ATOM      6  OXT HIS A   1      40.914 -24.720 -14.244  0.00  0.00    -0.253 OA
ATOM      7  C   HIS A   1      40.137 -25.351 -14.950  0.00  0.00    +0.293 C 
BRANCH   7   8
ATOM      8  O   HIS A   1      40.526 -25.991 -16.083  0.00  0.00    -0.482 OA
ATOM      9  H   HIS A   1      40.614 -25.515 -16.885  0.00  0.00    +0.295 HD
ENDBRANCH   7   8
ENDBRANCH   1   7
BRANCH   1  10
ATOM     10  CB  HIS A   1      37.871 -24.230 -14.772  0.00  0.00    +0.031 C 
BRANCH  10  13
ATOM     11  ND1 HIS A   1      35.923 -23.774 -13.288  0.00  0.00    -0.319 N 
ATOM     12  NE2 HIS A   1      34.258 -24.896 -14.234  0.00  0.00    -0.315 N 
ATOM     13  CG  HIS A   1      36.419 -24.380 -14.382  0.00  0.00    +0.036 C 
ATOM     14  CD2 HIS A   1      35.411 -25.063 -14.960  0.00  0.00    +0.069 C 
ATOM     15  CE1 HIS A   1      34.601 -24.116 -13.235  0.00  0.00    +0.182 C 
ATOM     16  HD1 HIS A   1      36.414 -23.200 -12.655  0.00  0.00    +0.148 HD
ATOM     17  HE2 HIS A   1      33.370 -25.279 -14.422  0.00  0.00    +0.148 HD
ENDBRANCH  10  13
ENDBRANCH   1  10
TORSDOF 5
ENDMDL
MODEL 5
REMARK VINA RESULT:      -5.7      2.981      4.793
REMARK  Name = 6274
REMARK  5 active torsions:
REMARK  status: ('A' for Active; 'I' for Inactive)
REMARK    1  A    between atoms: CA_1  and  N_2
REMARK    2  A    between atoms: CA_1  and  C_7
REMARK    3  A    between atoms: CA_1  and  CB_10
REMARK    4  A    between atoms: C_7  and  O_8
REMARK    5  A    between atoms: CB_10  and  CG_13
REMARK                            x       y       z     vdW  Elec       q    Type
REMARK                         _______ _______ _______ _____ _____    ______ ____
ROOT
ATOM      1  CA  HIS A   1      36.372 -24.653 -12.325  0.00  0.00    +0.041 C 
ENDROOT
BRANCH   1   2
ATOM      2  N   HIS A   1      34.916 -24.678 -12.449  0.00  0.00    +0.389 N 
ATOM      3  H1  HIS A   1      34.618 -23.957 -13.105  0.00  0.00    -0.088 HD
ATOM      4  H2  HIS A   1      34.494 -24.504 -11.537  0.00  0.00    -0.088 HD
ATOM      5  H3  HIS A   1      34.619 -25.593 -12.791  0.00  0.00    -0.088 HD
ENDBRANCH   1   2
BRANCH   1   7
ATOM      6  OXT HIS A   1      37.358 -22.720 -11.218  0.00  0.00    -0.253 OA
ATOM      7  C   HIS A   1      36.692 -23.745 -11.149  0.00  0.00    +0.293 C 
BRANCH   7   8
ATOM      8  O   HIS A   1      36.123 -24.177  -9.993  0.00  0.00    -0.482 OA
ATOM      9  H   HIS A   1      35.216 -24.410  -9.976  0.00  0.00    +0.295 HD
ENDBRANCH   7   8
ENDBRANCH   1   7
BRANCH   1  10
ATOM     10  CB  HIS A   1      36.996 -24.145 -13.633  0.00  0.00    +0.031 C 
BRANCH  10  13
ATOM     11  ND1 HIS A   1      38.884 -24.672 -15.170  0.00  0.00    -0.319 N 
ATOM     12  NE2 HIS A   1      40.160 -26.055 -13.993  0.00  0.00    -0.315 N 
ATOM     13  CG  HIS A   1      38.295 -24.840 -13.973  0.00  0.00    +0.036 C 
ATOM     14  CD2 HIS A   1      39.066 -25.681 -13.255  0.00  0.00    +0.069 C 
ATOM     15  CE1 HIS A   1      40.020 -25.431 -15.141  0.00  0.00    +0.182 C 
ATOM     16  HD1 HIS A   1      38.562 -24.114 -15.916  0.00  0.00    +0.148 HD
ATOM     17  HE2 HIS A   1      40.889 -26.660 -13.721  0.00  0.00    +0.148 HD
ENDBRANCH  10  13
ENDBRANCH   1  10
TORSDOF 5
ENDMDL
MODEL 6
REMARK VINA RESULT:      -5.7      7.400      9.025
REMARK  Name = 6274
REMARK  5 active torsions:
REMARK  status: ('A' for Active; 'I' for Inactive)
REMARK    1  A    between atoms: CA_1  and  N_2
REMARK    2  A    between atoms: CA_1  and  C_7
REMARK    3  A    between atoms: CA_1  and  CB_10
REMARK    4  A    between atoms: C_7  and  O_8
REMARK    5  A    between atoms: CB_10  and  CG_13
REMARK                            x       y       z     vdW  Elec       q    Type
REMARK                         _______ _______ _______ _____ _____    ______ ____
ROOT
ATOM      1  CA  HIS A   1      29.761 -23.265 -16.371  0.00  0.00    +0.041 C 
ENDROOT
BRANCH   1   2
ATOM      2  N   HIS A   1      30.722 -22.478 -17.138  0.00  0.00    +0.389 N 
ATOM      3  H1  HIS A   1      30.415 -21.506 -17.174  0.00  0.00    -0.088 HD
ATOM      4  H2  HIS A   1      30.787 -22.849 -18.086  0.00  0.00    -0.088 HD
ATOM      5  H3  HIS A   1      31.638 -22.528 -16.691  0.00  0.00    -0.088 HD
ENDBRANCH   1   2
BRANCH   1   7
ATOM      6  OXT HIS A   1      27.902 -21.718 -16.659  0.00  0.00    -0.253 OA
ATOM      7  C   HIS A   1      28.379 -22.832 -16.832  0.00  0.00    +0.293 C 
BRANCH   7   8
ATOM      8  O   HIS A   1      27.725 -23.818 -17.499  0.00  0.00    -0.482 OA
ATOM      9  H   HIS A   1      27.894 -24.716 -17.293  0.00  0.00    +0.295 HD
ENDBRANCH   7   8
ENDBRANCH   1   7
BRANCH   1  10
ATOM     10  CB  HIS A   1      29.971 -23.022 -14.868  0.00  0.00    +0.031 C 
BRANCH  10  13
ATOM     11  ND1 HIS A   1      32.326 -23.029 -14.057  0.00  0.00    -0.319 N 
ATOM     12  NE2 HIS A   1      32.712 -25.157 -13.560  0.00  0.00    -0.315 N 
ATOM     13  CG  HIS A   1      31.200 -23.714 -14.327  0.00  0.00    +0.036 C 
ATOM     14  CD2 HIS A   1      31.431 -25.008 -14.027  0.00  0.00    +0.069 C 
ATOM     15  CE1 HIS A   1      33.223 -23.947 -13.591  0.00  0.00    +0.182 C 
ATOM     16  HD1 HIS A   1      32.472 -22.061 -14.172  0.00  0.00    +0.148 HD
ATOM     17  HE2 HIS A   1      33.150 -25.989 -13.266  0.00  0.00    +0.148 HD
ENDBRANCH  10  13
ENDBRANCH   1  10
TORSDOF 5
ENDMDL
MODEL 7
REMARK VINA RESULT:      -5.6     10.289     10.869
REMARK  Name = 6274
REMARK  5 active torsions:
REMARK  status: ('A' for Active; 'I' for Inactive)
REMARK    1  A    between atoms: CA_1  and  N_2
REMARK    2  A    between atoms: CA_1  and  C_7
REMARK    3  A    between atoms: CA_1  and  CB_10
REMARK    4  A    between atoms: C_7  and  O_8
REMARK    5  A    between atoms: CB_10  and  CG_13
REMARK                            x       y       z     vdW  Elec       q    Type
REMARK                         _______ _______ _______ _____ _____    ______ ____
ROOT
ATOM      1  CA  HIS A   1      34.991 -17.897 -22.178  0.00  0.00    +0.041 C 
ENDROOT
BRANCH   1   2
ATOM      2  N   HIS A   1      35.817 -17.711 -23.369  0.00  0.00    +0.389 N 
ATOM      3  H1  HIS A   1      36.277 -18.590 -23.605  0.00  0.00    -0.088 HD
ATOM      4  H2  HIS A   1      36.523 -16.997 -23.186  0.00  0.00    -0.088 HD
ATOM      5  H3  HIS A   1      35.229 -17.415 -24.148  0.00  0.00    -0.088 HD
ENDBRANCH   1   2
BRANCH   1   7
ATOM      6  OXT HIS A   1      35.102 -16.391 -20.266  0.00  0.00    -0.253 OA
ATOM      7  C   HIS A   1      34.943 -16.553 -21.470  0.00  0.00    +0.293 C 
BRANCH   7   8
ATOM      8  O   HIS A   1      34.735 -15.523 -22.330  0.00  0.00    -0.482 OA
ATOM      9  H   HIS A   1      34.952 -15.618 -23.236  0.00  0.00    +0.295 HD
ENDBRANCH   7   8
ENDBRANCH   1   7
BRANCH   1  10
ATOM     10  CB  HIS A   1      35.597 -18.995 -21.292  0.00  0.00    +0.031 C 
BRANCH  10  13
ATOM     11  ND1 HIS A   1      34.898 -20.941 -19.903  0.00  0.00    -0.319 N 
ATOM     12  NE2 HIS A   1      32.681 -20.891 -19.993  0.00  0.00    -0.315 N 
ATOM     13  CG  HIS A   1      34.552 -19.892 -20.670  0.00  0.00    +0.036 C 
ATOM     14  CD2 HIS A   1      33.206 -19.858 -20.728  0.00  0.00    +0.069 C 
ATOM     15  CE1 HIS A   1      33.726 -21.524 -19.510  0.00  0.00    +0.182 C 
ATOM     16  HD1 HIS A   1      35.811 -21.229 -19.671  0.00  0.00    +0.148 HD
ATOM     17  HE2 HIS A   1      31.730 -21.109 -19.859  0.00  0.00    +0.148 HD
ENDBRANCH  10  13
ENDBRANCH   1  10
TORSDOF 5
ENDMDL
MODEL 8
REMARK VINA RESULT:      -5.5      9.266     10.030
REMARK  Name = 6274
REMARK  5 active torsions:
REMARK  status: ('A' for Active; 'I' for Inactive)
REMARK    1  A    between atoms: CA_1  and  N_2
REMARK    2  A    between atoms: CA_1  and  C_7
REMARK    3  A    between atoms: CA_1  and  CB_10
REMARK    4  A    between atoms: C_7  and  O_8
REMARK    5  A    between atoms: CB_10  and  CG_13
REMARK                            x       y       z     vdW  Elec       q    Type
REMARK                         _______ _______ _______ _____ _____    ______ ____
ROOT
ATOM      1  CA  HIS A   1      33.752 -21.288 -20.104  0.00  0.00    +0.041 C 
ENDROOT
BRANCH   1   2
ATOM      2  N   HIS A   1      32.664 -20.336 -19.895  0.00  0.00    +0.389 N 
ATOM      3  H1  HIS A   1      32.735 -19.582 -20.577  0.00  0.00    -0.088 HD
ATOM      4  H2  HIS A   1      32.726 -19.949 -18.953  0.00  0.00    -0.088 HD
ATOM      5  H3  HIS A   1      31.768 -20.812 -20.007  0.00  0.00    -0.088 HD
ENDBRANCH   1   2
BRANCH   1   7
ATOM      6  OXT HIS A   1      34.694 -22.838 -18.477  0.00  0.00    -0.253 OA
ATOM      7  C   HIS A   1      33.719 -22.249 -18.927  0.00  0.00    +0.293 C 
BRANCH   7   8
ATOM      8  O   HIS A   1      32.476 -22.367 -18.391  0.00  0.00    -0.482 OA
ATOM      9  H   HIS A   1      32.375 -22.586 -17.486  0.00  0.00    +0.295 HD
ENDBRANCH   7   8
ENDBRANCH   1   7
BRANCH   1  10
ATOM     10  CB  HIS A   1      35.089 -20.537 -20.198  0.00  0.00    +0.031 C 
BRANCH  10  13
ATOM     11  ND1 HIS A   1      35.346 -18.138 -20.816  0.00  0.00    -0.319 N 
ATOM     12  NE2 HIS A   1      34.865 -18.091 -22.983  0.00  0.00    -0.315 N 
ATOM     13  CG  HIS A   1      35.053 -19.397 -21.190  0.00  0.00    +0.036 C 
ATOM     14  CD2 HIS A   1      34.759 -19.373 -22.505  0.00  0.00    +0.069 C 
ATOM     15  CE1 HIS A   1      35.219 -17.373 -21.941  0.00  0.00    +0.182 C 
ATOM     16  HD1 HIS A   1      35.601 -17.831 -19.915  0.00  0.00    +0.148 HD
ATOM     17  HE2 HIS A   1      34.708 -17.780 -23.904  0.00  0.00    +0.148 HD
ENDBRANCH  10  13
ENDBRANCH   1  10
TORSDOF 5
ENDMDL
MODEL 9
REMARK VINA RESULT:      -5.5      9.558     10.179
REMARK  Name = 6274
REMARK  5 active torsions:
REMARK  status: ('A' for Active; 'I' for Inactive)
REMARK    1  A    between atoms: CA_1  and  N_2
REMARK    2  A    between atoms: CA_1  and  C_7
REMARK    3  A    between atoms: CA_1  and  CB_10
REMARK    4  A    between atoms: C_7  and  O_8
REMARK    5  A    between atoms: CB_10  and  CG_13
REMARK                            x       y       z     vdW  Elec       q    Type
REMARK                         _______ _______ _______ _____ _____    ______ ____
ROOT
ATOM      1  CA  HIS A   1      35.148 -18.681 -21.463  0.00  0.00    +0.041 C 
ENDROOT
BRANCH   1   2
ATOM      2  N   HIS A   1      35.236 -17.383 -20.799  0.00  0.00    +0.389 N 
ATOM      3  H1  HIS A   1      34.865 -16.660 -21.414  0.00  0.00    -0.088 HD
ATOM      4  H2  HIS A   1      36.211 -17.177 -20.581  0.00  0.00    -0.088 HD
ATOM      5  H3  HIS A   1      34.692 -17.405 -19.935  0.00  0.00    -0.088 HD
ENDBRANCH   1   2
BRANCH   1   7
ATOM      6  OXT HIS A   1      34.833 -19.144 -23.834  0.00  0.00    -0.253 OA
ATOM      7  C   HIS A   1      35.273 -18.415 -22.954  0.00  0.00    +0.293 C 
BRANCH   7   8
ATOM      8  O   HIS A   1      35.907 -17.242 -23.218  0.00  0.00    -0.482 OA
ATOM      9  H   HIS A   1      35.637 -16.717 -23.945  0.00  0.00    +0.295 HD
ENDBRANCH   7   8
ENDBRANCH   1   7
BRANCH   1  10
ATOM     10  CB  HIS A   1      33.815 -19.358 -21.108  0.00  0.00    +0.031 C 
BRANCH  10  13
ATOM     11  ND1 HIS A   1      32.932 -21.117 -19.581  0.00  0.00    -0.319 N 
ATOM     12  NE2 HIS A   1      34.741 -22.244 -18.963  0.00  0.00    -0.315 N 
ATOM     13  CG  HIS A   1      33.987 -20.548 -20.192  0.00  0.00    +0.036 C 
ATOM     14  CD2 HIS A   1      35.088 -21.229 -19.818  0.00  0.00    +0.069 C 
ATOM     15  CE1 HIS A   1      33.437 -22.149 -18.841  0.00  0.00    +0.182 C 
ATOM     16  HD1 HIS A   1      31.987 -20.845 -19.654  0.00  0.00    +0.148 HD
ATOM     17  HE2 HIS A   1      35.340 -22.899 -18.536  0.00  0.00    +0.148 HD
ENDBRANCH  10  13
ENDBRANCH   1  10
TORSDOF 5
ENDMDL
