MODEL 1
REMARK VINA RESULT:     -10.6      0.000      0.000
REMARK  Name = 446238
REMARK  5 active torsions:
REMARK  status: ('A' for Active; 'I' for Inactive)
REMARK    1  A    between atoms: N_2  and  C_17
REMARK    2  A    between atoms: C_3  and  C_5
REMARK    3  A    between atoms: C_6  and  S_11
REMARK    4  A    between atoms: S_11  and  N_14
REMARK    5  A    between atoms: C_17  and  C_20
REMARK                            x       y       z     vdW  Elec       q    Type
REMARK                         _______ _______ _______ _____ _____    ______ ____
ROOT
ATOM      1  O   UNL     1      32.353 -23.300 -16.581  0.00  0.00    -0.270 OA
ATOM      2  N   UNL     1      34.326 -22.720 -17.654  0.00  0.00    -0.297 N 
ATOM      3  C   UNL     1      33.588 -23.155 -16.546  0.00  0.00    +0.246 C 
ATOM      4  H   UNL     1      35.300 -22.627 -17.557  0.00  0.00    +0.150 HD
ENDROOT
BRANCH   3   5
ATOM      5  C   UNL     1      34.328 -23.411 -15.321  0.00  0.00    +0.053 C 
ATOM      6  C   UNL     1      35.747 -23.903 -12.969  0.00  0.00    +0.122 C 
ATOM      7  C   UNL     1      33.700 -24.040 -14.245  0.00  0.00    +0.006 C 
ATOM      8  C   UNL     1      35.665 -23.029 -15.220  0.00  0.00    +0.006 C 
ATOM      9  C   UNL     1      34.409 -24.286 -13.070  0.00  0.00    +0.020 C 
ATOM     10  C   UNL     1      36.375 -23.274 -14.045  0.00  0.00    +0.020 C 
BRANCH   6  11
ATOM     11  S   UNL     1      36.636 -24.213 -11.499  0.00  0.00    +0.057 S 
ATOM     12  O   UNL     1      37.561 -25.311 -11.745  0.00  0.00    -0.153 OA
ATOM     13  O   UNL     1      37.135 -22.946 -10.985  0.00  0.00    -0.153 OA
BRANCH  11  14
ATOM     14  N   UNL     1      35.386 -24.766 -10.474  0.00  0.00    -0.203 NA
ATOM     15  H   UNL     1      34.978 -23.974  -9.977  0.00  0.00    +0.144 HD
ATOM     16  H   UNL     1      35.768 -25.430  -9.799  0.00  0.00    +0.144 HD
ENDBRANCH  11  14
ENDBRANCH   6  11
ENDBRANCH   3   5
BRANCH   2  17
ATOM     17  C   UNL     1      33.732 -22.402 -18.933  0.00  0.00    +0.119 C 
BRANCH  17  20
ATOM     18  F   UNL     1      32.474 -20.386 -20.463  0.00  0.00    -0.204 F 
ATOM     19  F   UNL     1      36.603 -18.392 -21.630  0.00  0.00    -0.204 F 
ATOM     20  C   UNL     1      34.496 -21.330 -19.655  0.00  0.00    +0.025 C 
ATOM     21  C   UNL     1      33.812 -20.369 -20.391  0.00  0.00    +0.140 C 
ATOM     22  C   UNL     1      35.885 -21.309 -19.580  0.00  0.00    +0.002 C 
ATOM     23  C   UNL     1      34.525 -19.374 -21.059  0.00  0.00    +0.059 C 
ATOM     24  C   UNL     1      36.598 -20.316 -20.249  0.00  0.00    +0.030 C 
ATOM     25  C   UNL     1      35.918 -19.348 -20.989  0.00  0.00    +0.142 C 
ENDBRANCH  17  20
ENDBRANCH   2  17
TORSDOF 5
ENDMDL
MODEL 2
REMARK VINA RESULT:     -10.6      5.077      7.596
REMARK  Name = 446238
REMARK  5 active torsions:
REMARK  status: ('A' for Active; 'I' for Inactive)
REMARK    1  A    between atoms: N_2  and  C_17
REMARK    2  A    between atoms: C_3  and  C_5
REMARK    3  A    between atoms: C_6  and  S_11
REMARK    4  A    between atoms: S_11  and  N_14
REMARK    5  A    between atoms: C_17  and  C_20
REMARK                            x       y       z     vdW  Elec       q    Type
REMARK                         _______ _______ _______ _____ _____    ______ ____
ROOT
ATOM      1  O   UNL     1      35.651 -18.368 -23.231  0.00  0.00    -0.270 OA
ATOM      2  N   UNL     1      34.696 -16.918 -21.694  0.00  0.00    -0.297 N 
ATOM      3  C   UNL     1      35.095 -18.186 -22.134  0.00  0.00    +0.246 C 
ATOM      4  H   UNL     1      34.260 -16.846 -20.815  0.00  0.00    +0.150 HD
ENDROOT
BRANCH   3   5
ATOM      5  C   UNL     1      34.806 -19.309 -21.257  0.00  0.00    +0.053 C 
ATOM      6  C   UNL     1      34.253 -21.466 -19.576  0.00  0.00    +0.122 C 
ATOM      7  C   UNL     1      33.483 -19.663 -20.988  0.00  0.00    +0.006 C 
ATOM      8  C   UNL     1      35.851 -20.035 -20.686  0.00  0.00    +0.006 C 
ATOM      9  C   UNL     1      33.207 -20.740 -20.147  0.00  0.00    +0.020 C 
ATOM     10  C   UNL     1      35.575 -21.113 -19.845  0.00  0.00    +0.020 C 
BRANCH   6  11
ATOM     11  S   UNL     1      33.907 -22.817 -18.525  0.00  0.00    +0.057 S 
ATOM     12  O   UNL     1      33.866 -24.028 -19.333  0.00  0.00    -0.153 OA
ATOM     13  O   UNL     1      34.792 -22.745 -17.372  0.00  0.00    -0.153 OA
BRANCH  11  14
ATOM     14  N   UNL     1      32.318 -22.439 -18.021  0.00  0.00    -0.203 NA
ATOM     15  H   UNL     1      32.349 -21.997 -17.103  0.00  0.00    +0.144 HD
ATOM     16  H   UNL     1      31.765 -23.295 -17.969  0.00  0.00    +0.144 HD
ENDBRANCH  11  14
ENDBRANCH   6  11
ENDBRANCH   3   5
BRANCH   2  17
ATOM     17  C   UNL     1      34.891 -15.709 -22.462  0.00  0.00    +0.119 C 
BRANCH  17  20
ATOM     18  F   UNL     1      33.962 -13.834 -24.362  0.00  0.00    -0.204 F 
ATOM     19  F   UNL     1      31.017 -11.819 -21.254  0.00  0.00    -0.204 F 
ATOM     20  C   UNL     1      33.856 -14.668 -22.142  0.00  0.00    +0.025 C 
ATOM     21  C   UNL     1      33.446 -13.776 -23.126  0.00  0.00    +0.140 C 
ATOM     22  C   UNL     1      33.319 -14.608 -20.860  0.00  0.00    +0.002 C 
ATOM     23  C   UNL     1      32.485 -12.812 -22.825  0.00  0.00    +0.059 C 
ATOM     24  C   UNL     1      32.359 -13.643 -20.560  0.00  0.00    +0.030 C 
ATOM     25  C   UNL     1      31.941 -12.744 -21.542  0.00  0.00    +0.142 C 
ENDBRANCH  17  20
ENDBRANCH   2  17
TORSDOF 5
ENDMDL
MODEL 3
REMARK VINA RESULT:     -10.4      4.809      7.308
REMARK  Name = 446238
REMARK  5 active torsions:
REMARK  status: ('A' for Active; 'I' for Inactive)
REMARK    1  A    between atoms: N_2  and  C_17
REMARK    2  A    between atoms: C_3  and  C_5
REMARK    3  A    between atoms: C_6  and  S_11
REMARK    4  A    between atoms: S_11  and  N_14
REMARK    5  A    between atoms: C_17  and  C_20
REMARK                            x       y       z     vdW  Elec       q    Type
REMARK                         _______ _______ _______ _____ _____    ______ ____
ROOT
ATOM      1  O   UNL     1      36.710 -18.308 -22.240  0.00  0.00    -0.270 OA
ATOM      2  N   UNL     1      34.648 -17.305 -21.891  0.00  0.00    -0.297 N 
ATOM      3  C   UNL     1      35.581 -18.335 -21.717  0.00  0.00    +0.246 C 
ATOM      4  H   UNL     1      33.773 -17.391 -21.449  0.00  0.00    +0.150 HD
ENDROOT
BRANCH   3   5
ATOM      5  C   UNL     1      35.167 -19.472 -20.912  0.00  0.00    +0.053 C 
ATOM      6  C   UNL     1      34.373 -21.655 -19.367  0.00  0.00    +0.122 C 
ATOM      7  C   UNL     1      33.810 -19.752 -20.745  0.00  0.00    +0.006 C 
ATOM      8  C   UNL     1      36.126 -20.284 -20.306  0.00  0.00    +0.006 C 
ATOM      9  C   UNL     1      33.414 -20.843 -19.973  0.00  0.00    +0.020 C 
ATOM     10  C   UNL     1      35.729 -21.375 -19.533  0.00  0.00    +0.020 C 
BRANCH   6  11
ATOM     11  S   UNL     1      33.876 -23.022 -18.401  0.00  0.00    +0.057 S 
ATOM     12  O   UNL     1      33.792 -24.190 -19.268  0.00  0.00    -0.153 OA
ATOM     13  O   UNL     1      34.702 -23.068 -17.203  0.00  0.00    -0.153 OA
BRANCH  11  14
ATOM     14  N   UNL     1      32.294 -22.551 -17.959  0.00  0.00    -0.203 NA
ATOM     15  H   UNL     1      31.851 -23.301 -17.430  0.00  0.00    +0.144 HD
ATOM     16  H   UNL     1      31.749 -22.360 -18.801  0.00  0.00    +0.144 HD
ENDBRANCH  11  14
ENDBRANCH   6  11
ENDBRANCH   3   5
BRANCH   2  17
ATOM     17  C   UNL     1      34.902 -16.123 -22.682  0.00  0.00    +0.119 C 
BRANCH  17  20
ATOM     18  F   UNL     1      34.235 -15.333 -20.051  0.00  0.00    -0.204 F 
ATOM     19  F   UNL     1      31.228 -12.014 -21.578  0.00  0.00    -0.204 F 
ATOM     20  C   UNL     1      33.920 -15.026 -22.383  0.00  0.00    +0.025 C 
ATOM     21  C   UNL     1      33.639 -14.689 -21.064  0.00  0.00    +0.140 C 
ATOM     22  C   UNL     1      33.302 -14.356 -23.434  0.00  0.00    +0.002 C 
ATOM     23  C   UNL     1      32.727 -13.670 -20.791  0.00  0.00    +0.059 C 
ATOM     24  C   UNL     1      32.390 -13.338 -23.161  0.00  0.00    +0.030 C 
ATOM     25  C   UNL     1      32.102 -12.994 -21.840  0.00  0.00    +0.142 C 
ENDBRANCH  17  20
ENDBRANCH   2  17
TORSDOF 5
ENDMDL
MODEL 4
REMARK VINA RESULT:     -10.1      1.371      2.053
REMARK  Name = 446238
REMARK  5 active torsions:
REMARK  status: ('A' for Active; 'I' for Inactive)
REMARK    1  A    between atoms: N_2  and  C_17
REMARK    2  A    between atoms: C_3  and  C_5
REMARK    3  A    between atoms: C_6  and  S_11
REMARK    4  A    between atoms: S_11  and  N_14
REMARK    5  A    between atoms: C_17  and  C_20
REMARK                            x       y       z     vdW  Elec       q    Type
REMARK                         _______ _______ _______ _____ _____    ______ ____
ROOT
ATOM      1  O   UNL     1      32.675 -23.286 -16.635  0.00  0.00    -0.270 OA
ATOM      2  N   UNL     1      34.485 -22.718 -17.970  0.00  0.00    -0.297 N 
ATOM      3  C   UNL     1      33.902 -23.120 -16.762  0.00  0.00    +0.246 C 
ATOM      4  H   UNL     1      35.462 -22.606 -18.000  0.00  0.00    +0.150 HD
ENDROOT
BRANCH   3   5
ATOM      5  C   UNL     1      34.794 -23.315 -15.631  0.00  0.00    +0.053 C 
ATOM      6  C   UNL     1      36.506 -23.688 -13.460  0.00  0.00    +0.122 C 
ATOM      7  C   UNL     1      36.158 -23.052 -15.764  0.00  0.00    +0.006 C 
ATOM      8  C   UNL     1      34.287 -23.764 -14.412  0.00  0.00    +0.006 C 
ATOM      9  C   UNL     1      37.013 -23.239 -14.679  0.00  0.00    +0.020 C 
ATOM     10  C   UNL     1      35.142 -23.951 -13.326  0.00  0.00    +0.020 C 
BRANCH   6  11
ATOM     11  S   UNL     1      37.576 -23.919 -12.100  0.00  0.00    +0.057 S 
ATOM     12  O   UNL     1      37.045 -24.996 -11.275  0.00  0.00    -0.153 OA
ATOM     13  O   UNL     1      38.943 -23.993 -12.595  0.00  0.00    -0.153 OA
BRANCH  11  14
ATOM     14  N   UNL     1      37.373 -22.439 -11.270  0.00  0.00    -0.203 NA
ATOM     15  H   UNL     1      37.000 -21.739 -11.911  0.00  0.00    +0.144 HD
ATOM     16  H   UNL     1      38.275 -22.125 -10.910  0.00  0.00    +0.144 HD
ENDBRANCH  11  14
ENDBRANCH   6  11
ENDBRANCH   3   5
BRANCH   2  17
ATOM     17  C   UNL     1      33.729 -22.462 -19.175  0.00  0.00    +0.119 C 
BRANCH  17  20
ATOM     18  F   UNL     1      36.451 -21.839 -19.616  0.00  0.00    -0.204 F 
ATOM     19  F   UNL     1      35.393 -17.749 -21.748  0.00  0.00    -0.204 F 
ATOM     20  C   UNL     1      34.177 -21.203 -19.861  0.00  0.00    +0.025 C 
ATOM     21  C   UNL     1      35.533 -20.961 -20.045  0.00  0.00    +0.140 C 
ATOM     22  C   UNL     1      33.227 -20.291 -20.308  0.00  0.00    +0.002 C 
ATOM     23  C   UNL     1      35.946 -19.791 -20.683  0.00  0.00    +0.059 C 
ATOM     24  C   UNL     1      33.639 -19.122 -20.946  0.00  0.00    +0.030 C 
ATOM     25  C   UNL     1      34.998 -18.872 -21.134  0.00  0.00    +0.142 C 
ENDBRANCH  17  20
ENDBRANCH   2  17
TORSDOF 5
ENDMDL
MODEL 5
REMARK VINA RESULT:      -9.9      5.211      8.466
REMARK  Name = 446238
REMARK  5 active torsions:
REMARK  status: ('A' for Active; 'I' for Inactive)
REMARK    1  A    between atoms: N_2  and  C_17
REMARK    2  A    between atoms: C_3  and  C_5
REMARK    3  A    between atoms: C_6  and  S_11
REMARK    4  A    between atoms: S_11  and  N_14
REMARK    5  A    between atoms: C_17  and  C_20
REMARK                            x       y       z     vdW  Elec       q    Type
REMARK                         _______ _______ _______ _____ _____    ______ ____
ROOT
ATOM      1  O   UNL     1      33.908 -23.879 -19.155  0.00  0.00    -0.270 OA
ATOM      2  N   UNL     1      33.828 -22.506 -17.288  0.00  0.00    -0.297 N 
ATOM      3  C   UNL     1      33.994 -22.742 -18.658  0.00  0.00    +0.246 C 
ATOM      4  H   UNL     1      33.909 -21.581 -16.962  0.00  0.00    +0.150 HD
ENDROOT
BRANCH   3   5
ATOM      5  C   UNL     1      34.303 -21.593 -19.493  0.00  0.00    +0.053 C 
ATOM      6  C   UNL     1      34.897 -19.387 -21.095  0.00  0.00    +0.122 C 
ATOM      7  C   UNL     1      33.272 -20.808 -20.011  0.00  0.00    +0.006 C 
ATOM      8  C   UNL     1      35.631 -21.273 -19.777  0.00  0.00    +0.006 C 
ATOM      9  C   UNL     1      33.569 -19.706 -20.811  0.00  0.00    +0.020 C 
ATOM     10  C   UNL     1      35.929 -20.171 -20.577  0.00  0.00    +0.020 C 
BRANCH   6  11
ATOM     11  S   UNL     1      35.269 -18.006 -22.096  0.00  0.00    +0.057 S 
ATOM     12  O   UNL     1      34.523 -18.126 -23.341  0.00  0.00    -0.153 OA
ATOM     13  O   UNL     1      35.141 -16.801 -21.289  0.00  0.00    -0.153 OA
BRANCH  11  14
ATOM     14  N   UNL     1      36.926 -18.275 -22.419  0.00  0.00    -0.203 NA
ATOM     15  H   UNL     1      37.264 -17.568 -23.071  0.00  0.00    +0.144 HD
ATOM     16  H   UNL     1      37.045 -19.202 -22.830  0.00  0.00    +0.144 HD
ENDBRANCH  11  14
ENDBRANCH   6  11
ENDBRANCH   3   5
BRANCH   2  17
ATOM     17  C   UNL     1      33.542 -23.547 -16.328  0.00  0.00    +0.119 C 
BRANCH  17  20
ATOM     18  F   UNL     1      32.540 -25.073 -14.170  0.00  0.00    -0.204 F 
ATOM     19  F   UNL     1      28.081 -23.728 -15.006  0.00  0.00    -0.204 F 
ATOM     20  C   UNL     1      32.083 -23.598 -15.972  0.00  0.00    +0.025 C 
ATOM     21  C   UNL     1      31.660 -24.371 -14.897  0.00  0.00    +0.140 C 
ATOM     22  C   UNL     1      31.169 -22.869 -16.725  0.00  0.00    +0.002 C 
ATOM     23  C   UNL     1      30.305 -24.415 -14.570  0.00  0.00    +0.059 C 
ATOM     24  C   UNL     1      29.815 -22.914 -16.399  0.00  0.00    +0.030 C 
ATOM     25  C   UNL     1      29.382 -23.687 -15.321  0.00  0.00    +0.142 C 
ENDBRANCH  17  20
ENDBRANCH   2  17
TORSDOF 5
ENDMDL
MODEL 6
REMARK VINA RESULT:      -9.9      4.963      7.305
REMARK  Name = 446238
REMARK  5 active torsions:
REMARK  status: ('A' for Active; 'I' for Inactive)
REMARK    1  A    between atoms: N_2  and  C_17
REMARK    2  A    between atoms: C_3  and  C_5
REMARK    3  A    between atoms: C_6  and  S_11
REMARK    4  A    between atoms: S_11  and  N_14
REMARK    5  A    between atoms: C_17  and  C_20
REMARK                            x       y       z     vdW  Elec       q    Type
REMARK                         _______ _______ _______ _____ _____    ______ ____
ROOT
ATOM      1  O   UNL     1      36.733 -18.211 -22.251  0.00  0.00    -0.270 OA
ATOM      2  N   UNL     1      34.922 -17.018 -21.429  0.00  0.00    -0.297 N 
ATOM      3  C   UNL     1      35.709 -18.170 -21.546  0.00  0.00    +0.246 C 
ATOM      4  H   UNL     1      34.124 -17.055 -20.854  0.00  0.00    +0.150 HD
ENDROOT
BRANCH   3   5
ATOM      5  C   UNL     1      35.264 -19.349 -20.821  0.00  0.00    +0.053 C 
ATOM      6  C   UNL     1      34.409 -21.613 -19.431  0.00  0.00    +0.122 C 
ATOM      7  C   UNL     1      36.199 -20.201 -20.232  0.00  0.00    +0.006 C 
ATOM      8  C   UNL     1      33.902 -19.630 -20.714  0.00  0.00    +0.006 C 
ATOM      9  C   UNL     1      35.772 -21.332 -19.538  0.00  0.00    +0.020 C 
ATOM     10  C   UNL     1      33.474 -20.761 -20.020  0.00  0.00    +0.020 C 
BRANCH   6  11
ATOM     11  S   UNL     1      33.874 -23.027 -18.559  0.00  0.00    +0.057 S 
ATOM     12  O   UNL     1      33.810 -24.144 -19.492  0.00  0.00    -0.153 OA
ATOM     13  O   UNL     1      34.662 -23.146 -17.341  0.00  0.00    -0.153 OA
BRANCH  11  14
ATOM     14  N   UNL     1      32.282 -22.568 -18.140  0.00  0.00    -0.203 NA
ATOM     15  H   UNL     1      31.950 -23.155 -17.375  0.00  0.00    +0.144 HD
ATOM     16  H   UNL     1      31.671 -22.684 -18.949  0.00  0.00    +0.144 HD
ENDBRANCH  11  14
ENDBRANCH   6  11
ENDBRANCH   3   5
BRANCH   2  17
ATOM     17  C   UNL     1      35.219 -15.776 -22.106  0.00  0.00    +0.119 C 
BRANCH  17  20
ATOM     18  F   UNL     1      33.728 -13.488 -22.833  0.00  0.00    -0.204 F 
ATOM     19  F   UNL     1      32.493 -15.353 -27.003  0.00  0.00    -0.204 F 
ATOM     20  C   UNL     1      34.489 -15.660 -23.413  0.00  0.00    +0.025 C 
ATOM     21  C   UNL     1      33.774 -14.505 -23.706  0.00  0.00    +0.140 C 
ATOM     22  C   UNL     1      34.537 -16.714 -24.320  0.00  0.00    +0.002 C 
ATOM     23  C   UNL     1      33.098 -14.401 -24.921  0.00  0.00    +0.059 C 
ATOM     24  C   UNL     1      33.860 -16.610 -25.534  0.00  0.00    +0.030 C 
ATOM     25  C   UNL     1      33.140 -15.454 -25.835  0.00  0.00    +0.142 C 
ENDBRANCH  17  20
ENDBRANCH   2  17
TORSDOF 5
ENDMDL
MODEL 7
REMARK VINA RESULT:      -9.8      2.935      3.890
REMARK  Name = 446238
REMARK  5 active torsions:
REMARK  status: ('A' for Active; 'I' for Inactive)
REMARK    1  A    between atoms: N_2  and  C_17
REMARK    2  A    between atoms: C_3  and  C_5
REMARK    3  A    between atoms: C_6  and  S_11
REMARK    4  A    between atoms: S_11  and  N_14
REMARK    5  A    between atoms: C_17  and  C_20
REMARK                            x       y       z     vdW  Elec       q    Type
REMARK                         _______ _______ _______ _____ _____    ______ ____
ROOT
ATOM      1  O   UNL     1      34.195 -23.461 -19.738  0.00  0.00    -0.270 OA
ATOM      2  N   UNL     1      35.346 -21.728 -18.715  0.00  0.00    -0.297 N 
ATOM      3  C   UNL     1      34.421 -22.779 -18.723  0.00  0.00    +0.246 C 
ATOM      4  H   UNL     1      35.476 -21.229 -17.877  0.00  0.00    +0.150 HD
ENDROOT
BRANCH   3   5
ATOM      5  C   UNL     1      33.701 -23.034 -17.487  0.00  0.00    +0.053 C 
ATOM      6  C   UNL     1      32.317 -23.523 -15.113  0.00  0.00    +0.122 C 
ATOM      7  C   UNL     1      34.402 -23.358 -16.324  0.00  0.00    +0.006 C 
ATOM      8  C   UNL     1      32.308 -22.955 -17.461  0.00  0.00    +0.006 C 
ATOM      9  C   UNL     1      33.710 -23.602 -15.138  0.00  0.00    +0.020 C 
ATOM     10  C   UNL     1      31.617 -23.200 -16.275  0.00  0.00    +0.020 C 
BRANCH   6  11
ATOM     11  S   UNL     1      31.452 -23.827 -13.628  0.00  0.00    +0.057 S 
ATOM     12  O   UNL     1      31.994 -22.955 -12.594  0.00  0.00    -0.153 OA
ATOM     13  O   UNL     1      30.024 -23.812 -13.913  0.00  0.00    -0.153 OA
BRANCH  11  14
ATOM     14  N   UNL     1      31.928 -25.434 -13.297  0.00  0.00    -0.203 NA
ATOM     15  H   UNL     1      32.886 -25.440 -12.948  0.00  0.00    +0.144 HD
ATOM     16  H   UNL     1      31.873 -25.988 -14.153  0.00  0.00    +0.144 HD
ENDBRANCH  11  14
ENDBRANCH   6  11
ENDBRANCH   3   5
BRANCH   2  17
ATOM     17  C   UNL     1      36.121 -21.338 -19.870  0.00  0.00    +0.119 C 
BRANCH  17  20
ATOM     18  F   UNL     1      37.745 -19.297 -20.960  0.00  0.00    -0.204 F 
ATOM     19  F   UNL     1      34.000 -16.770 -22.368  0.00  0.00    -0.204 F 
ATOM     20  C   UNL     1      35.557 -20.116 -20.538  0.00  0.00    +0.025 C 
ATOM     21  C   UNL     1      36.416 -19.151 -21.052  0.00  0.00    +0.140 C 
ATOM     22  C   UNL     1      34.179 -19.963 -20.634  0.00  0.00    +0.002 C 
ATOM     23  C   UNL     1      35.889 -18.018 -21.672  0.00  0.00    +0.059 C 
ATOM     24  C   UNL     1      33.652 -18.830 -21.253  0.00  0.00    +0.030 C 
ATOM     25  C   UNL     1      34.506 -17.858 -21.772  0.00  0.00    +0.142 C 
ENDBRANCH  17  20
ENDBRANCH   2  17
TORSDOF 5
ENDMDL
MODEL 8
REMARK VINA RESULT:      -9.7      7.666     10.796
REMARK  Name = 446238
REMARK  5 active torsions:
REMARK  status: ('A' for Active; 'I' for Inactive)
REMARK    1  A    between atoms: N_2  and  C_17
REMARK    2  A    between atoms: C_3  and  C_5
REMARK    3  A    between atoms: C_6  and  S_11
REMARK    4  A    between atoms: S_11  and  N_14
REMARK    5  A    between atoms: C_17  and  C_20
REMARK                            x       y       z     vdW  Elec       q    Type
REMARK                         _______ _______ _______ _____ _____    ______ ____
ROOT
ATOM      1  O   UNL     1      34.398 -16.727 -23.836  0.00  0.00    -0.270 OA
ATOM      2  N   UNL     1      34.748 -17.183 -21.590  0.00  0.00    -0.297 N 
ATOM      3  C   UNL     1      34.252 -16.406 -22.644  0.00  0.00    +0.246 C 
ATOM      4  H   UNL     1      34.597 -16.869 -20.669  0.00  0.00    +0.150 HD
ENDROOT
BRANCH   3   5
ATOM      5  C   UNL     1      33.571 -15.171 -22.289  0.00  0.00    +0.053 C 
ATOM      6  C   UNL     1      32.262 -12.802 -21.609  0.00  0.00    +0.122 C 
ATOM      7  C   UNL     1      33.272 -14.231 -23.276  0.00  0.00    +0.006 C 
ATOM      8  C   UNL     1      33.215 -14.926 -20.963  0.00  0.00    +0.006 C 
ATOM      9  C   UNL     1      32.618 -13.047 -22.936  0.00  0.00    +0.020 C 
ATOM     10  C   UNL     1      32.561 -13.742 -20.622  0.00  0.00    +0.020 C 
BRANCH   6  11
ATOM     11  S   UNL     1      31.442 -11.321 -21.184  0.00  0.00    +0.057 S 
ATOM     12  O   UNL     1      32.157 -10.208 -21.795  0.00  0.00    -0.153 OA
ATOM     13  O   UNL     1      30.018 -11.492 -21.433  0.00  0.00    -0.153 OA
BRANCH  11  14
ATOM     14  N   UNL     1      31.702 -11.279 -19.495  0.00  0.00    -0.203 NA
ATOM     15  H   UNL     1      30.990 -11.842 -19.028  0.00  0.00    +0.144 HD
ATOM     16  H   UNL     1      31.644 -10.315 -19.166  0.00  0.00    +0.144 HD
ENDBRANCH  11  14
ENDBRANCH   6  11
ENDBRANCH   3   5
BRANCH   2  17
ATOM     17  C   UNL     1      35.467 -18.421 -21.781  0.00  0.00    +0.119 C 
BRANCH  17  20
ATOM     18  F   UNL     1      37.069 -20.291 -20.392  0.00  0.00    -0.204 F 
ATOM     19  F   UNL     1      33.296 -22.598 -18.709  0.00  0.00    -0.204 F 
ATOM     20  C   UNL     1      34.890 -19.539 -20.960  0.00  0.00    +0.025 C 
ATOM     21  C   UNL     1      35.738 -20.423 -20.303  0.00  0.00    +0.140 C 
ATOM     22  C   UNL     1      33.509 -19.677 -20.866  0.00  0.00    +0.002 C 
ATOM     23  C   UNL     1      35.198 -21.459 -19.541  0.00  0.00    +0.059 C 
ATOM     24  C   UNL     1      32.970 -20.713 -20.104  0.00  0.00    +0.030 C 
ATOM     25  C   UNL     1      33.814 -21.604 -19.442  0.00  0.00    +0.142 C 
ENDBRANCH  17  20
ENDBRANCH   2  17
TORSDOF 5
ENDMDL
MODEL 9
REMARK VINA RESULT:      -9.6      8.975     11.841
REMARK  Name = 446238
REMARK  5 active torsions:
REMARK  status: ('A' for Active; 'I' for Inactive)
REMARK    1  A    between atoms: N_2  and  C_17
REMARK    2  A    between atoms: C_3  and  C_5
REMARK    3  A    between atoms: C_6  and  S_11
REMARK    4  A    between atoms: S_11  and  N_14
REMARK    5  A    between atoms: C_17  and  C_20
REMARK                            x       y       z     vdW  Elec       q    Type
REMARK                         _______ _______ _______ _____ _____    ______ ____
ROOT
ATOM      1  O   UNL     1      31.952 -12.609 -20.237  0.00  0.00    -0.270 OA
ATOM      2  N   UNL     1      32.254 -12.240 -22.506  0.00  0.00    -0.297 N 
ATOM      3  C   UNL     1      32.371 -13.004 -21.339  0.00  0.00    +0.246 C 
ATOM      4  H   UNL     1      32.608 -12.613 -23.345  0.00  0.00    +0.150 HD
ENDROOT
BRANCH   3   5
ATOM      5  C   UNL     1      33.038 -14.291 -21.457  0.00  0.00    +0.053 C 
ATOM      6  C   UNL     1      34.318 -16.760 -21.682  0.00  0.00    +0.122 C 
ATOM      7  C   UNL     1      34.099 -14.448 -22.349  0.00  0.00    +0.006 C 
ATOM      8  C   UNL     1      32.618 -15.369 -20.677  0.00  0.00    +0.006 C 
ATOM      9  C   UNL     1      34.738 -15.682 -22.462  0.00  0.00    +0.020 C 
ATOM     10  C   UNL     1      33.257 -16.603 -20.790  0.00  0.00    +0.020 C 
BRANCH   6  11
ATOM     11  S   UNL     1      35.120 -18.304 -21.822  0.00  0.00    +0.057 S 
ATOM     12  O   UNL     1      35.948 -18.500 -20.639  0.00  0.00    -0.153 OA
ATOM     13  O   UNL     1      34.131 -19.308 -22.188  0.00  0.00    -0.153 OA
BRANCH  11  14
ATOM     14  N   UNL     1      36.138 -18.022 -23.165  0.00  0.00    -0.203 NA
ATOM     15  H   UNL     1      36.323 -17.023 -23.248  0.00  0.00    +0.144 HD
ATOM     16  H   UNL     1      35.680 -18.356 -24.015  0.00  0.00    +0.144 HD
ENDBRANCH  11  14
ENDBRANCH   6  11
ENDBRANCH   3   5
BRANCH   2  17
ATOM     17  C   UNL     1      31.640 -10.933 -22.546  0.00  0.00    +0.119 C 
BRANCH  17  20
ATOM     18  F   UNL     1      31.579  -8.381 -21.332  0.00  0.00    -0.204 F 
ATOM     19  F   UNL     1      35.370  -6.903 -23.747  0.00  0.00    -0.204 F 
ATOM     20  C   UNL     1      32.634  -9.854 -22.865  0.00  0.00    +0.025 C 
ATOM     21  C   UNL     1      32.545  -8.621 -22.230  0.00  0.00    +0.140 C 
ATOM     22  C   UNL     1      33.638 -10.101 -23.796  0.00  0.00    +0.002 C 
ATOM     23  C   UNL     1      33.471  -7.622 -22.528  0.00  0.00    +0.059 C 
ATOM     24  C   UNL     1      34.563  -9.102 -24.095  0.00  0.00    +0.030 C 
ATOM     25  C   UNL     1      34.480  -7.862 -23.462  0.00  0.00    +0.142 C 
ENDBRANCH  17  20
ENDBRANCH   2  17
TORSDOF 5
ENDMDL
