MODEL 1
REMARK VINA RESULT:      -5.7      0.000      0.000
REMARK  Name = 446873
REMARK  7 active torsions:
REMARK  status: ('A' for Active; 'I' for Inactive)
REMARK    1  A    between atoms: CA_1  and  N_2
REMARK    2  A    between atoms: CA_1  and  C_7
REMARK    3  A    between atoms: CA_1  and  C_10
REMARK    4  A    between atoms: C_7  and  O_8
REMARK    5  A    between atoms: C_10  and  P_11
REMARK    6  A    between atoms: P_11  and  O_13
REMARK    7  A    between atoms: P_11  and  O_15
REMARK                            x       y       z     vdW  Elec       q    Type
REMARK                         _______ _______ _______ _____ _____    ______ ____
ROOT
ATOM      1  CA  UNL     1      38.958 -25.769 -14.195  0.00  0.00    +0.048 C 
ENDROOT
BRANCH   1   2
ATOM      2  N   UNL     1      37.887 -25.741 -15.191  0.00  0.00    +0.389 N 
ATOM      3  H1  UNL     1      37.967 -26.556 -15.798  0.00  0.00    -0.088 HD
ATOM      4  H2  UNL     1      37.965 -24.892 -15.751  0.00  0.00    -0.088 HD
ATOM      5  H3  UNL     1      36.984 -25.755 -14.719  0.00  0.00    -0.088 HD
ENDBRANCH   1   2
BRANCH   1   7
ATOM      6  OXT UNL     1      41.105 -24.638 -14.434  0.00  0.00    -0.253 OA
ATOM      7  C   UNL     1      40.239 -25.369 -14.900  0.00  0.00    +0.294 C 
BRANCH   7   8
ATOM      8  O   UNL     1      40.324 -25.900 -16.149  0.00  0.00    -0.482 OA
ATOM      9  H   UNL     1      41.090 -25.756 -16.667  0.00  0.00    +0.295 HD
ENDBRANCH   7   8
ENDBRANCH   1   7
BRANCH   1  10
ATOM     10  C   UNL     1      38.642 -24.790 -13.069  0.00  0.00    +0.105 C 
BRANCH  10  11
ATOM     11  P   UNL     1      36.967 -24.977 -12.407  0.00  0.00    +0.335 P 
ATOM     12  O   UNL     1      35.918 -24.374 -13.271  0.00  0.00    -0.258 OA
BRANCH  11  13
ATOM     13  O   UNL     1      37.113 -24.367 -10.926  0.00  0.00    -0.324 OA
ATOM     14  H   UNL     1      36.527 -23.599 -10.834  0.00  0.00    +0.220 HD
ENDBRANCH  11  13
BRANCH  11  15
ATOM     15  O   UNL     1      36.868 -26.566 -12.168  0.00  0.00    -0.324 OA
ATOM     16  H   UNL     1      36.333 -26.966 -12.871  0.00  0.00    +0.220 HD
ENDBRANCH  11  15
ENDBRANCH  10  11
ENDBRANCH   1  10
TORSDOF 7
ENDMDL
MODEL 2
REMARK VINA RESULT:      -5.6      2.779      4.477
REMARK  Name = 446873
REMARK  7 active torsions:
REMARK  status: ('A' for Active; 'I' for Inactive)
REMARK    1  A    between atoms: CA_1  and  N_2
REMARK    2  A    between atoms: CA_1  and  C_7
REMARK    3  A    between atoms: CA_1  and  C_10
REMARK    4  A    between atoms: C_7  and  O_8
REMARK    5  A    between atoms: C_10  and  P_11
REMARK    6  A    between atoms: P_11  and  O_13
REMARK    7  A    between atoms: P_11  and  O_15
REMARK                            x       y       z     vdW  Elec       q    Type
REMARK                         _______ _______ _______ _____ _____    ______ ____
ROOT
ATOM      1  CA  UNL     1      36.335 -24.549 -12.697  0.00  0.00    +0.048 C 
ENDROOT
BRANCH   1   2
ATOM      2  N   UNL     1      34.954 -24.752 -13.137  0.00  0.00    +0.389 N 
ATOM      3  H1  UNL     1      34.433 -23.882 -13.031  0.00  0.00    -0.088 HD
ATOM      4  H2  UNL     1      34.520 -25.479 -12.569  0.00  0.00    -0.088 HD
ATOM      5  H3  UNL     1      34.949 -25.036 -14.116  0.00  0.00    -0.088 HD
ENDBRANCH   1   2
BRANCH   1   7
ATOM      6  OXT UNL     1      36.970 -23.253 -10.732  0.00  0.00    -0.253 OA
ATOM      7  C   UNL     1      36.287 -24.134 -11.240  0.00  0.00    +0.294 C 
BRANCH   7   8
ATOM      8  O   UNL     1      35.401 -24.876 -10.524  0.00  0.00    -0.482 OA
ATOM      9  H   UNL     1      35.684 -25.332  -9.757  0.00  0.00    +0.295 HD
ENDBRANCH   7   8
ENDBRANCH   1   7
BRANCH   1  10
ATOM     10  C   UNL     1      37.124 -25.844 -12.856  0.00  0.00    +0.105 C 
BRANCH  10  11
ATOM     11  P   UNL     1      37.349 -26.337 -14.584  0.00  0.00    +0.335 P 
ATOM     12  O   UNL     1      38.604 -27.098 -14.825  0.00  0.00    -0.258 OA
BRANCH  11  13
ATOM     13  O   UNL     1      37.201 -24.937 -15.362  0.00  0.00    -0.324 OA
ATOM     14  H   UNL     1      37.866 -24.887 -16.067  0.00  0.00    +0.220 HD
ENDBRANCH  11  13
BRANCH  11  15
ATOM     15  O   UNL     1      35.973 -27.109 -14.902  0.00  0.00    -0.324 OA
ATOM     16  H   UNL     1      36.131 -27.784 -15.582  0.00  0.00    +0.220 HD
ENDBRANCH  11  15
ENDBRANCH  10  11
ENDBRANCH   1  10
TORSDOF 7
ENDMDL
MODEL 3
REMARK VINA RESULT:      -5.5      1.929      2.499
REMARK  Name = 446873
REMARK  7 active torsions:
REMARK  status: ('A' for Active; 'I' for Inactive)
REMARK    1  A    between atoms: CA_1  and  N_2
REMARK    2  A    between atoms: CA_1  and  C_7
REMARK    3  A    between atoms: CA_1  and  C_10
REMARK    4  A    between atoms: C_7  and  O_8
REMARK    5  A    between atoms: C_10  and  P_11
REMARK    6  A    between atoms: P_11  and  O_13
REMARK    7  A    between atoms: P_11  and  O_15
REMARK                            x       y       z     vdW  Elec       q    Type
REMARK                         _______ _______ _______ _____ _____    ______ ____
ROOT
ATOM      1  CA  UNL     1      38.948 -25.466 -13.982  0.00  0.00    +0.048 C 
ENDROOT
BRANCH   1   2
ATOM      2  N   UNL     1      38.242 -26.654 -13.500  0.00  0.00    +0.389 N 
ATOM      3  H1  UNL     1      38.917 -27.385 -13.280  0.00  0.00    -0.088 HD
ATOM      4  H2  UNL     1      37.604 -26.987 -14.223  0.00  0.00    -0.088 HD
ATOM      5  H3  UNL     1      37.712 -26.416 -12.662  0.00  0.00    -0.088 HD
ENDBRANCH   1   2
BRANCH   1   7
ATOM      6  OXT UNL     1      41.150 -26.498 -14.153  0.00  0.00    -0.253 OA
ATOM      7  C   UNL     1      40.200 -25.945 -14.692  0.00  0.00    +0.294 C 
BRANCH   7   8
ATOM      8  O   UNL     1      40.173 -25.667 -16.022  0.00  0.00    -0.482 OA
ATOM      9  H   UNL     1      39.366 -25.718 -16.495  0.00  0.00    +0.295 HD
ENDBRANCH   7   8
ENDBRANCH   1   7
BRANCH   1  10
ATOM     10  C   UNL     1      38.056 -24.688 -14.942  0.00  0.00    +0.105 C 
BRANCH  10  11
ATOM     11  P   UNL     1      36.380 -25.363 -15.069  0.00  0.00    +0.335 P 
ATOM     12  O   UNL     1      36.334 -26.728 -15.658  0.00  0.00    -0.258 OA
BRANCH  11  13
ATOM     13  O   UNL     1      35.605 -24.208 -15.876  0.00  0.00    -0.324 OA
ATOM     14  H   UNL     1      35.683 -24.371 -16.828  0.00  0.00    +0.220 HD
ENDBRANCH  11  13
BRANCH  11  15
ATOM     15  O   UNL     1      35.838 -25.218 -13.560  0.00  0.00    -0.324 OA
ATOM     16  H   UNL     1      36.588 -25.236 -12.944  0.00  0.00    +0.220 HD
ENDBRANCH  11  15
ENDBRANCH  10  11
ENDBRANCH   1  10
TORSDOF 7
ENDMDL
MODEL 4
REMARK VINA RESULT:      -5.5      2.365      3.951
REMARK  Name = 446873
REMARK  7 active torsions:
REMARK  status: ('A' for Active; 'I' for Inactive)
REMARK    1  A    between atoms: CA_1  and  N_2
REMARK    2  A    between atoms: CA_1  and  C_7
REMARK    3  A    between atoms: CA_1  and  C_10
REMARK    4  A    between atoms: C_7  and  O_8
REMARK    5  A    between atoms: C_10  and  P_11
REMARK    6  A    between atoms: P_11  and  O_13
REMARK    7  A    between atoms: P_11  and  O_15
REMARK                            x       y       z     vdW  Elec       q    Type
REMARK                         _______ _______ _______ _____ _____    ______ ____
ROOT
ATOM      1  CA  UNL     1      36.523 -23.788 -13.216  0.00  0.00    +0.048 C 
ENDROOT
BRANCH   1   2
ATOM      2  N   UNL     1      35.288 -24.572 -13.221  0.00  0.00    +0.389 N 
ATOM      3  H1  UNL     1      34.732 -24.326 -14.039  0.00  0.00    -0.088 HD
ATOM      4  H2  UNL     1      34.755 -24.371 -12.375  0.00  0.00    -0.088 HD
ATOM      5  H3  UNL     1      35.517 -25.565 -13.250  0.00  0.00    -0.088 HD
ENDBRANCH   1   2
BRANCH   1   7
ATOM      6  OXT UNL     1      36.929 -24.495 -10.919  0.00  0.00    -0.253 OA
ATOM      7  C   UNL     1      36.940 -23.613 -11.769  0.00  0.00    +0.294 C 
BRANCH   7   8
ATOM      8  O   UNL     1      37.316 -22.336 -11.493  0.00  0.00    -0.482 OA
ATOM      9  H   UNL     1      36.895 -21.863 -10.804  0.00  0.00    +0.295 HD
ENDBRANCH   7   8
ENDBRANCH   1   7
BRANCH   1  10
ATOM     10  C   UNL     1      37.606 -24.522 -13.998  0.00  0.00    +0.105 C 
BRANCH  10  11
ATOM     11  P   UNL     1      37.167 -26.235 -14.392  0.00  0.00    +0.335 P 
ATOM     12  O   UNL     1      36.076 -26.351 -15.395  0.00  0.00    -0.258 OA
BRANCH  11  13
ATOM     13  O   UNL     1      36.872 -26.856 -12.938  0.00  0.00    -0.324 OA
ATOM     14  H   UNL     1      36.218 -27.568 -13.017  0.00  0.00    +0.220 HD
ENDBRANCH  11  13
BRANCH  11  15
ATOM     15  O   UNL     1      38.589 -26.866 -14.806  0.00  0.00    -0.324 OA
ATOM     16  H   UNL     1      38.614 -27.000 -15.767  0.00  0.00    +0.220 HD
ENDBRANCH  11  15
ENDBRANCH  10  11
ENDBRANCH   1  10
TORSDOF 7
ENDMDL
MODEL 5
REMARK VINA RESULT:      -5.5      2.036      4.460
REMARK  Name = 446873
REMARK  7 active torsions:
REMARK  status: ('A' for Active; 'I' for Inactive)
REMARK    1  A    between atoms: CA_1  and  N_2
REMARK    2  A    between atoms: CA_1  and  C_7
REMARK    3  A    between atoms: CA_1  and  C_10
REMARK    4  A    between atoms: C_7  and  O_8
REMARK    5  A    between atoms: C_10  and  P_11
REMARK    6  A    between atoms: P_11  and  O_13
REMARK    7  A    between atoms: P_11  and  O_15
REMARK                            x       y       z     vdW  Elec       q    Type
REMARK                         _______ _______ _______ _____ _____    ______ ____
ROOT
ATOM      1  CA  UNL     1      36.902 -24.555 -12.933  0.00  0.00    +0.048 C 
ENDROOT
BRANCH   1   2
ATOM      2  N   UNL     1      36.253 -25.579 -13.750  0.00  0.00    +0.389 N 
ATOM      3  H1  UNL     1      36.525 -26.503 -13.416  0.00  0.00    -0.088 HD
ATOM      4  H2  UNL     1      36.541 -25.472 -14.723  0.00  0.00    -0.088 HD
ATOM      5  H3  UNL     1      35.241 -25.477 -13.682  0.00  0.00    -0.088 HD
ENDBRANCH   1   2
BRANCH   1   7
ATOM      6  OXT UNL     1      35.093 -25.001 -11.361  0.00  0.00    -0.253 OA
ATOM      7  C   UNL     1      36.209 -24.549 -11.584  0.00  0.00    +0.294 C 
BRANCH   7   8
ATOM      8  O   UNL     1      36.962 -23.951 -10.623  0.00  0.00    -0.482 OA
ATOM      9  H   UNL     1      36.577 -23.722  -9.801  0.00  0.00    +0.295 HD
ENDBRANCH   7   8
ENDBRANCH   1   7
BRANCH   1  10
ATOM     10  C   UNL     1      38.382 -24.883 -12.770  0.00  0.00    +0.105 C 
BRANCH  10  11
ATOM     11  P   UNL     1      39.185 -25.358 -14.322  0.00  0.00    +0.335 P 
ATOM     12  O   UNL     1      38.931 -26.771 -14.712  0.00  0.00    -0.258 OA
BRANCH  11  13
ATOM     13  O   UNL     1      40.718 -24.954 -14.053  0.00  0.00    -0.324 OA
ATOM     14  H   UNL     1      40.800 -24.572 -13.166  0.00  0.00    +0.220 HD
ENDBRANCH  11  13
BRANCH  11  15
ATOM     15  O   UNL     1      38.655 -24.230 -15.341  0.00  0.00    -0.324 OA
ATOM     16  H   UNL     1      38.630 -24.593 -16.240  0.00  0.00    +0.220 HD
ENDBRANCH  11  15
ENDBRANCH  10  11
ENDBRANCH   1  10
TORSDOF 7
ENDMDL
MODEL 6
REMARK VINA RESULT:      -5.4      2.417      2.870
REMARK  Name = 446873
REMARK  7 active torsions:
REMARK  status: ('A' for Active; 'I' for Inactive)
REMARK    1  A    between atoms: CA_1  and  N_2
REMARK    2  A    between atoms: CA_1  and  C_7
REMARK    3  A    between atoms: CA_1  and  C_10
REMARK    4  A    between atoms: C_7  and  O_8
REMARK    5  A    between atoms: C_10  and  P_11
REMARK    6  A    between atoms: P_11  and  O_13
REMARK    7  A    between atoms: P_11  and  O_15
REMARK                            x       y       z     vdW  Elec       q    Type
REMARK                         _______ _______ _______ _____ _____    ______ ____
ROOT
ATOM      1  CA  UNL     1      36.607 -25.295 -14.055  0.00  0.00    +0.048 C 
ENDROOT
BRANCH   1   2
ATOM      2  N   UNL     1      37.239 -24.112 -14.639  0.00  0.00    +0.389 N 
ATOM      3  H1  UNL     1      36.718 -23.821 -15.465  0.00  0.00    -0.088 HD
ATOM      4  H2  UNL     1      38.198 -24.335 -14.904  0.00  0.00    -0.088 HD
ATOM      5  H3  UNL     1      37.243 -23.357 -13.954  0.00  0.00    -0.088 HD
ENDBRANCH   1   2
BRANCH   1   7
ATOM      6  OXT UNL     1      38.158 -27.100 -14.585  0.00  0.00    -0.253 OA
ATOM      7  C   UNL     1      37.116 -26.501 -14.821  0.00  0.00    +0.294 C 
BRANCH   7   8
ATOM      8  O   UNL     1      36.288 -26.848 -15.842  0.00  0.00    -0.482 OA
ATOM      9  H   UNL     1      36.643 -27.208 -16.630  0.00  0.00    +0.295 HD
ENDBRANCH   7   8
ENDBRANCH   1   7
BRANCH   1  10
ATOM     10  C   UNL     1      36.977 -25.406 -12.580  0.00  0.00    +0.105 C 
BRANCH  10  11
ATOM     11  P   UNL     1      36.212 -24.125 -11.554  0.00  0.00    +0.335 P 
ATOM     12  O   UNL     1      37.192 -23.174 -10.965  0.00  0.00    -0.258 OA
BRANCH  11  13
ATOM     13  O   UNL     1      35.343 -24.992 -10.514  0.00  0.00    -0.324 OA
ATOM     14  H   UNL     1      35.755 -24.953  -9.637  0.00  0.00    +0.220 HD
ENDBRANCH  11  13
BRANCH  11  15
ATOM     15  O   UNL     1      35.116 -23.496 -12.551  0.00  0.00    -0.324 OA
ATOM     16  H   UNL     1      34.461 -24.174 -12.780  0.00  0.00    +0.220 HD
ENDBRANCH  11  15
ENDBRANCH  10  11
ENDBRANCH   1  10
TORSDOF 7
ENDMDL
MODEL 7
REMARK VINA RESULT:      -5.3      2.682      4.742
REMARK  Name = 446873
REMARK  7 active torsions:
REMARK  status: ('A' for Active; 'I' for Inactive)
REMARK    1  A    between atoms: CA_1  and  N_2
REMARK    2  A    between atoms: CA_1  and  C_7
REMARK    3  A    between atoms: CA_1  and  C_10
REMARK    4  A    between atoms: C_7  and  O_8
REMARK    5  A    between atoms: C_10  and  P_11
REMARK    6  A    between atoms: P_11  and  O_13
REMARK    7  A    between atoms: P_11  and  O_15
REMARK                            x       y       z     vdW  Elec       q    Type
REMARK                         _______ _______ _______ _____ _____    ______ ____
ROOT
ATOM      1  CA  UNL     1      36.819 -25.039 -12.187  0.00  0.00    +0.048 C 
ENDROOT
BRANCH   1   2
ATOM      2  N   UNL     1      37.880 -24.214 -11.607  0.00  0.00    +0.389 N 
ATOM      3  H1  UNL     1      37.463 -23.450 -11.076  0.00  0.00    -0.088 HD
ATOM      4  H2  UNL     1      38.459 -23.832 -12.354  0.00  0.00    -0.088 HD
ATOM      5  H3  UNL     1      38.454 -24.785 -10.989  0.00  0.00    -0.088 HD
ENDBRANCH   1   2
BRANCH   1   7
ATOM      6  OXT UNL     1      34.683 -23.865 -12.113  0.00  0.00    -0.253 OA
ATOM      7  C   UNL     1      35.510 -24.588 -11.569  0.00  0.00    +0.294 C 
BRANCH   7   8
ATOM      8  O   UNL     1      35.350 -25.059 -10.304  0.00  0.00    -0.482 OA
ATOM      9  H   UNL     1      36.092 -25.365  -9.821  0.00  0.00    +0.295 HD
ENDBRANCH   7   8
ENDBRANCH   1   7
BRANCH   1  10
ATOM     10  C   UNL     1      36.787 -24.852 -13.699  0.00  0.00    +0.105 C 
BRANCH  10  11
ATOM     11  P   UNL     1      38.265 -25.488 -14.530  0.00  0.00    +0.335 P 
ATOM     12  O   UNL     1      39.220 -26.160 -13.610  0.00  0.00    -0.258 OA
BRANCH  11  13
ATOM     13  O   UNL     1      38.811 -24.187 -15.303  0.00  0.00    -0.324 OA
ATOM     14  H   UNL     1      39.687 -23.952 -14.961  0.00  0.00    +0.220 HD
ENDBRANCH  11  13
BRANCH  11  15
ATOM     15  O   UNL     1      37.636 -26.401 -15.697  0.00  0.00    -0.324 OA
ATOM     16  H   UNL     1      36.762 -26.720 -15.421  0.00  0.00    +0.220 HD
ENDBRANCH  11  15
ENDBRANCH  10  11
ENDBRANCH   1  10
TORSDOF 7
ENDMDL
MODEL 8
REMARK VINA RESULT:      -5.3      2.386      2.770
REMARK  Name = 446873
REMARK  7 active torsions:
REMARK  status: ('A' for Active; 'I' for Inactive)
REMARK    1  A    between atoms: CA_1  and  N_2
REMARK    2  A    between atoms: CA_1  and  C_7
REMARK    3  A    between atoms: CA_1  and  C_10
REMARK    4  A    between atoms: C_7  and  O_8
REMARK    5  A    between atoms: C_10  and  P_11
REMARK    6  A    between atoms: P_11  and  O_13
REMARK    7  A    between atoms: P_11  and  O_15
REMARK                            x       y       z     vdW  Elec       q    Type
REMARK                         _______ _______ _______ _____ _____    ______ ____
ROOT
ATOM      1  CA  UNL     1      37.013 -26.119 -13.561  0.00  0.00    +0.048 C 
ENDROOT
BRANCH   1   2
ATOM      2  N   UNL     1      35.751 -25.485 -13.180  0.00  0.00    +0.389 N 
ATOM      3  H1  UNL     1      34.983 -26.138 -13.333  0.00  0.00    -0.088 HD
ATOM      4  H2  UNL     1      35.604 -24.651 -13.747  0.00  0.00    -0.088 HD
ATOM      5  H3  UNL     1      35.786 -25.225 -12.195  0.00  0.00    -0.088 HD
ENDBRANCH   1   2
BRANCH   1   7
ATOM      6  OXT UNL     1      37.123 -27.052 -15.811  0.00  0.00    -0.253 OA
ATOM      7  C   UNL     1      37.100 -26.074 -15.075  0.00  0.00    +0.294 C 
BRANCH   7   8
ATOM      8  O   UNL     1      37.179 -24.801 -15.546  0.00  0.00    -0.482 OA
ATOM      9  H   UNL     1      36.456 -24.428 -16.010  0.00  0.00    +0.295 HD
ENDBRANCH   7   8
ENDBRANCH   1   7
BRANCH   1  10
ATOM     10  C   UNL     1      38.181 -25.362 -12.938  0.00  0.00    +0.105 C 
BRANCH  10  11
ATOM     11  P   UNL     1      37.688 -23.805 -12.156  0.00  0.00    +0.335 P 
ATOM     12  O   UNL     1      36.877 -22.928 -13.041  0.00  0.00    -0.258 OA
BRANCH  11  13
ATOM     13  O   UNL     1      39.097 -23.211 -11.656  0.00  0.00    -0.324 OA
ATOM     14  H   UNL     1      39.031 -22.966 -10.721  0.00  0.00    +0.220 HD
ENDBRANCH  11  13
BRANCH  11  15
ATOM     15  O   UNL     1      36.975 -24.311 -10.804  0.00  0.00    -0.324 OA
ATOM     16  H   UNL     1      37.522 -24.995 -10.387  0.00  0.00    +0.220 HD
ENDBRANCH  11  15
ENDBRANCH  10  11
ENDBRANCH   1  10
TORSDOF 7
ENDMDL
MODEL 9
REMARK VINA RESULT:      -5.1      2.799      4.603
REMARK  Name = 446873
REMARK  7 active torsions:
REMARK  status: ('A' for Active; 'I' for Inactive)
REMARK    1  A    between atoms: CA_1  and  N_2
REMARK    2  A    between atoms: CA_1  and  C_7
REMARK    3  A    between atoms: CA_1  and  C_10
REMARK    4  A    between atoms: C_7  and  O_8
REMARK    5  A    between atoms: C_10  and  P_11
REMARK    6  A    between atoms: P_11  and  O_13
REMARK    7  A    between atoms: P_11  and  O_15
REMARK                            x       y       z     vdW  Elec       q    Type
REMARK                         _______ _______ _______ _____ _____    ______ ____
ROOT
ATOM      1  CA  UNL     1      35.948 -23.543 -12.549  0.00  0.00    +0.048 C 
ENDROOT
BRANCH   1   2
ATOM      2  N   UNL     1      34.822 -23.510 -13.482  0.00  0.00    +0.389 N 
ATOM      3  H1  UNL     1      34.173 -24.263 -13.258  0.00  0.00    -0.088 HD
ATOM      4  H2  UNL     1      35.166 -23.631 -14.434  0.00  0.00    -0.088 HD
ATOM      5  H3  UNL     1      34.344 -22.613 -13.404  0.00  0.00    -0.088 HD
ENDBRANCH   1   2
BRANCH   1   7
ATOM      6  OXT UNL     1      35.375 -24.957 -10.647  0.00  0.00    -0.253 OA
ATOM      7  C   UNL     1      35.849 -24.841 -11.770  0.00  0.00    +0.294 C 
BRANCH   7   8
ATOM      8  O   UNL     1      36.379 -25.890 -12.453  0.00  0.00    -0.482 OA
ATOM      9  H   UNL     1      36.016 -26.141 -13.279  0.00  0.00    +0.295 HD
ENDBRANCH   7   8
ENDBRANCH   1   7
BRANCH   1  10
ATOM     10  C   UNL     1      37.262 -23.484 -13.320  0.00  0.00    +0.105 C 
BRANCH  10  11
ATOM     11  P   UNL     1      37.058 -23.744 -15.101  0.00  0.00    +0.335 P 
ATOM     12  O   UNL     1      36.331 -24.996 -15.437  0.00  0.00    -0.258 OA
BRANCH  11  13
ATOM     13  O   UNL     1      38.569 -23.627 -15.639  0.00  0.00    -0.324 OA
ATOM     14  H   UNL     1      38.777 -24.399 -16.188  0.00  0.00    +0.220 HD
ENDBRANCH  11  13
BRANCH  11  15
ATOM     15  O   UNL     1      36.367 -22.367 -15.570  0.00  0.00    -0.324 OA
ATOM     16  H   UNL     1      35.553 -22.225 -15.063  0.00  0.00    +0.220 HD
ENDBRANCH  11  15
ENDBRANCH  10  11
ENDBRANCH   1  10
TORSDOF 7
ENDMDL
