MODEL 1
REMARK VINA RESULT:      -6.8      0.000      0.000
REMARK  Name = 6857487
REMARK  1 active torsions:
REMARK  status: ('A' for Active; 'I' for Inactive)
REMARK    1  A    between atoms: C_6  and  C_9
REMARK                            x       y       z     vdW  Elec       q    Type
REMARK                         _______ _______ _______ _____ _____    ______ ____
ROOT
ATOM      1  O   UNL     1      35.039 -22.817 -19.860  0.00  0.00    -0.356 OA
ATOM      2  C   UNL     1      34.133 -22.076 -19.018  0.00  0.00    +0.118 C 
ATOM      3  C   UNL     1      35.560 -21.646 -19.227  0.00  0.00    +0.140 C 
ATOM      4  C   UNL     1      33.012 -21.433 -19.771  0.00  0.00    +0.030 C 
ATOM      5  C   UNL     1      35.885 -20.508 -20.141  0.00  0.00    +0.036 C 
ATOM      6  C   UNL     1      34.744 -20.160 -21.110  0.00  0.00    +0.021 C 
ATOM      7  C   UNL     1      33.407 -20.077 -20.359  0.00  0.00    +0.007 C 
ATOM      8  C   UNL     1      33.781 -22.799 -17.777  0.00  0.00    +0.032 C 
ENDROOT
BRANCH   6   9
ATOM      9  C   UNL     1      35.043 -18.874 -21.820  0.00  0.00    -0.044 C 
ATOM     10  C   UNL     1      35.038 -18.931 -23.319  0.00  0.00    +0.026 C 
ATOM     11  C   UNL     1      35.299 -17.739 -21.154  0.00  0.00    -0.009 C 
ENDBRANCH   6   9
TORSDOF 1
ENDMDL
MODEL 2
REMARK VINA RESULT:      -6.8      3.485      6.209
REMARK  Name = 6857487
REMARK  1 active torsions:
REMARK  status: ('A' for Active; 'I' for Inactive)
REMARK    1  A    between atoms: C_6  and  C_9
REMARK                            x       y       z     vdW  Elec       q    Type
REMARK                         _______ _______ _______ _____ _____    ______ ____
ROOT
ATOM      1  O   UNL     1      35.171 -16.871 -25.757  0.00  0.00    -0.356 OA
ATOM      2  C   UNL     1      34.099 -16.226 -25.040  0.00  0.00    +0.118 C 
ATOM      3  C   UNL     1      34.136 -17.716 -25.249  0.00  0.00    +0.140 C 
ATOM      4  C   UNL     1      34.530 -15.615 -23.746  0.00  0.00    +0.030 C 
ATOM      5  C   UNL     1      34.536 -18.630 -24.135  0.00  0.00    +0.036 C 
ATOM      6  C   UNL     1      35.281 -17.915 -22.998  0.00  0.00    +0.021 C 
ATOM      7  C   UNL     1      34.545 -16.627 -22.599  0.00  0.00    +0.007 C 
ATOM      8  C   UNL     1      33.235 -15.405 -25.917  0.00  0.00    +0.032 C 
ENDROOT
BRANCH   6   9
ATOM      9  C   UNL     1      35.435 -18.832 -21.823  0.00  0.00    -0.044 C 
ATOM     10  C   UNL     1      34.209 -19.595 -21.416  0.00  0.00    +0.026 C 
ATOM     11  C   UNL     1      36.601 -18.965 -21.175  0.00  0.00    -0.009 C 
ENDBRANCH   6   9
TORSDOF 1
ENDMDL
MODEL 3
REMARK VINA RESULT:      -6.7      1.820      4.634
REMARK  Name = 6857487
REMARK  1 active torsions:
REMARK  status: ('A' for Active; 'I' for Inactive)
REMARK    1  A    between atoms: C_6  and  C_9
REMARK                            x       y       z     vdW  Elec       q    Type
REMARK                         _______ _______ _______ _____ _____    ______ ____
ROOT
ATOM      1  O   UNL     1      34.489 -19.066 -22.996  0.00  0.00    -0.356 OA
ATOM      2  C   UNL     1      35.260 -18.118 -22.231  0.00  0.00    +0.118 C 
ATOM      3  C   UNL     1      33.991 -18.729 -21.699  0.00  0.00    +0.140 C 
ATOM      4  C   UNL     1      36.600 -18.636 -21.818  0.00  0.00    +0.030 C 
ATOM      5  C   UNL     1      34.043 -19.825 -20.682  0.00  0.00    +0.036 C 
ATOM      6  C   UNL     1      35.416 -20.509 -20.594  0.00  0.00    +0.021 C 
ATOM      7  C   UNL     1      36.537 -19.461 -20.532  0.00  0.00    +0.007 C 
ATOM      8  C   UNL     1      35.211 -16.751 -22.794  0.00  0.00    +0.032 C 
ENDROOT
BRANCH   6   9
ATOM      9  C   UNL     1      35.463 -21.419 -19.404  0.00  0.00    -0.044 C 
ATOM     10  C   UNL     1      34.207 -22.183 -19.106  0.00  0.00    +0.026 C 
ATOM     11  C   UNL     1      36.565 -21.545 -18.651  0.00  0.00    -0.009 C 
ENDBRANCH   6   9
TORSDOF 1
ENDMDL
MODEL 4
REMARK VINA RESULT:      -6.5      2.943      5.532
REMARK  Name = 6857487
REMARK  1 active torsions:
REMARK  status: ('A' for Active; 'I' for Inactive)
REMARK    1  A    between atoms: C_6  and  C_9
REMARK                            x       y       z     vdW  Elec       q    Type
REMARK                         _______ _______ _______ _____ _____    ______ ____
ROOT
ATOM      1  O   UNL     1      35.692 -16.230 -23.435  0.00  0.00    -0.356 OA
ATOM      2  C   UNL     1      34.337 -15.901 -23.067  0.00  0.00    +0.118 C 
ATOM      3  C   UNL     1      34.680 -17.177 -23.787  0.00  0.00    +0.140 C 
ATOM      4  C   UNL     1      34.109 -15.883 -21.589  0.00  0.00    +0.030 C 
ATOM      5  C   UNL     1      34.726 -18.477 -23.050  0.00  0.00    +0.036 C 
ATOM      6  C   UNL     1      34.829 -18.310 -21.526  0.00  0.00    +0.021 C 
ATOM      7  C   UNL     1      33.810 -17.274 -21.029  0.00  0.00    +0.007 C 
ATOM      8  C   UNL     1      33.791 -14.767 -23.844  0.00  0.00    +0.032 C 
ENDROOT
BRANCH   6   9
ATOM      9  C   UNL     1      34.629 -19.631 -20.847  0.00  0.00    -0.044 C 
ATOM     10  C   UNL     1      33.206 -20.045 -20.614  0.00  0.00    +0.026 C 
ATOM     11  C   UNL     1      35.662 -20.399 -20.472  0.00  0.00    -0.009 C 
ENDBRANCH   6   9
TORSDOF 1
ENDMDL
MODEL 5
REMARK VINA RESULT:      -6.4      4.390      6.440
REMARK  Name = 6857487
REMARK  1 active torsions:
REMARK  status: ('A' for Active; 'I' for Inactive)
REMARK    1  A    between atoms: C_6  and  C_9
REMARK                            x       y       z     vdW  Elec       q    Type
REMARK                         _______ _______ _______ _____ _____    ______ ____
ROOT
ATOM      1  O   UNL     1      34.336 -13.836 -23.015  0.00  0.00    -0.356 OA
ATOM      2  C   UNL     1      33.395 -14.311 -22.032  0.00  0.00    +0.118 C 
ATOM      3  C   UNL     1      33.485 -14.915 -23.407  0.00  0.00    +0.140 C 
ATOM      4  C   UNL     1      34.043 -14.967 -20.855  0.00  0.00    +0.030 C 
ATOM      5  C   UNL     1      34.164 -16.231 -23.617  0.00  0.00    +0.036 C 
ATOM      6  C   UNL     1      35.079 -16.637 -22.452  0.00  0.00    +0.021 C 
ATOM      7  C   UNL     1      34.359 -16.441 -21.109  0.00  0.00    +0.007 C 
ATOM      8  C   UNL     1      32.319 -13.337 -21.750  0.00  0.00    +0.032 C 
ENDROOT
BRANCH   6   9
ATOM      9  C   UNL     1      35.531 -18.056 -22.619  0.00  0.00    -0.044 C 
ATOM     10  C   UNL     1      36.288 -18.648 -21.467  0.00  0.00    +0.026 C 
ATOM     11  C   UNL     1      35.272 -18.756 -23.732  0.00  0.00    -0.009 C 
ENDBRANCH   6   9
TORSDOF 1
ENDMDL
MODEL 6
REMARK VINA RESULT:      -6.3      3.565      6.158
REMARK  Name = 6857487
REMARK  1 active torsions:
REMARK  status: ('A' for Active; 'I' for Inactive)
REMARK    1  A    between atoms: C_6  and  C_9
REMARK                            x       y       z     vdW  Elec       q    Type
REMARK                         _______ _______ _______ _____ _____    ______ ____
ROOT
ATOM      1  O   UNL     1      32.789 -15.010 -22.112  0.00  0.00    -0.356 OA
ATOM      2  C   UNL     1      33.938 -14.834 -22.964  0.00  0.00    +0.118 C 
ATOM      3  C   UNL     1      34.067 -14.990 -21.473  0.00  0.00    +0.140 C 
ATOM      4  C   UNL     1      34.178 -15.986 -23.886  0.00  0.00    +0.030 C 
ATOM      5  C   UNL     1      34.513 -16.288 -20.879  0.00  0.00    +0.036 C 
ATOM      6  C   UNL     1      34.391 -17.474 -21.848  0.00  0.00    +0.021 C 
ATOM      7  C   UNL     1      34.975 -17.109 -23.221  0.00  0.00    +0.007 C 
ATOM      8  C   UNL     1      34.018 -13.478 -23.549  0.00  0.00    +0.032 C 
ENDROOT
BRANCH   6   9
ATOM      9  C   UNL     1      35.072 -18.680 -21.276  0.00  0.00    -0.044 C 
ATOM     10  C   UNL     1      34.172 -19.770 -20.772  0.00  0.00    +0.026 C 
ATOM     11  C   UNL     1      36.408 -18.780 -21.219  0.00  0.00    -0.009 C 
ENDBRANCH   6   9
TORSDOF 1
ENDMDL
MODEL 7
REMARK VINA RESULT:      -6.3      3.317      5.047
REMARK  Name = 6857487
REMARK  1 active torsions:
REMARK  status: ('A' for Active; 'I' for Inactive)
REMARK    1  A    between atoms: C_6  and  C_9
REMARK                            x       y       z     vdW  Elec       q    Type
REMARK                         _______ _______ _______ _____ _____    ______ ____
ROOT
ATOM      1  O   UNL     1      34.508 -19.054 -22.470  0.00  0.00    -0.356 OA
ATOM      2  C   UNL     1      35.492 -18.234 -21.810  0.00  0.00    +0.118 C 
ATOM      3  C   UNL     1      35.472 -18.407 -23.304  0.00  0.00    +0.140 C 
ATOM      4  C   UNL     1      34.916 -17.015 -21.164  0.00  0.00    +0.030 C 
ATOM      5  C   UNL     1      34.940 -17.325 -24.188  0.00  0.00    +0.036 C 
ATOM      6  C   UNL     1      34.070 -16.301 -23.442  0.00  0.00    +0.021 C 
ATOM      7  C   UNL     1      34.762 -15.852 -22.145  0.00  0.00    +0.007 C 
ATOM      8  C   UNL     1      36.457 -19.023 -21.013  0.00  0.00    +0.032 C 
ENDROOT
BRANCH   6   9
ATOM      9  C   UNL     1      33.775 -15.130 -24.328  0.00  0.00    -0.044 C 
ATOM     10  C   UNL     1      33.892 -13.775 -23.694  0.00  0.00    +0.026 C 
ATOM     11  C   UNL     1      33.427 -15.283 -25.614  0.00  0.00    -0.009 C 
ENDBRANCH   6   9
TORSDOF 1
ENDMDL
MODEL 8
REMARK VINA RESULT:      -6.3      2.582      5.341
REMARK  Name = 6857487
REMARK  1 active torsions:
REMARK  status: ('A' for Active; 'I' for Inactive)
REMARK    1  A    between atoms: C_6  and  C_9
REMARK                            x       y       z     vdW  Elec       q    Type
REMARK                         _______ _______ _______ _____ _____    ______ ____
ROOT
ATOM      1  O   UNL     1      33.880 -16.453 -23.111  0.00  0.00    -0.356 OA
ATOM      2  C   UNL     1      34.713 -17.183 -24.033  0.00  0.00    +0.118 C 
ATOM      3  C   UNL     1      35.226 -16.707 -22.701  0.00  0.00    +0.140 C 
ATOM      4  C   UNL     1      34.279 -18.600 -24.234  0.00  0.00    +0.030 C 
ATOM      5  C   UNL     1      35.385 -17.662 -21.561  0.00  0.00    +0.036 C 
ATOM      6  C   UNL     1      34.602 -18.970 -21.749  0.00  0.00    +0.021 C 
ATOM      7  C   UNL     1      34.832 -19.537 -23.159  0.00  0.00    +0.007 C 
ATOM      8  C   UNL     1      35.046 -16.405 -25.246  0.00  0.00    +0.032 C 
ENDROOT
BRANCH   6   9
ATOM      9  C   UNL     1      34.996 -19.963 -20.699  0.00  0.00    -0.044 C 
ATOM     10  C   UNL     1      33.874 -20.721 -20.053  0.00  0.00    +0.026 C 
ATOM     11  C   UNL     1      36.276 -20.164 -20.357  0.00  0.00    -0.009 C 
ENDBRANCH   6   9
TORSDOF 1
ENDMDL
MODEL 9
REMARK VINA RESULT:      -6.2      4.717      7.066
REMARK  Name = 6857487
REMARK  1 active torsions:
REMARK  status: ('A' for Active; 'I' for Inactive)
REMARK    1  A    between atoms: C_6  and  C_9
REMARK                            x       y       z     vdW  Elec       q    Type
REMARK                         _______ _______ _______ _____ _____    ______ ____
ROOT
ATOM      1  O   UNL     1      32.939 -14.431 -22.824  0.00  0.00    -0.356 OA
ATOM      2  C   UNL     1      33.685 -14.136 -24.021  0.00  0.00    +0.118 C 
ATOM      3  C   UNL     1      34.362 -14.534 -22.738  0.00  0.00    +0.140 C 
ATOM      4  C   UNL     1      33.464 -15.127 -25.119  0.00  0.00    +0.030 C 
ATOM      5  C   UNL     1      34.901 -15.917 -22.559  0.00  0.00    +0.036 C 
ATOM      6  C   UNL     1      34.328 -16.929 -23.563  0.00  0.00    +0.021 C 
ATOM      7  C   UNL     1      34.367 -16.354 -24.987  0.00  0.00    +0.007 C 
ATOM      8  C   UNL     1      33.637 -12.704 -24.389  0.00  0.00    +0.032 C 
ENDROOT
BRANCH   6   9
ATOM      9  C   UNL     1      35.082 -18.221 -23.483  0.00  0.00    -0.044 C 
ATOM     10  C   UNL     1      36.123 -18.312 -22.407  0.00  0.00    +0.026 C 
ATOM     11  C   UNL     1      34.839 -19.238 -24.322  0.00  0.00    -0.009 C 
ENDBRANCH   6   9
TORSDOF 1
ENDMDL
