MODEL 1
REMARK VINA RESULT:      -4.2      0.000      0.000
REMARK  Name = 168140
REMARK  3 active torsions:
REMARK  status: ('A' for Active; 'I' for Inactive)
REMARK    1  A    between atoms: P_2  and  O_3
REMARK    2  A    between atoms: P_2  and  O_5
REMARK    3  A    between atoms: P_2  and  O_7
REMARK                            x       y       z     vdW  Elec       q    Type
REMARK                         _______ _______ _______ _____ _____    ______ ____
ROOT
ATOM      1  S   UNL     1      37.353 -22.968 -12.014  0.00  0.00    +0.022 S 
ATOM      2  P   UNL     1      36.115 -24.307 -11.341  0.00  0.00    +0.307 P 
ENDROOT
BRANCH   2   3
ATOM      3  O   UNL     1      36.476 -25.856 -11.663  0.00  0.00    -0.295 OA
ATOM      4  C   UNL     1      37.364 -26.168 -12.723  0.00  0.00    +0.184 C 
ENDBRANCH   2   3
BRANCH   2   5
ATOM      5  O   UNL     1      34.598 -24.142 -11.899  0.00  0.00    -0.295 OA
ATOM      6  C   UNL     1      34.338 -24.119 -13.292  0.00  0.00    +0.184 C 
ENDBRANCH   2   5
BRANCH   2   7
ATOM      7  O   UNL     1      35.912 -24.306  -9.730  0.00  0.00    -0.327 OA
ATOM      8  H   UNL     1      36.023 -25.207  -9.390  0.00  0.00    +0.219 HD
ENDBRANCH   2   7
TORSDOF 3
ENDMDL
MODEL 2
REMARK VINA RESULT:      -4.1      3.434      4.719
REMARK  Name = 168140
REMARK  3 active torsions:
REMARK  status: ('A' for Active; 'I' for Inactive)
REMARK    1  A    between atoms: P_2  and  O_3
REMARK    2  A    between atoms: P_2  and  O_5
REMARK    3  A    between atoms: P_2  and  O_7
REMARK                            x       y       z     vdW  Elec       q    Type
REMARK                         _______ _______ _______ _____ _____    ______ ____
ROOT
ATOM      1  S   UNL     1      37.598 -24.120 -14.991  0.00  0.00    +0.022 S 
ATOM      2  P   UNL     1      37.770 -26.044 -14.779  0.00  0.00    +0.307 P 
ENDROOT
BRANCH   2   3
ATOM      3  O   UNL     1      37.158 -26.682 -13.418  0.00  0.00    -0.295 OA
ATOM      4  C   UNL     1      37.069 -25.889 -12.246  0.00  0.00    +0.184 C 
ENDBRANCH   2   3
BRANCH   2   5
ATOM      5  O   UNL     1      39.305 -26.576 -14.796  0.00  0.00    -0.295 OA
ATOM      6  C   UNL     1      40.365 -25.736 -14.373  0.00  0.00    +0.184 C 
ENDBRANCH   2   5
BRANCH   2   7
ATOM      7  O   UNL     1      37.066 -26.929 -15.945  0.00  0.00    -0.327 OA
ATOM      8  H   UNL     1      36.755 -27.767 -15.571  0.00  0.00    +0.219 HD
ENDBRANCH   2   7
TORSDOF 3
ENDMDL
MODEL 3
REMARK VINA RESULT:      -4.0      4.192      4.327
REMARK  Name = 168140
REMARK  3 active torsions:
REMARK  status: ('A' for Active; 'I' for Inactive)
REMARK    1  A    between atoms: P_2  and  O_3
REMARK    2  A    between atoms: P_2  and  O_5
REMARK    3  A    between atoms: P_2  and  O_7
REMARK                            x       y       z     vdW  Elec       q    Type
REMARK                         _______ _______ _______ _____ _____    ______ ____
ROOT
ATOM      1  S   UNL     1      37.133 -25.755 -12.647  0.00  0.00    +0.022 S 
ATOM      2  P   UNL     1      37.907 -25.638 -14.426  0.00  0.00    +0.307 P 
ENDROOT
BRANCH   2   3
ATOM      3  O   UNL     1      39.207 -26.566 -14.714  0.00  0.00    -0.295 OA
ATOM      4  C   UNL     1      40.508 -26.020 -14.577  0.00  0.00    +0.184 C 
ENDBRANCH   2   3
BRANCH   2   5
ATOM      5  O   UNL     1      38.404 -24.146 -14.833  0.00  0.00    -0.295 OA
ATOM      6  C   UNL     1      37.528 -23.246 -15.489  0.00  0.00    +0.184 C 
ENDBRANCH   2   5
BRANCH   2   7
ATOM      7  O   UNL     1      36.903 -26.030 -15.639  0.00  0.00    -0.327 OA
ATOM      8  H   UNL     1      36.110 -26.456 -15.278  0.00  0.00    +0.219 HD
ENDBRANCH   2   7
TORSDOF 3
ENDMDL
MODEL 4
REMARK VINA RESULT:      -4.0      8.366      9.253
REMARK  Name = 168140
REMARK  3 active torsions:
REMARK  status: ('A' for Active; 'I' for Inactive)
REMARK    1  A    between atoms: P_2  and  O_3
REMARK    2  A    between atoms: P_2  and  O_5
REMARK    3  A    between atoms: P_2  and  O_7
REMARK                            x       y       z     vdW  Elec       q    Type
REMARK                         _______ _______ _______ _____ _____    ______ ____
ROOT
ATOM      1  S   UNL     1      28.971 -24.612 -15.046  0.00  0.00    +0.022 S 
ATOM      2  P   UNL     1      28.524 -23.308 -16.416  0.00  0.00    +0.307 P 
ENDROOT
BRANCH   2   3
ATOM      3  O   UNL     1      29.764 -22.487 -17.068  0.00  0.00    -0.295 OA
ATOM      4  C   UNL     1      31.090 -22.768 -16.655  0.00  0.00    +0.184 C 
ENDBRANCH   2   3
BRANCH   2   5
ATOM      5  O   UNL     1      27.514 -22.140 -15.911  0.00  0.00    -0.295 OA
ATOM      6  C   UNL     1      26.401 -21.757 -16.700  0.00  0.00    +0.184 C 
ENDBRANCH   2   5
BRANCH   2   7
ATOM      7  O   UNL     1      27.762 -23.912 -17.716  0.00  0.00    -0.327 OA
ATOM      8  H   UNL     1      28.240 -23.655 -18.519  0.00  0.00    +0.219 HD
ENDBRANCH   2   7
TORSDOF 3
ENDMDL
MODEL 5
REMARK VINA RESULT:      -3.9      2.576      2.688
REMARK  Name = 168140
REMARK  3 active torsions:
REMARK  status: ('A' for Active; 'I' for Inactive)
REMARK    1  A    between atoms: P_2  and  O_3
REMARK    2  A    between atoms: P_2  and  O_5
REMARK    3  A    between atoms: P_2  and  O_7
REMARK                            x       y       z     vdW  Elec       q    Type
REMARK                         _______ _______ _______ _____ _____    ______ ____
ROOT
ATOM      1  S   UNL     1      36.208 -23.521 -13.722  0.00  0.00    +0.022 S 
ATOM      2  P   UNL     1      37.529 -23.531 -12.297  0.00  0.00    +0.307 P 
ENDROOT
BRANCH   2   3
ATOM      3  O   UNL     1      38.946 -24.252 -12.626  0.00  0.00    -0.295 OA
ATOM      4  C   UNL     1      38.982 -25.375 -13.489  0.00  0.00    +0.184 C 
ENDBRANCH   2   3
BRANCH   2   5
ATOM      5  O   UNL     1      37.029 -24.271 -10.939  0.00  0.00    -0.295 OA
ATOM      6  C   UNL     1      35.648 -24.387 -10.645  0.00  0.00    +0.184 C 
ENDBRANCH   2   5
BRANCH   2   7
ATOM      7  O   UNL     1      37.979 -22.065 -11.767  0.00  0.00    -0.327 OA
ATOM      8  H   UNL     1      37.395 -21.789 -11.044  0.00  0.00    +0.219 HD
ENDBRANCH   2   7
TORSDOF 3
ENDMDL
MODEL 6
REMARK VINA RESULT:      -3.9      3.035      4.047
REMARK  Name = 168140
REMARK  3 active torsions:
REMARK  status: ('A' for Active; 'I' for Inactive)
REMARK    1  A    between atoms: P_2  and  O_3
REMARK    2  A    between atoms: P_2  and  O_5
REMARK    3  A    between atoms: P_2  and  O_7
REMARK                            x       y       z     vdW  Elec       q    Type
REMARK                         _______ _______ _______ _____ _____    ______ ____
ROOT
ATOM      1  S   UNL     1      36.839 -25.111 -14.714  0.00  0.00    +0.022 S 
ATOM      2  P   UNL     1      37.921 -25.344 -13.117  0.00  0.00    +0.307 P 
ENDROOT
BRANCH   2   3
ATOM      3  O   UNL     1      38.425 -23.990 -12.378  0.00  0.00    -0.295 OA
ATOM      4  C   UNL     1      37.476 -23.058 -11.888  0.00  0.00    +0.184 C 
ENDBRANCH   2   3
BRANCH   2   5
ATOM      5  O   UNL     1      39.292 -26.180 -13.364  0.00  0.00    -0.295 OA
ATOM      6  C   UNL     1      40.243 -25.742 -14.319  0.00  0.00    +0.184 C 
ENDBRANCH   2   5
BRANCH   2   7
ATOM      7  O   UNL     1      37.204 -26.170 -11.917  0.00  0.00    -0.327 OA
ATOM      8  H   UNL     1      37.397 -27.115 -12.014  0.00  0.00    +0.219 HD
ENDBRANCH   2   7
TORSDOF 3
ENDMDL
MODEL 7
REMARK VINA RESULT:      -3.8      4.077      4.562
REMARK  Name = 168140
REMARK  3 active torsions:
REMARK  status: ('A' for Active; 'I' for Inactive)
REMARK    1  A    between atoms: P_2  and  O_3
REMARK    2  A    between atoms: P_2  and  O_5
REMARK    3  A    between atoms: P_2  and  O_7
REMARK                            x       y       z     vdW  Elec       q    Type
REMARK                         _______ _______ _______ _____ _____    ______ ____
ROOT
ATOM      1  S   UNL     1      36.870 -25.971 -14.829  0.00  0.00    +0.022 S 
ATOM      2  P   UNL     1      38.566 -25.026 -14.738  0.00  0.00    +0.307 P 
ENDROOT
BRANCH   2   3
ATOM      3  O   UNL     1      39.153 -24.729 -13.254  0.00  0.00    -0.295 OA
ATOM      4  C   UNL     1      38.275 -24.327 -12.216  0.00  0.00    +0.184 C 
ENDBRANCH   2   3
BRANCH   2   5
ATOM      5  O   UNL     1      38.544 -23.562 -15.442  0.00  0.00    -0.295 OA
ATOM      6  C   UNL     1      37.317 -22.906 -15.708  0.00  0.00    +0.184 C 
ENDBRANCH   2   5
BRANCH   2   7
ATOM      7  O   UNL     1      39.805 -25.767 -15.479  0.00  0.00    -0.327 OA
ATOM      8  H   UNL     1      39.652 -26.725 -15.487  0.00  0.00    +0.219 HD
ENDBRANCH   2   7
TORSDOF 3
ENDMDL
MODEL 8
REMARK VINA RESULT:      -3.8      2.737      2.999
REMARK  Name = 168140
REMARK  3 active torsions:
REMARK  status: ('A' for Active; 'I' for Inactive)
REMARK    1  A    between atoms: P_2  and  O_3
REMARK    2  A    between atoms: P_2  and  O_5
REMARK    3  A    between atoms: P_2  and  O_7
REMARK                            x       y       z     vdW  Elec       q    Type
REMARK                         _______ _______ _______ _____ _____    ______ ____
ROOT
ATOM      1  S   UNL     1      37.671 -23.723 -12.210  0.00  0.00    +0.022 S 
ATOM      2  P   UNL     1      37.509 -25.507 -12.964  0.00  0.00    +0.307 P 
ENDROOT
BRANCH   2   3
ATOM      3  O   UNL     1      38.885 -26.216 -13.452  0.00  0.00    -0.295 OA
ATOM      4  C   UNL     1      39.938 -25.427 -13.977  0.00  0.00    +0.184 C 
ENDBRANCH   2   3
BRANCH   2   5
ATOM      5  O   UNL     1      36.552 -25.585 -14.275  0.00  0.00    -0.295 OA
ATOM      6  C   UNL     1      36.688 -26.642 -15.208  0.00  0.00    +0.184 C 
ENDBRANCH   2   5
BRANCH   2   7
ATOM      7  O   UNL     1      36.858 -26.615 -11.973  0.00  0.00    -0.327 OA
ATOM      8  H   UNL     1      37.318 -26.596 -11.120  0.00  0.00    +0.219 HD
ENDBRANCH   2   7
TORSDOF 3
ENDMDL
MODEL 9
REMARK VINA RESULT:      -3.8      7.245      8.280
REMARK  Name = 168140
REMARK  3 active torsions:
REMARK  status: ('A' for Active; 'I' for Inactive)
REMARK    1  A    between atoms: P_2  and  O_3
REMARK    2  A    between atoms: P_2  and  O_5
REMARK    3  A    between atoms: P_2  and  O_7
REMARK                            x       y       z     vdW  Elec       q    Type
REMARK                         _______ _______ _______ _____ _____    ______ ____
ROOT
ATOM      1  S   UNL     1      35.836 -21.545 -19.303  0.00  0.00    +0.022 S 
ATOM      2  P   UNL     1      34.145 -22.460 -19.018  0.00  0.00    +0.307 P 
ENDROOT
BRANCH   2   3
ATOM      3  O   UNL     1      32.808 -21.687 -19.517  0.00  0.00    -0.295 OA
ATOM      4  C   UNL     1      32.921 -20.439 -20.180  0.00  0.00    +0.184 C 
ENDBRANCH   2   3
BRANCH   2   5
ATOM      5  O   UNL     1      33.833 -22.800 -17.460  0.00  0.00    -0.295 OA
ATOM      6  C   UNL     1      32.525 -23.151 -17.045  0.00  0.00    +0.184 C 
ENDBRANCH   2   5
BRANCH   2   7
ATOM      7  O   UNL     1      34.019 -23.910 -19.738  0.00  0.00    -0.327 OA
ATOM      8  H   UNL     1      33.227 -23.925 -20.297  0.00  0.00    +0.219 HD
ENDBRANCH   2   7
TORSDOF 3
ENDMDL
