MODEL 1
REMARK VINA RESULT:      -6.1      0.000      0.000
REMARK  Name = 69846
REMARK  0 active torsions:
REMARK  status: ('A' for Active; 'I' for Inactive)
REMARK                            x       y       z     vdW  Elec       q    Type
REMARK                         _______ _______ _______ _____ _____    ______ ____
ROOT
ATOM      1 BR   UNL     1      34.199 -14.923 -21.491  0.00  0.00    -0.056 Br
ATOM      2  N   UNL     1      34.903 -17.054 -23.151  0.00  0.00    -0.263 NA
ATOM      3  N   UNL     1      34.528 -17.363 -25.489  0.00  0.00    -0.201 NA
ATOM      4  N   UNL     1      33.121 -14.192 -24.595  0.00  0.00    -0.236 NA
ATOM      5  N   UNL     1      33.360 -15.506 -26.474  0.00  0.00    -0.192 NA
ATOM      6  C   UNL     1      33.780 -15.338 -24.257  0.00  0.00    +0.142 C 
ATOM      7  C   UNL     1      33.908 -16.140 -25.481  0.00  0.00    +0.045 C 
ATOM      8  C   UNL     1      34.284 -15.820 -23.117  0.00  0.00    +0.163 C 
ATOM      9  C   UNL     1      34.987 -17.749 -24.335  0.00  0.00    +0.209 C 
ATOM     10  C   UNL     1      32.903 -14.337 -25.874  0.00  0.00    +0.261 C 
ATOM     11  H   UNL     1      35.285 -17.436 -22.328  0.00  0.00    +0.126 HD
ENDROOT
TORSDOF 0
ENDMDL
MODEL 2
REMARK VINA RESULT:      -6.0     13.235     14.669
REMARK  Name = 69846
REMARK  0 active torsions:
REMARK  status: ('A' for Active; 'I' for Inactive)
REMARK                            x       y       z     vdW  Elec       q    Type
REMARK                         _______ _______ _______ _____ _____    ______ ____
ROOT
ATOM      1 BR   UNL     1      37.124 -22.645 -15.959  0.00  0.00    -0.056 Br
ATOM      2  N   UNL     1      39.212 -24.417 -15.417  0.00  0.00    -0.263 NA
ATOM      3  N   UNL     1      39.477 -25.967 -13.620  0.00  0.00    -0.201 NA
ATOM      4  N   UNL     1      36.343 -24.301 -13.135  0.00  0.00    -0.236 NA
ATOM      5  N   UNL     1      37.615 -25.921 -12.100  0.00  0.00    -0.192 NA
ATOM      6  C   UNL     1      37.488 -24.495 -13.853  0.00  0.00    +0.142 C 
ATOM      7  C   UNL     1      38.262 -25.531 -13.157  0.00  0.00    +0.045 C 
ATOM      8  C   UNL     1      37.987 -23.962 -14.972  0.00  0.00    +0.163 C 
ATOM      9  C   UNL     1      39.881 -25.390 -14.714  0.00  0.00    +0.209 C 
ATOM     10  C   UNL     1      36.464 -25.140 -12.143  0.00  0.00    +0.261 C 
ATOM     11  H   UNL     1      39.606 -24.043 -16.239  0.00  0.00    +0.126 HD
ENDROOT
TORSDOF 0
ENDMDL
MODEL 3
REMARK VINA RESULT:      -5.9      2.930      3.918
REMARK  Name = 69846
REMARK  0 active torsions:
REMARK  status: ('A' for Active; 'I' for Inactive)
REMARK                            x       y       z     vdW  Elec       q    Type
REMARK                         _______ _______ _______ _____ _____    ______ ____
ROOT
ATOM      1 BR   UNL     1      34.579 -17.026 -25.225  0.00  0.00    -0.056 Br
ATOM      2  N   UNL     1      35.328 -18.581 -23.032  0.00  0.00    -0.263 NA
ATOM      3  N   UNL     1      35.450 -18.007 -20.717  0.00  0.00    -0.201 NA
ATOM      4  N   UNL     1      34.344 -15.092 -22.480  0.00  0.00    -0.236 NA
ATOM      5  N   UNL     1      34.811 -15.725 -20.313  0.00  0.00    -0.192 NA
ATOM      6  C   UNL     1      34.740 -16.398 -22.473  0.00  0.00    +0.142 C 
ATOM      7  C   UNL     1      35.025 -16.754 -21.077  0.00  0.00    +0.045 C 
ATOM      8  C   UNL     1      34.900 -17.328 -23.419  0.00  0.00    +0.163 C 
ATOM      9  C   UNL     1      35.577 -18.844 -21.705  0.00  0.00    +0.209 C 
ATOM     10  C   UNL     1      34.402 -14.753 -21.221  0.00  0.00    +0.261 C 
ATOM     11  H   UNL     1      35.456 -19.288 -23.706  0.00  0.00    +0.126 HD
ENDROOT
TORSDOF 0
ENDMDL
MODEL 4
REMARK VINA RESULT:      -5.9      0.512      2.787
REMARK  Name = 69846
REMARK  0 active torsions:
REMARK  status: ('A' for Active; 'I' for Inactive)
REMARK                            x       y       z     vdW  Elec       q    Type
REMARK                         _______ _______ _______ _____ _____    ______ ____
ROOT
ATOM      1 BR   UNL     1      33.879 -14.524 -21.665  0.00  0.00    -0.056 Br
ATOM      2  N   UNL     1      33.219 -14.149 -24.351  0.00  0.00    -0.263 NA
ATOM      3  N   UNL     1      33.526 -15.603 -26.221  0.00  0.00    -0.201 NA
ATOM      4  N   UNL     1      34.808 -17.294 -23.335  0.00  0.00    -0.236 NA
ATOM      5  N   UNL     1      34.565 -17.678 -25.595  0.00  0.00    -0.192 NA
ATOM      6  C   UNL     1      34.218 -16.207 -23.911  0.00  0.00    +0.142 C 
ATOM      7  C   UNL     1      34.085 -16.497 -25.345  0.00  0.00    +0.045 C 
ATOM      8  C   UNL     1      33.779 -15.032 -23.450  0.00  0.00    +0.163 C 
ATOM      9  C   UNL     1      33.127 -14.488 -25.681  0.00  0.00    +0.209 C 
ATOM     10  C   UNL     1      34.987 -18.107 -24.341  0.00  0.00    +0.261 C 
ATOM     11  H   UNL     1      32.887 -13.275 -24.042  0.00  0.00    +0.126 HD
ENDROOT
TORSDOF 0
ENDMDL
MODEL 5
REMARK VINA RESULT:      -5.8     13.580     14.761
REMARK  Name = 69846
REMARK  0 active torsions:
REMARK  status: ('A' for Active; 'I' for Inactive)
REMARK                            x       y       z     vdW  Elec       q    Type
REMARK                         _______ _______ _______ _____ _____    ______ ____
ROOT
ATOM      1 BR   UNL     1      33.834 -23.396 -15.037  0.00  0.00    -0.056 Br
ATOM      2  N   UNL     1      34.766 -23.928 -12.460  0.00  0.00    -0.263 NA
ATOM      3  N   UNL     1      36.499 -25.401 -11.732  0.00  0.00    -0.201 NA
ATOM      4  N   UNL     1      36.312 -25.659 -15.300  0.00  0.00    -0.236 NA
ATOM      5  N   UNL     1      37.538 -26.556 -13.566  0.00  0.00    -0.192 NA
ATOM      6  C   UNL     1      35.876 -25.125 -14.122  0.00  0.00    +0.142 C 
ATOM      7  C   UNL     1      36.683 -25.725 -13.052  0.00  0.00    +0.045 C 
ATOM      8  C   UNL     1      34.932 -24.237 -13.795  0.00  0.00    +0.163 C 
ATOM      9  C   UNL     1      35.559 -24.529 -11.511  0.00  0.00    +0.209 C 
ATOM     10  C   UNL     1      37.263 -26.471 -14.928  0.00  0.00    +0.261 C 
ATOM     11  H   UNL     1      34.080 -23.277 -12.188  0.00  0.00    +0.126 HD
ENDROOT
TORSDOF 0
ENDMDL
MODEL 6
REMARK VINA RESULT:      -5.8      1.275      1.779
REMARK  Name = 69846
REMARK  0 active torsions:
REMARK  status: ('A' for Active; 'I' for Inactive)
REMARK                            x       y       z     vdW  Elec       q    Type
REMARK                         _______ _______ _______ _____ _____    ______ ____
ROOT
ATOM      1 BR   UNL     1      34.209 -14.909 -20.992  0.00  0.00    -0.056 Br
ATOM      2  N   UNL     1      35.349 -17.380 -21.613  0.00  0.00    -0.263 NA
ATOM      3  N   UNL     1      35.512 -18.508 -23.712  0.00  0.00    -0.201 NA
ATOM      4  N   UNL     1      33.813 -15.410 -24.298  0.00  0.00    -0.236 NA
ATOM      5  N   UNL     1      34.515 -17.247 -25.499  0.00  0.00    -0.192 NA
ATOM      6  C   UNL     1      34.428 -16.287 -23.452  0.00  0.00    +0.142 C 
ATOM      7  C   UNL     1      34.856 -17.436 -24.260  0.00  0.00    +0.045 C 
ATOM      8  C   UNL     1      34.688 -16.290 -22.141  0.00  0.00    +0.163 C 
ATOM      9  C   UNL     1      35.720 -18.422 -22.431  0.00  0.00    +0.209 C 
ATOM     10  C   UNL     1      33.889 -16.005 -25.456  0.00  0.00    +0.261 C 
ATOM     11  H   UNL     1      35.555 -17.412 -20.651  0.00  0.00    +0.126 HD
ENDROOT
TORSDOF 0
ENDMDL
MODEL 7
REMARK VINA RESULT:      -5.8     12.727     14.136
REMARK  Name = 69846
REMARK  0 active torsions:
REMARK  status: ('A' for Active; 'I' for Inactive)
REMARK                            x       y       z     vdW  Elec       q    Type
REMARK                         _______ _______ _______ _____ _____    ______ ____
ROOT
ATOM      1 BR   UNL     1      37.221 -22.267 -15.894  0.00  0.00    -0.056 Br
ATOM      2  N   UNL     1      36.045 -24.747 -15.387  0.00  0.00    -0.263 NA
ATOM      3  N   UNL     1      37.044 -26.804 -14.696  0.00  0.00    -0.201 NA
ATOM      4  N   UNL     1      39.673 -24.387 -14.987  0.00  0.00    -0.236 NA
ATOM      5  N   UNL     1      39.424 -26.609 -14.423  0.00  0.00    -0.192 NA
ATOM      6  C   UNL     1      38.353 -24.726 -15.077  0.00  0.00    +0.142 C 
ATOM      7  C   UNL     1      38.246 -26.144 -14.709  0.00  0.00    +0.045 C 
ATOM      8  C   UNL     1      37.242 -24.061 -15.408  0.00  0.00    +0.163 C 
ATOM      9  C   UNL     1      36.019 -26.076 -15.032  0.00  0.00    +0.209 C 
ATOM     10  C   UNL     1      40.243 -25.499 -14.610  0.00  0.00    +0.261 C 
ATOM     11  H   UNL     1      35.209 -24.286 -15.626  0.00  0.00    +0.126 HD
ENDROOT
TORSDOF 0
ENDMDL
MODEL 8
REMARK VINA RESULT:      -5.8      1.872      3.407
REMARK  Name = 69846
REMARK  0 active torsions:
REMARK  status: ('A' for Active; 'I' for Inactive)
REMARK                            x       y       z     vdW  Elec       q    Type
REMARK                         _______ _______ _______ _____ _____    ______ ____
ROOT
ATOM      1 BR   UNL     1      34.543 -18.166 -24.957  0.00  0.00    -0.056 Br
ATOM      2  N   UNL     1      33.493 -15.931 -26.259  0.00  0.00    -0.263 NA
ATOM      3  N   UNL     1      33.141 -13.712 -25.449  0.00  0.00    -0.201 NA
ATOM      4  N   UNL     1      34.553 -15.614 -22.762  0.00  0.00    -0.236 NA
ATOM      5  N   UNL     1      33.824 -13.463 -23.158  0.00  0.00    -0.192 NA
ATOM      6  C   UNL     1      34.106 -15.524 -24.048  0.00  0.00    +0.142 C 
ATOM      7  C   UNL     1      33.654 -14.142 -24.252  0.00  0.00    +0.045 C 
ATOM      8  C   UNL     1      34.013 -16.387 -25.064  0.00  0.00    +0.163 C 
ATOM      9  C   UNL     1      33.090 -14.621 -26.378  0.00  0.00    +0.209 C 
ATOM     10  C   UNL     1      34.370 -14.409 -22.296  0.00  0.00    +0.261 C 
ATOM     11  H   UNL     1      33.412 -16.542 -27.026  0.00  0.00    +0.126 HD
ENDROOT
TORSDOF 0
ENDMDL
MODEL 9
REMARK VINA RESULT:      -5.8      6.884      8.593
REMARK  Name = 69846
REMARK  0 active torsions:
REMARK  status: ('A' for Active; 'I' for Inactive)
REMARK                            x       y       z     vdW  Elec       q    Type
REMARK                         _______ _______ _______ _____ _____    ______ ____
ROOT
ATOM      1 BR   UNL     1      33.380 -19.720 -21.051  0.00  0.00    -0.056 Br
ATOM      2  N   UNL     1      35.820 -20.509 -19.949  0.00  0.00    -0.263 NA
ATOM      3  N   UNL     1      36.285 -22.136 -18.263  0.00  0.00    -0.201 NA
ATOM      4  N   UNL     1      32.737 -22.097 -18.756  0.00  0.00    -0.236 NA
ATOM      5  N   UNL     1      34.287 -23.200 -17.454  0.00  0.00    -0.192 NA
ATOM      6  C   UNL     1      33.984 -21.634 -19.059  0.00  0.00    +0.142 C 
ATOM      7  C   UNL     1      34.934 -22.364 -18.208  0.00  0.00    +0.045 C 
ATOM      8  C   UNL     1      34.457 -20.720 -19.912  0.00  0.00    +0.163 C 
ATOM      9  C   UNL     1      36.650 -21.230 -19.122  0.00  0.00    +0.209 C 
ATOM     10  C   UNL     1      32.965 -22.991 -17.833  0.00  0.00    +0.261 C 
ATOM     11  H   UNL     1      36.199 -19.843 -20.567  0.00  0.00    +0.126 HD
ENDROOT
TORSDOF 0
ENDMDL
