MODEL 1
REMARK VINA RESULT:      -9.3      0.000      0.000
REMARK  Name = 110634
REMARK  8 active torsions:
REMARK  status: ('A' for Active; 'I' for Inactive)
REMARK    1  A    between atoms: C_1  and  S_22
REMARK    2  A    between atoms: C_4  and  C_12
REMARK    3  A    between atoms: C_5  and  O_34
REMARK    4  A    between atoms: C_13  and  C_19
REMARK    5  A    between atoms: C_19  and  C_20
REMARK    6  A    between atoms: S_22  and  N_25
REMARK    7  A    between atoms: N_26  and  C_32
REMARK    8  A    between atoms: O_34  and  C_35
REMARK                            x       y       z     vdW  Elec       q    Type
REMARK                         _______ _______ _______ _____ _____    ______ ____
ROOT
ATOM      1  C   UNL     1      33.668 -14.898 -23.524  0.00  0.00    +0.123 C 
ATOM      2  C   UNL     1      33.918 -13.588 -23.902  0.00  0.00    +0.027 C 
ATOM      3  C   UNL     1      32.819 -15.196 -22.472  0.00  0.00    +0.023 C 
ATOM      4  C   UNL     1      33.301 -12.548 -23.208  0.00  0.00    +0.081 C 
ATOM      5  C   UNL     1      32.443 -12.831 -22.144  0.00  0.00    +0.142 C 
ATOM      6  C   UNL     1      32.201 -14.155 -21.777  0.00  0.00    +0.038 C 
ENDROOT
BRANCH   4  12
ATOM      7  O   UNL     1      35.640  -9.494 -25.896  0.00  0.00    -0.212 OA
ATOM      8  N   UNL     1      33.165  -8.865 -23.392  0.00  0.00    -0.195 N 
ATOM      9  N   UNL     1      32.867 -10.124 -22.981  0.00  0.00    -0.233 N 
ATOM     10  N   UNL     1      34.471 -10.955 -24.559  0.00  0.00    -0.318 NA
ATOM     11  N   UNL     1      33.212  -6.667 -23.623  0.00  0.00    -0.396 NA
ATOM     12  C   UNL     1      33.574 -11.133 -23.620  0.00  0.00    +0.212 C 
ATOM     13  C   UNL     1      32.661  -7.671 -22.973  0.00  0.00    +0.176 C 
ATOM     14  C   UNL     1      34.090  -8.622 -24.365  0.00  0.00    +0.259 C 
ATOM     15  C   UNL     1      34.103  -7.252 -24.494  0.00  0.00    +0.125 C 
ATOM     16  C   UNL     1      34.808  -9.688 -25.017  0.00  0.00    +0.208 C 
ATOM     17  C   UNL     1      34.911  -6.416 -25.396  0.00  0.00    +0.065 C 
ATOM     18  H   UNL     1      32.198 -10.308 -22.283  0.00  0.00    +0.173 HD
BRANCH  13  19
ATOM     19  C   UNL     1      31.632  -7.567 -21.920  0.00  0.00    +0.076 C 
BRANCH  19  20
ATOM     20  C   UNL     1      31.643  -6.197 -21.212  0.00  0.00    +0.009 C 
ATOM     21  C   UNL     1      30.501  -5.299 -21.661  0.00  0.00    +0.000 C 
ENDBRANCH  19  20
ENDBRANCH  13  19
ENDBRANCH   4  12
BRANCH   1  22
ATOM     22  S   UNL     1      34.450 -16.215 -24.403  0.00  0.00    +0.063 S 
ATOM     23  O   UNL     1      33.534 -16.667 -25.428  0.00  0.00    -0.153 OA
ATOM     24  O   UNL     1      35.794 -15.791 -24.738  0.00  0.00    -0.153 OA
BRANCH  22  25
ATOM     25  N   UNL     1      34.532 -17.395 -23.164  0.00  0.00    -0.160 NA
ATOM     26  N   UNL     1      35.377 -19.504 -21.404  0.00  0.00    +0.389 N 
ATOM     27  C   UNL     1      34.562 -18.811 -23.628  0.00  0.00    +0.073 C 
ATOM     28  C   UNL     1      35.554 -17.146 -22.109  0.00  0.00    +0.073 C 
ATOM     29  C   UNL     1      34.357 -19.742 -22.435  0.00  0.00    -0.058 C 
ATOM     30  C   UNL     1      35.329 -18.109 -20.945  0.00  0.00    -0.058 C 
ATOM     31  H   UNL     1      36.295 -19.678 -21.813  0.00  0.00    -0.080 HD
BRANCH  26  32
ATOM     32  C   UNL     1      35.196 -20.423 -20.280  0.00  0.00    -0.077 C 
ATOM     33  C   UNL     1      33.727 -20.747 -20.067  0.00  0.00    -0.025 C 
ENDBRANCH  26  32
ENDBRANCH  22  25
ENDBRANCH   1  22
BRANCH   5  34
ATOM     34  O   UNL     1      31.830 -11.828 -21.454  0.00  0.00    -0.475 OA
BRANCH  34  35
ATOM     35  C   UNL     1      31.796 -11.948 -20.033  0.00  0.00    +0.206 C 
ATOM     36  C   UNL     1      31.158 -10.705 -19.449  0.00  0.00    +0.051 C 
ENDBRANCH  34  35
ENDBRANCH   5  34
TORSDOF 8
ENDMDL
MODEL 2
REMARK VINA RESULT:      -8.6      3.029      9.841
REMARK  Name = 110634
REMARK  8 active torsions:
REMARK  status: ('A' for Active; 'I' for Inactive)
REMARK    1  A    between atoms: C_1  and  S_22
REMARK    2  A    between atoms: C_4  and  C_12
REMARK    3  A    between atoms: C_5  and  O_34
REMARK    4  A    between atoms: C_13  and  C_19
REMARK    5  A    between atoms: C_19  and  C_20
REMARK    6  A    between atoms: S_22  and  N_25
REMARK    7  A    between atoms: N_26  and  C_32
REMARK    8  A    between atoms: O_34  and  C_35
REMARK                            x       y       z     vdW  Elec       q    Type
REMARK                         _______ _______ _______ _____ _____    ______ ____
ROOT
ATOM      1  C   UNL     1      32.851  -8.647 -23.195  0.00  0.00    +0.123 C 
ATOM      2  C   UNL     1      32.841 -10.016 -23.407  0.00  0.00    +0.027 C 
ATOM      3  C   UNL     1      33.878  -7.850 -23.671  0.00  0.00    +0.023 C 
ATOM      4  C   UNL     1      33.888 -10.604 -24.116  0.00  0.00    +0.081 C 
ATOM      5  C   UNL     1      34.932  -9.815 -24.602  0.00  0.00    +0.142 C 
ATOM      6  C   UNL     1      34.926  -8.438 -24.380  0.00  0.00    +0.038 C 
ENDROOT
BRANCH   4  12
ATOM      7  O   UNL     1      33.185 -14.252 -26.983  0.00  0.00    -0.212 OA
ATOM      8  N   UNL     1      34.166 -14.238 -23.544  0.00  0.00    -0.195 N 
ATOM      9  N   UNL     1      34.206 -12.908 -23.278  0.00  0.00    -0.233 N 
ATOM     10  N   UNL     1      33.541 -12.494 -25.544  0.00  0.00    -0.318 NA
ATOM     11  N   UNL     1      34.279 -16.439 -23.367  0.00  0.00    -0.396 NA
ATOM     12  C   UNL     1      33.874 -12.086 -24.344  0.00  0.00    +0.212 C 
ATOM     13  C   UNL     1      34.430 -15.298 -22.729  0.00  0.00    +0.176 C 
ATOM     14  C   UNL     1      33.827 -14.720 -24.775  0.00  0.00    +0.259 C 
ATOM     15  C   UNL     1      33.904 -16.088 -24.644  0.00  0.00    +0.125 C 
ATOM     16  C   UNL     1      33.490 -13.844 -25.868  0.00  0.00    +0.208 C 
ATOM     17  C   UNL     1      33.644 -17.128 -25.651  0.00  0.00    +0.065 C 
ATOM     18  H   UNL     1      34.454 -12.553 -22.393  0.00  0.00    +0.173 HD
BRANCH  13  19
ATOM     19  C   UNL     1      34.830 -15.136 -21.317  0.00  0.00    +0.076 C 
BRANCH  19  20
ATOM     20  C   UNL     1      33.691 -15.476 -20.335  0.00  0.00    +0.009 C 
ATOM     21  C   UNL     1      32.568 -14.452 -20.367  0.00  0.00    +0.000 C 
ENDBRANCH  19  20
ENDBRANCH  13  19
ENDBRANCH   4  12
BRANCH   1  22
ATOM     22  S   UNL     1      31.524  -7.903 -22.298  0.00  0.00    +0.063 S 
ATOM     23  O   UNL     1      30.307  -8.605 -22.644  0.00  0.00    -0.153 OA
ATOM     24  O   UNL     1      31.941  -7.767 -20.918  0.00  0.00    -0.153 OA
BRANCH  22  25
ATOM     25  N   UNL     1      31.502  -6.353 -23.027  0.00  0.00    -0.160 NA
ATOM     26  N   UNL     1      30.690  -3.881 -24.249  0.00  0.00    +0.389 N 
ATOM     27  C   UNL     1      31.040  -6.317 -24.443  0.00  0.00    +0.073 C 
ATOM     28  C   UNL     1      30.867  -5.274 -22.219  0.00  0.00    +0.073 C 
ATOM     29  C   UNL     1      31.331  -4.940 -25.040  0.00  0.00    -0.058 C 
ATOM     30  C   UNL     1      31.163  -3.917 -22.859  0.00  0.00    -0.058 C 
ATOM     31  H   UNL     1      29.683  -4.043 -24.252  0.00  0.00    -0.080 HD
BRANCH  26  32
ATOM     32  C   UNL     1      30.944  -2.570 -24.845  0.00  0.00    -0.077 C 
ATOM     33  C   UNL     1      31.961  -1.786 -24.034  0.00  0.00    -0.025 C 
ENDBRANCH  26  32
ENDBRANCH  22  25
ENDBRANCH   1  22
BRANCH   5  34
ATOM     34  O   UNL     1      35.964 -10.371 -25.296  0.00  0.00    -0.475 OA
BRANCH  34  35
ATOM     35  C   UNL     1      36.062 -10.046 -26.681  0.00  0.00    +0.206 C 
ATOM     36  C   UNL     1      35.663 -11.254 -27.500  0.00  0.00    +0.051 C 
ENDBRANCH  34  35
ENDBRANCH   5  34
TORSDOF 8
ENDMDL
MODEL 3
REMARK VINA RESULT:      -8.4      2.695      9.522
REMARK  Name = 110634
REMARK  8 active torsions:
REMARK  status: ('A' for Active; 'I' for Inactive)
REMARK    1  A    between atoms: C_1  and  S_22
REMARK    2  A    between atoms: C_4  and  C_12
REMARK    3  A    between atoms: C_5  and  O_34
REMARK    4  A    between atoms: C_13  and  C_19
REMARK    5  A    between atoms: C_19  and  C_20
REMARK    6  A    between atoms: S_22  and  N_25
REMARK    7  A    between atoms: N_26  and  C_32
REMARK    8  A    between atoms: O_34  and  C_35
REMARK                            x       y       z     vdW  Elec       q    Type
REMARK                         _______ _______ _______ _____ _____    ______ ____
ROOT
ATOM      1  C   UNL     1      33.527  -8.880 -23.670  0.00  0.00    +0.123 C 
ATOM      2  C   UNL     1      33.837 -10.195 -23.975  0.00  0.00    +0.027 C 
ATOM      3  C   UNL     1      32.476  -8.564 -22.826  0.00  0.00    +0.023 C 
ATOM      4  C   UNL     1      33.075 -11.223 -23.421  0.00  0.00    +0.081 C 
ATOM      5  C   UNL     1      32.011 -10.922 -22.568  0.00  0.00    +0.142 C 
ATOM      6  C   UNL     1      31.713  -9.592 -22.270  0.00  0.00    +0.038 C 
ENDROOT
BRANCH   4  12
ATOM      7  O   UNL     1      33.554 -14.630 -26.613  0.00  0.00    -0.212 OA
ATOM      8  N   UNL     1      34.069 -14.759 -23.076  0.00  0.00    -0.195 N 
ATOM      9  N   UNL     1      33.783 -13.483 -22.712  0.00  0.00    -0.233 N 
ATOM     10  N   UNL     1      33.332 -12.990 -25.015  0.00  0.00    -0.318 NA
ATOM     11  N   UNL     1      34.638 -16.895 -23.042  0.00  0.00    -0.396 NA
ATOM     12  C   UNL     1      33.414 -12.645 -23.754  0.00  0.00    +0.212 C 
ATOM     13  C   UNL     1      34.455 -15.818 -22.309  0.00  0.00    +0.176 C 
ATOM     14  C   UNL     1      34.001 -15.174 -24.374  0.00  0.00    +0.259 C 
ATOM     15  C   UNL     1      34.358 -16.502 -24.332  0.00  0.00    +0.125 C 
ATOM     16  C   UNL     1      33.619 -14.282 -25.439  0.00  0.00    +0.208 C 
ATOM     17  C   UNL     1      34.461 -17.467 -25.438  0.00  0.00    +0.065 C 
ATOM     18  H   UNL     1      33.834 -13.176 -21.778  0.00  0.00    +0.173 HD
BRANCH  13  19
ATOM     19  C   UNL     1      34.629 -15.719 -20.846  0.00  0.00    +0.076 C 
BRANCH  19  20
ATOM     20  C   UNL     1      33.336 -15.291 -20.122  0.00  0.00    +0.009 C 
ATOM     21  C   UNL     1      32.112 -16.037 -20.626  0.00  0.00    +0.000 C 
ENDBRANCH  19  20
ENDBRANCH  13  19
ENDBRANCH   4  12
BRANCH   1  22
ATOM     22  S   UNL     1      34.492  -7.579 -24.373  0.00  0.00    +0.063 S 
ATOM     23  O   UNL     1      35.400  -7.101 -23.352  0.00  0.00    -0.153 OA
ATOM     24  O   UNL     1      34.985  -8.034 -25.656  0.00  0.00    -0.153 OA
BRANCH  22  25
ATOM     25  N   UNL     1      33.271  -6.406 -24.631  0.00  0.00    -0.160 NA
ATOM     26  N   UNL     1      31.785  -3.951 -24.805  0.00  0.00    +0.389 N 
ATOM     27  C   UNL     1      32.756  -5.736 -23.403  0.00  0.00    +0.073 C 
ATOM     28  C   UNL     1      33.549  -5.420 -25.713  0.00  0.00    +0.073 C 
ATOM     29  C   UNL     1      31.503  -4.933 -23.748  0.00  0.00    -0.058 C 
ATOM     30  C   UNL     1      32.279  -4.624 -26.014  0.00  0.00    -0.058 C 
ATOM     31  H   UNL     1      32.510  -3.317 -24.469  0.00  0.00    -0.080 HD
BRANCH  26  32
ATOM     32  C   UNL     1      30.591  -3.163 -25.106  0.00  0.00    -0.077 C 
ATOM     33  C   UNL     1      30.934  -1.948 -25.951  0.00  0.00    -0.025 C 
ENDBRANCH  26  32
ENDBRANCH  22  25
ENDBRANCH   1  22
BRANCH   5  34
ATOM     34  O   UNL     1      31.255 -11.912 -22.017  0.00  0.00    -0.475 OA
BRANCH  34  35
ATOM     35  C   UNL     1      30.627 -11.627 -20.769  0.00  0.00    +0.206 C 
ATOM     36  C   UNL     1      31.667 -11.682 -19.670  0.00  0.00    +0.051 C 
ENDBRANCH  34  35
ENDBRANCH   5  34
TORSDOF 8
ENDMDL
MODEL 4
REMARK VINA RESULT:      -8.0      5.552     13.059
REMARK  Name = 110634
REMARK  8 active torsions:
REMARK  status: ('A' for Active; 'I' for Inactive)
REMARK    1  A    between atoms: C_1  and  S_22
REMARK    2  A    between atoms: C_4  and  C_12
REMARK    3  A    between atoms: C_5  and  O_34
REMARK    4  A    between atoms: C_13  and  C_19
REMARK    5  A    between atoms: C_19  and  C_20
REMARK    6  A    between atoms: S_22  and  N_25
REMARK    7  A    between atoms: N_26  and  C_32
REMARK    8  A    between atoms: O_34  and  C_35
REMARK                            x       y       z     vdW  Elec       q    Type
REMARK                         _______ _______ _______ _____ _____    ______ ____
ROOT
ATOM      1  C   UNL     1      34.476 -20.540 -20.513  0.00  0.00    +0.123 C 
ATOM      2  C   UNL     1      33.690 -21.164 -19.559  0.00  0.00    +0.027 C 
ATOM      3  C   UNL     1      35.858 -20.564 -20.437  0.00  0.00    +0.023 C 
ATOM      4  C   UNL     1      34.302 -21.831 -18.499  0.00  0.00    +0.081 C 
ATOM      5  C   UNL     1      35.695 -21.864 -18.406  0.00  0.00    +0.142 C 
ATOM      6  C   UNL     1      36.473 -21.231 -19.376  0.00  0.00    +0.038 C 
ENDROOT
BRANCH   4  12
ATOM      7  O   UNL     1      30.050 -23.080 -16.955  0.00  0.00    -0.212 OA
ATOM      8  N   UNL     1      33.253 -23.674 -15.479  0.00  0.00    -0.195 N 
ATOM      9  N   UNL     1      34.081 -23.088 -16.381  0.00  0.00    -0.233 N 
ATOM     10  N   UNL     1      32.153 -22.488 -17.674  0.00  0.00    -0.318 NA
ATOM     11  N   UNL     1      32.458 -24.754 -13.722  0.00  0.00    -0.396 NA
ATOM     12  C   UNL     1      33.447 -22.505 -17.468  0.00  0.00    +0.212 C 
ATOM     13  C   UNL     1      33.549 -24.323 -14.318  0.00  0.00    +0.176 C 
ATOM     14  C   UNL     1      31.898 -23.687 -15.643  0.00  0.00    +0.259 C 
ATOM     15  C   UNL     1      31.424 -24.363 -14.542  0.00  0.00    +0.125 C 
ATOM     16  C   UNL     1      31.264 -23.078 -16.785  0.00  0.00    +0.208 C 
ATOM     17  C   UNL     1      30.033 -24.681 -14.182  0.00  0.00    +0.065 C 
ATOM     18  H   UNL     1      35.060 -23.079 -16.272  0.00  0.00    +0.173 HD
BRANCH  13  19
ATOM     19  C   UNL     1      34.933 -24.494 -13.833  0.00  0.00    +0.076 C 
BRANCH  19  20
ATOM     20  C   UNL     1      35.074 -24.200 -12.326  0.00  0.00    +0.009 C 
ATOM     21  C   UNL     1      36.342 -23.429 -11.998  0.00  0.00    +0.000 C 
ENDBRANCH  19  20
ENDBRANCH  13  19
ENDBRANCH   4  12
BRANCH   1  22
ATOM     22  S   UNL     1      33.699 -19.696 -21.856  0.00  0.00    +0.063 S 
ATOM     23  O   UNL     1      34.604 -19.734 -22.985  0.00  0.00    -0.153 OA
ATOM     24  O   UNL     1      32.344 -20.192 -21.968  0.00  0.00    -0.153 OA
BRANCH  22  25
ATOM     25  N   UNL     1      33.659 -18.104 -21.225  0.00  0.00    -0.160 NA
ATOM     26  N   UNL     1      33.381 -15.260 -20.905  0.00  0.00    +0.389 N 
ATOM     27  C   UNL     1      34.682 -17.170 -21.775  0.00  0.00    +0.073 C 
ATOM     28  C   UNL     1      32.312 -17.469 -21.176  0.00  0.00    +0.073 C 
ATOM     29  C   UNL     1      34.707 -15.892 -20.938  0.00  0.00    -0.058 C 
ATOM     30  C   UNL     1      32.384 -16.185 -20.350  0.00  0.00    -0.058 C 
ATOM     31  H   UNL     1      33.111 -15.031 -21.862  0.00  0.00    -0.080 HD
BRANCH  26  32
ATOM     32  C   UNL     1      33.421 -14.020 -20.132  0.00  0.00    -0.077 C 
ATOM     33  C   UNL     1      32.345 -13.051 -20.593  0.00  0.00    -0.025 C 
ENDBRANCH  26  32
ENDBRANCH  22  25
ENDBRANCH   1  22
BRANCH   5  34
ATOM     34  O   UNL     1      36.312 -22.510 -17.377  0.00  0.00    -0.475 OA
BRANCH  34  35
ATOM     35  C   UNL     1      37.254 -21.759 -16.614  0.00  0.00    +0.206 C 
ATOM     36  C   UNL     1      37.654 -22.563 -15.395  0.00  0.00    +0.051 C 
ENDBRANCH  34  35
ENDBRANCH   5  34
TORSDOF 8
ENDMDL
MODEL 5
REMARK VINA RESULT:      -7.8      1.909      9.506
REMARK  Name = 110634
REMARK  8 active torsions:
REMARK  status: ('A' for Active; 'I' for Inactive)
REMARK    1  A    between atoms: C_1  and  S_22
REMARK    2  A    between atoms: C_4  and  C_12
REMARK    3  A    between atoms: C_5  and  O_34
REMARK    4  A    between atoms: C_13  and  C_19
REMARK    5  A    between atoms: C_19  and  C_20
REMARK    6  A    between atoms: S_22  and  N_25
REMARK    7  A    between atoms: N_26  and  C_32
REMARK    8  A    between atoms: O_34  and  C_35
REMARK                            x       y       z     vdW  Elec       q    Type
REMARK                         _______ _______ _______ _____ _____    ______ ____
ROOT
ATOM      1  C   UNL     1      33.405 -11.793 -23.416  0.00  0.00    +0.123 C 
ATOM      2  C   UNL     1      33.816 -13.072 -23.755  0.00  0.00    +0.027 C 
ATOM      3  C   UNL     1      32.523 -11.572 -22.372  0.00  0.00    +0.023 C 
ATOM      4  C   UNL     1      33.330 -14.160 -23.031  0.00  0.00    +0.081 C 
ATOM      5  C   UNL     1      32.439 -13.955 -21.977  0.00  0.00    +0.142 C 
ATOM      6  C   UNL     1      32.036 -12.661 -21.647  0.00  0.00    +0.038 C 
ENDROOT
BRANCH   4  12
ATOM      7  O   UNL     1      34.884 -17.179 -26.272  0.00  0.00    -0.212 OA
ATOM      8  N   UNL     1      34.194 -17.740 -22.807  0.00  0.00    -0.195 N 
ATOM      9  N   UNL     1      33.788 -16.508 -22.407  0.00  0.00    -0.233 N 
ATOM     10  N   UNL     1      34.124 -15.733 -24.652  0.00  0.00    -0.318 NA
ATOM     11  N   UNL     1      34.744 -19.881 -22.846  0.00  0.00    -0.396 NA
ATOM     12  C   UNL     1      33.778 -15.542 -23.403  0.00  0.00    +0.212 C 
ATOM     13  C   UNL     1      34.315 -18.892 -22.090  0.00  0.00    +0.176 C 
ATOM     14  C   UNL     1      34.567 -17.996 -24.095  0.00  0.00    +0.259 C 
ATOM     15  C   UNL     1      34.905 -19.330 -24.097  0.00  0.00    +0.125 C 
ATOM     16  C   UNL     1      34.551 -16.973 -25.110  0.00  0.00    +0.208 C 
ATOM     17  C   UNL     1      35.381 -20.160 -25.215  0.00  0.00    +0.065 C 
ATOM     18  H   UNL     1      33.522 -16.315 -21.479  0.00  0.00    +0.173 HD
BRANCH  13  19
ATOM     19  C   UNL     1      33.991 -18.972 -20.652  0.00  0.00    +0.076 C 
BRANCH  19  20
ATOM     20  C   UNL     1      32.936 -20.053 -20.340  0.00  0.00    +0.009 C 
ATOM     21  C   UNL     1      33.538 -21.279 -19.673  0.00  0.00    +0.000 C 
ENDBRANCH  19  20
ENDBRANCH  13  19
ENDBRANCH   4  12
BRANCH   1  22
ATOM     22  S   UNL     1      34.021 -10.415 -24.333  0.00  0.00    +0.063 S 
ATOM     23  O   UNL     1      35.424 -10.263 -24.014  0.00  0.00    -0.153 OA
ATOM     24  O   UNL     1      33.579 -10.560 -25.704  0.00  0.00    -0.153 OA
BRANCH  22  25
ATOM     25  N   UNL     1      33.138  -9.146 -23.595  0.00  0.00    -0.160 NA
ATOM     26  N   UNL     1      31.887  -6.627 -23.002  0.00  0.00    +0.389 N 
ATOM     27  C   UNL     1      33.948  -7.978 -23.147  0.00  0.00    +0.073 C 
ATOM     28  C   UNL     1      31.912  -8.712 -24.323  0.00  0.00    +0.073 C 
ATOM     29  C   UNL     1      33.086  -7.065 -22.275  0.00  0.00    -0.058 C 
ATOM     30  C   UNL     1      31.090  -7.786 -23.427  0.00  0.00    -0.058 C 
ATOM     31  H   UNL     1      32.184  -6.117 -23.834  0.00  0.00    -0.080 HD
BRANCH  26  32
ATOM     32  C   UNL     1      31.084  -5.727 -22.174  0.00  0.00    -0.077 C 
ATOM     33  C   UNL     1      31.092  -4.314 -22.734  0.00  0.00    -0.025 C 
ENDBRANCH  26  32
ENDBRANCH  22  25
ENDBRANCH   1  22
BRANCH   5  34
ATOM     34  O   UNL     1      31.953 -15.006 -21.258  0.00  0.00    -0.475 OA
BRANCH  34  35
ATOM     35  C   UNL     1      32.374 -15.110 -19.900  0.00  0.00    +0.206 C 
ATOM     36  C   UNL     1      33.878 -15.279 -19.862  0.00  0.00    +0.051 C 
ENDBRANCH  34  35
ENDBRANCH   5  34
TORSDOF 8
ENDMDL
MODEL 6
REMARK VINA RESULT:      -7.6      1.909      3.258
REMARK  Name = 110634
REMARK  8 active torsions:
REMARK  status: ('A' for Active; 'I' for Inactive)
REMARK    1  A    between atoms: C_1  and  S_22
REMARK    2  A    between atoms: C_4  and  C_12
REMARK    3  A    between atoms: C_5  and  O_34
REMARK    4  A    between atoms: C_13  and  C_19
REMARK    5  A    between atoms: C_19  and  C_20
REMARK    6  A    between atoms: S_22  and  N_25
REMARK    7  A    between atoms: N_26  and  C_32
REMARK    8  A    between atoms: O_34  and  C_35
REMARK                            x       y       z     vdW  Elec       q    Type
REMARK                         _______ _______ _______ _____ _____    ______ ____
ROOT
ATOM      1  C   UNL     1      33.290 -15.042 -22.624  0.00  0.00    +0.123 C 
ATOM      2  C   UNL     1      33.420 -13.666 -22.715  0.00  0.00    +0.027 C 
ATOM      3  C   UNL     1      33.425 -15.855 -23.736  0.00  0.00    +0.023 C 
ATOM      4  C   UNL     1      33.692 -13.086 -23.953  0.00  0.00    +0.081 C 
ATOM      5  C   UNL     1      33.830 -13.891 -25.085  0.00  0.00    +0.142 C 
ATOM      6  C   UNL     1      33.698 -15.275 -24.976  0.00  0.00    +0.038 C 
ENDROOT
BRANCH   4  12
ATOM      7  O   UNL     1      35.665  -9.323 -25.947  0.00  0.00    -0.212 OA
ATOM      8  N   UNL     1      33.249  -9.480 -23.314  0.00  0.00    -0.195 N 
ATOM      9  N   UNL     1      33.072 -10.819 -23.186  0.00  0.00    -0.233 N 
ATOM     10  N   UNL     1      34.674 -11.139 -24.942  0.00  0.00    -0.318 NA
ATOM     11  N   UNL     1      33.107  -7.289 -23.052  0.00  0.00    -0.396 NA
ATOM     12  C   UNL     1      33.832 -11.596 -24.047  0.00  0.00    +0.212 C 
ATOM     13  C   UNL     1      32.667  -8.455 -22.630  0.00  0.00    +0.176 C 
ATOM     14  C   UNL     1      34.111  -8.948 -24.228  0.00  0.00    +0.259 C 
ATOM     15  C   UNL     1      34.008  -7.587 -24.050  0.00  0.00    +0.125 C 
ATOM     16  C   UNL     1      34.887  -9.778 -25.115  0.00  0.00    +0.208 C 
ATOM     17  C   UNL     1      34.708  -6.507 -24.762  0.00  0.00    +0.065 C 
ATOM     18  H   UNL     1      32.449 -11.210 -22.531  0.00  0.00    +0.173 HD
BRANCH  13  19
ATOM     19  C   UNL     1      31.676  -8.676 -21.558  0.00  0.00    +0.076 C 
BRANCH  19  20
ATOM     20  C   UNL     1      32.330  -8.866 -20.175  0.00  0.00    +0.009 C 
ATOM     21  C   UNL     1      31.902 -10.160 -19.501  0.00  0.00    +0.000 C 
ENDBRANCH  19  20
ENDBRANCH  13  19
ENDBRANCH   4  12
BRANCH   1  22
ATOM     22  S   UNL     1      32.945 -15.775 -21.054  0.00  0.00    +0.063 S 
ATOM     23  O   UNL     1      33.543 -14.940 -20.035  0.00  0.00    -0.153 OA
ATOM     24  O   UNL     1      31.535 -16.105 -21.017  0.00  0.00    -0.153 OA
BRANCH  22  25
ATOM     25  N   UNL     1      33.850 -17.222 -21.195  0.00  0.00    -0.160 NA
ATOM     26  N   UNL     1      35.365 -19.604 -20.646  0.00  0.00    +0.389 N 
ATOM     27  C   UNL     1      35.267 -17.139 -20.740  0.00  0.00    +0.073 C 
ATOM     28  C   UNL     1      33.183 -18.449 -20.674  0.00  0.00    +0.073 C 
ATOM     29  C   UNL     1      36.017 -18.398 -21.174  0.00  0.00    -0.058 C 
ATOM     30  C   UNL     1      33.973 -19.682 -21.111  0.00  0.00    -0.058 C 
ATOM     31  H   UNL     1      35.362 -19.547 -19.627  0.00  0.00    -0.080 HD
BRANCH  26  32
ATOM     32  C   UNL     1      36.106 -20.802 -21.035  0.00  0.00    -0.077 C 
ATOM     33  C   UNL     1      36.517 -21.613 -19.818  0.00  0.00    -0.025 C 
ENDBRANCH  26  32
ENDBRANCH  22  25
ENDBRANCH   1  22
BRANCH   5  34
ATOM     34  O   UNL     1      34.097 -13.344 -26.304  0.00  0.00    -0.475 OA
BRANCH  34  35
ATOM     35  C   UNL     1      33.301 -13.789 -27.401  0.00  0.00    +0.206 C 
ATOM     36  C   UNL     1      32.019 -12.983 -27.439  0.00  0.00    +0.051 C 
ENDBRANCH  34  35
ENDBRANCH   5  34
TORSDOF 8
ENDMDL
MODEL 7
REMARK VINA RESULT:      -7.6      2.739      4.369
REMARK  Name = 110634
REMARK  8 active torsions:
REMARK  status: ('A' for Active; 'I' for Inactive)
REMARK    1  A    between atoms: C_1  and  S_22
REMARK    2  A    between atoms: C_4  and  C_12
REMARK    3  A    between atoms: C_5  and  O_34
REMARK    4  A    between atoms: C_13  and  C_19
REMARK    5  A    between atoms: C_19  and  C_20
REMARK    6  A    between atoms: S_22  and  N_25
REMARK    7  A    between atoms: N_26  and  C_32
REMARK    8  A    between atoms: O_34  and  C_35
REMARK                            x       y       z     vdW  Elec       q    Type
REMARK                         _______ _______ _______ _____ _____    ______ ____
ROOT
ATOM      1  C   UNL     1      35.524 -17.671 -21.516  0.00  0.00    +0.123 C 
ATOM      2  C   UNL     1      35.137 -16.911 -22.608  0.00  0.00    +0.027 C 
ATOM      3  C   UNL     1      35.312 -17.233 -20.220  0.00  0.00    +0.023 C 
ATOM      4  C   UNL     1      34.522 -15.678 -22.397  0.00  0.00    +0.081 C 
ATOM      5  C   UNL     1      34.302 -15.220 -21.097  0.00  0.00    +0.142 C 
ATOM      6  C   UNL     1      34.697 -15.998 -20.009  0.00  0.00    +0.038 C 
ENDROOT
BRANCH   4  12
ATOM      7  O   UNL     1      32.585 -15.424 -26.665  0.00  0.00    -0.212 OA
ATOM      8  N   UNL     1      33.955 -12.808 -24.647  0.00  0.00    -0.195 N 
ATOM      9  N   UNL     1      34.347 -13.493 -23.543  0.00  0.00    -0.233 N 
ATOM     10  N   UNL     1      33.541 -15.503 -24.575  0.00  0.00    -0.318 NA
ATOM     11  N   UNL     1      33.550 -11.203 -26.112  0.00  0.00    -0.396 NA
ATOM     12  C   UNL     1      34.104 -14.858 -23.582  0.00  0.00    +0.212 C 
ATOM     13  C   UNL     1      34.049 -11.478 -24.925  0.00  0.00    +0.176 C 
ATOM     14  C   UNL     1      33.363 -13.427 -25.709  0.00  0.00    +0.259 C 
ATOM     15  C   UNL     1      33.119 -12.413 -26.608  0.00  0.00    +0.125 C 
ATOM     16  C   UNL     1      33.118 -14.847 -25.724  0.00  0.00    +0.208 C 
ATOM     17  C   UNL     1      32.496 -12.487 -27.938  0.00  0.00    +0.065 C 
ATOM     18  H   UNL     1      34.770 -13.053 -22.770  0.00  0.00    +0.173 HD
BRANCH  13  19
ATOM     19  C   UNL     1      34.644 -10.508 -23.984  0.00  0.00    +0.076 C 
BRANCH  19  20
ATOM     20  C   UNL     1      33.715  -9.310 -23.700  0.00  0.00    +0.009 C 
ATOM     21  C   UNL     1      34.469  -7.993 -23.627  0.00  0.00    +0.000 C 
ENDBRANCH  19  20
ENDBRANCH  13  19
ENDBRANCH   4  12
BRANCH   1  22
ATOM     22  S   UNL     1      36.302 -19.234 -21.784  0.00  0.00    +0.063 S 
ATOM     23  O   UNL     1      35.801 -19.771 -23.030  0.00  0.00    -0.153 OA
ATOM     24  O   UNL     1      37.723 -19.067 -21.560  0.00  0.00    -0.153 OA
BRANCH  22  25
ATOM     25  N   UNL     1      35.636 -20.126 -20.482  0.00  0.00    -0.160 NA
ATOM     26  N   UNL     1      34.592 -22.218 -18.809  0.00  0.00    +0.389 N 
ATOM     27  C   UNL     1      34.275 -20.686 -20.718  0.00  0.00    +0.073 C 
ATOM     28  C   UNL     1      36.542 -21.139 -19.869  0.00  0.00    +0.073 C 
ATOM     29  C   UNL     1      33.703 -21.209 -19.401  0.00  0.00    -0.058 C 
ATOM     30  C   UNL     1      35.926 -21.652 -18.568  0.00  0.00    -0.058 C 
ATOM     31  H   UNL     1      34.684 -22.992 -19.467  0.00  0.00    -0.080 HD
BRANCH  26  32
ATOM     32  C   UNL     1      34.022 -22.739 -17.567  0.00  0.00    -0.077 C 
ATOM     33  C   UNL     1      32.504 -22.723 -17.610  0.00  0.00    -0.025 C 
ENDBRANCH  26  32
ENDBRANCH  22  25
ENDBRANCH   1  22
BRANCH   5  34
ATOM     34  O   UNL     1      33.703 -14.017 -20.871  0.00  0.00    -0.475 OA
BRANCH  34  35
ATOM     35  C   UNL     1      32.297 -14.029 -20.632  0.00  0.00    +0.206 C 
ATOM     36  C   UNL     1      31.769 -12.614 -20.726  0.00  0.00    +0.051 C 
ENDBRANCH  34  35
ENDBRANCH   5  34
TORSDOF 8
ENDMDL
MODEL 8
REMARK VINA RESULT:      -7.4      1.740      3.026
REMARK  Name = 110634
REMARK  8 active torsions:
REMARK  status: ('A' for Active; 'I' for Inactive)
REMARK    1  A    between atoms: C_1  and  S_22
REMARK    2  A    between atoms: C_4  and  C_12
REMARK    3  A    between atoms: C_5  and  O_34
REMARK    4  A    between atoms: C_13  and  C_19
REMARK    5  A    between atoms: C_19  and  C_20
REMARK    6  A    between atoms: S_22  and  N_25
REMARK    7  A    between atoms: N_26  and  C_32
REMARK    8  A    between atoms: O_34  and  C_35
REMARK                            x       y       z     vdW  Elec       q    Type
REMARK                         _______ _______ _______ _____ _____    ______ ____
ROOT
ATOM      1  C   UNL     1      33.753 -15.464 -22.722  0.00  0.00    +0.123 C 
ATOM      2  C   UNL     1      33.820 -14.139 -23.122  0.00  0.00    +0.027 C 
ATOM      3  C   UNL     1      32.950 -15.859 -21.666  0.00  0.00    +0.023 C 
ATOM      4  C   UNL     1      33.062 -13.183 -22.446  0.00  0.00    +0.081 C 
ATOM      5  C   UNL     1      32.248 -13.564 -21.379  0.00  0.00    +0.142 C 
ATOM      6  C   UNL     1      32.191 -14.903 -20.989  0.00  0.00    +0.038 C 
ENDROOT
BRANCH   4  12
ATOM      7  O   UNL     1      31.355  -8.814 -22.308  0.00  0.00    -0.212 OA
ATOM      8  N   UNL     1      34.165 -10.085 -24.119  0.00  0.00    -0.195 N 
ATOM      9  N   UNL     1      34.155 -11.392 -23.754  0.00  0.00    -0.233 N 
ATOM     10  N   UNL     1      32.225 -10.941 -22.405  0.00  0.00    -0.318 NA
ATOM     11  N   UNL     1      34.688  -8.148 -25.047  0.00  0.00    -0.396 NA
ATOM     12  C   UNL     1      33.138 -11.751 -22.883  0.00  0.00    +0.212 C 
ATOM     13  C   UNL     1      35.015  -9.419 -24.950  0.00  0.00    +0.176 C 
ATOM     14  C   UNL     1      33.240  -9.197 -23.652  0.00  0.00    +0.259 C 
ATOM     15  C   UNL     1      33.583  -8.000 -24.240  0.00  0.00    +0.125 C 
ATOM     16  C   UNL     1      32.194  -9.594 -22.743  0.00  0.00    +0.208 C 
ATOM     17  C   UNL     1      32.937  -6.686 -24.103  0.00  0.00    +0.065 C 
ATOM     18  H   UNL     1      34.822 -12.038 -24.084  0.00  0.00    +0.173 HD
BRANCH  13  19
ATOM     19  C   UNL     1      36.143 -10.083 -25.634  0.00  0.00    +0.076 C 
BRANCH  19  20
ATOM     20  C   UNL     1      35.786 -10.538 -27.063  0.00  0.00    +0.009 C 
ATOM     21  C   UNL     1      34.867 -11.749 -27.077  0.00  0.00    +0.000 C 
ENDBRANCH  19  20
ENDBRANCH  13  19
ENDBRANCH   4  12
BRANCH   1  22
ATOM     22  S   UNL     1      34.712 -16.675 -23.578  0.00  0.00    +0.063 S 
ATOM     23  O   UNL     1      33.902 -17.200 -24.656  0.00  0.00    -0.153 OA
ATOM     24  O   UNL     1      36.019 -16.106 -23.836  0.00  0.00    -0.153 OA
BRANCH  22  25
ATOM     25  N   UNL     1      34.855 -17.864 -22.354  0.00  0.00    -0.160 NA
ATOM     26  N   UNL     1      35.380 -20.285 -20.896  0.00  0.00    +0.389 N 
ATOM     27  C   UNL     1      33.976 -19.057 -22.513  0.00  0.00    +0.073 C 
ATOM     28  C   UNL     1      36.249 -18.257 -22.003  0.00  0.00    +0.073 C 
ATOM     29  C   UNL     1      34.006 -19.887 -21.230  0.00  0.00    -0.058 C 
ATOM     30  C   UNL     1      36.234 -19.102 -20.729  0.00  0.00    -0.058 C 
ATOM     31  H   UNL     1      35.749 -20.843 -21.667  0.00  0.00    -0.080 HD
BRANCH  26  32
ATOM     32  C   UNL     1      35.397 -21.108 -19.687  0.00  0.00    -0.077 C 
ATOM     33  C   UNL     1      34.019 -21.672 -19.387  0.00  0.00    -0.025 C 
ENDBRANCH  26  32
ENDBRANCH  22  25
ENDBRANCH   1  22
BRANCH   5  34
ATOM     34  O   UNL     1      31.501 -12.645 -20.706  0.00  0.00    -0.475 OA
BRANCH  34  35
ATOM     35  C   UNL     1      31.977 -12.236 -19.425  0.00  0.00    +0.206 C 
ATOM     36  C   UNL     1      31.387 -10.883 -19.089  0.00  0.00    +0.051 C 
ENDBRANCH  34  35
ENDBRANCH   5  34
TORSDOF 8
ENDMDL
MODEL 9
REMARK VINA RESULT:      -7.3      2.767      9.824
REMARK  Name = 110634
REMARK  8 active torsions:
REMARK  status: ('A' for Active; 'I' for Inactive)
REMARK    1  A    between atoms: C_1  and  S_22
REMARK    2  A    between atoms: C_4  and  C_12
REMARK    3  A    between atoms: C_5  and  O_34
REMARK    4  A    between atoms: C_13  and  C_19
REMARK    5  A    between atoms: C_19  and  C_20
REMARK    6  A    between atoms: S_22  and  N_25
REMARK    7  A    between atoms: N_26  and  C_32
REMARK    8  A    between atoms: O_34  and  C_35
REMARK                            x       y       z     vdW  Elec       q    Type
REMARK                         _______ _______ _______ _____ _____    ______ ____
ROOT
ATOM      1  C   UNL     1      32.966  -8.995 -22.751  0.00  0.00    +0.123 C 
ATOM      2  C   UNL     1      32.946 -10.344 -23.069  0.00  0.00    +0.027 C 
ATOM      3  C   UNL     1      33.941  -8.150 -23.254  0.00  0.00    +0.023 C 
ATOM      4  C   UNL     1      33.929 -10.861 -23.912  0.00  0.00    +0.081 C 
ATOM      5  C   UNL     1      34.919 -10.023 -24.427  0.00  0.00    +0.142 C 
ATOM      6  C   UNL     1      34.925  -8.667 -24.098  0.00  0.00    +0.038 C 
ENDROOT
BRANCH   4  12
ATOM      7  O   UNL     1      33.259 -14.271 -27.067  0.00  0.00    -0.212 OA
ATOM      8  N   UNL     1      34.150 -14.532 -23.613  0.00  0.00    -0.195 N 
ATOM      9  N   UNL     1      34.199 -13.227 -23.245  0.00  0.00    -0.233 N 
ATOM     10  N   UNL     1      33.597 -12.632 -25.489  0.00  0.00    -0.318 NA
ATOM     11  N   UNL     1      34.233 -16.741 -23.602  0.00  0.00    -0.396 NA
ATOM     12  C   UNL     1      33.903 -12.321 -24.253  0.00  0.00    +0.212 C 
ATOM     13  C   UNL     1      34.380 -15.654 -22.875  0.00  0.00    +0.176 C 
ATOM     14  C   UNL     1      33.838 -14.914 -24.885  0.00  0.00    +0.259 C 
ATOM     15  C   UNL     1      33.895 -16.288 -24.857  0.00  0.00    +0.125 C 
ATOM     16  C   UNL     1      33.539 -13.952 -25.916  0.00  0.00    +0.208 C 
ATOM     17  C   UNL     1      33.649 -17.245 -25.947  0.00  0.00    +0.065 C 
ATOM     18  H   UNL     1      34.427 -12.943 -22.330  0.00  0.00    +0.173 HD
BRANCH  13  19
ATOM     19  C   UNL     1      34.745 -15.605 -21.445  0.00  0.00    +0.076 C 
BRANCH  19  20
ATOM     20  C   UNL     1      34.546 -16.959 -20.735  0.00  0.00    +0.009 C 
ATOM     21  C   UNL     1      35.640 -17.959 -21.069  0.00  0.00    +0.000 C 
ENDBRANCH  19  20
ENDBRANCH  13  19
ENDBRANCH   4  12
BRANCH   1  22
ATOM     22  S   UNL     1      31.721  -8.340 -21.683  0.00  0.00    +0.063 S 
ATOM     23  O   UNL     1      30.588  -9.239 -21.722  0.00  0.00    -0.153 OA
ATOM     24  O   UNL     1      32.352  -7.988 -20.428  0.00  0.00    -0.153 OA
BRANCH  22  25
ATOM     25  N   UNL     1      31.327  -6.904 -22.529  0.00  0.00    -0.160 NA
ATOM     26  N   UNL     1      31.435  -4.506 -24.112  0.00  0.00    +0.389 N 
ATOM     27  C   UNL     1      31.922  -5.653 -21.980  0.00  0.00    +0.073 C 
ATOM     28  C   UNL     1      31.474  -6.972 -24.011  0.00  0.00    +0.073 C 
ATOM     29  C   UNL     1      31.274  -4.443 -22.653  0.00  0.00    -0.058 C 
ATOM     30  C   UNL     1      30.834  -5.737 -24.644  0.00  0.00    -0.058 C 
ATOM     31  H   UNL     1      32.433  -4.516 -24.325  0.00  0.00    -0.080 HD
BRANCH  26  32
ATOM     32  C   UNL     1      30.844  -3.329 -24.746  0.00  0.00    -0.077 C 
ATOM     33  C   UNL     1      31.503  -3.037 -26.084  0.00  0.00    -0.025 C 
ENDBRANCH  26  32
ENDBRANCH  22  25
ENDBRANCH   1  22
BRANCH   5  34
ATOM     34  O   UNL     1      35.888 -10.510 -25.252  0.00  0.00    -0.475 OA
BRANCH  34  35
ATOM     35  C   UNL     1      35.880 -10.049 -26.602  0.00  0.00    +0.206 C 
ATOM     36  C   UNL     1      35.598 -11.218 -27.521  0.00  0.00    +0.051 C 
ENDBRANCH  34  35
ENDBRANCH   5  34
TORSDOF 8
ENDMDL
