MODEL 1
REMARK VINA RESULT:      -9.9      0.000      0.000
REMARK  Name = 25023710
REMARK  4 active torsions:
REMARK  status: ('A' for Active; 'I' for Inactive)
REMARK    1  A    between atoms: N_4  and  C_15
REMARK    2  A    between atoms: C_5  and  C_10
REMARK    3  A    between atoms: C_10  and  O_13
REMARK    4  A    between atoms: C_15  and  C_18
REMARK                            x       y       z     vdW  Elec       q    Type
REMARK                         _______ _______ _______ _____ _____    ______ ____
ROOT
ATOM      1  S   UNL     1      36.839 -23.151 -14.511  0.00  0.00    -0.049 S 
ATOM      2  O   UNL     1      36.326 -26.940 -14.849  0.00  0.00    -0.213 OA
ATOM      3  N   UNL     1      35.564 -24.998 -15.816  0.00  0.00    -0.314 NA
ATOM      4  N   UNL     1      35.093 -22.760 -16.477  0.00  0.00    -0.301 N 
ATOM      5  C   UNL     1      37.203 -24.861 -14.002  0.00  0.00    +0.172 C 
ATOM      6  C   UNL     1      38.679 -25.167 -14.235  0.00  0.00    +0.032 C 
ATOM      7  C   UNL     1      36.332 -25.713 -14.919  0.00  0.00    +0.192 C 
ATOM      8  C   UNL     1      35.714 -23.715 -15.728  0.00  0.00    +0.221 C 
ATOM      9  H   UNL     1      35.301 -21.813 -16.305  0.00  0.00    +0.150 HD
ENDROOT
BRANCH   5  10
ATOM     10  C   UNL     1      36.800 -25.063 -12.545  0.00  0.00    +0.112 C 
ATOM     11  C   UNL     1      37.741 -24.309 -11.606  0.00  0.00    +0.031 C 
ATOM     12  C   UNL     1      35.353 -24.625 -12.319  0.00  0.00    +0.031 C 
BRANCH  10  13
ATOM     13  O   UNL     1      36.877 -26.457 -12.239  0.00  0.00    -0.385 OA
ATOM     14  H   UNL     1      36.165 -26.694 -11.624  0.00  0.00    +0.210 HD
ENDBRANCH  10  13
ENDBRANCH   5  10
BRANCH   4  15
ATOM     15  C   UNL     1      34.149 -23.082 -17.508  0.00  0.00    +0.094 C 
ATOM     16  C   UNL     1      32.746 -23.146 -16.910  0.00  0.00    +0.026 C 
BRANCH  15  18
ATOM     17  F   UNL     1      34.566 -19.397 -21.760  0.00  0.00    -0.204 F 
ATOM     18  C   UNL     1      34.261 -22.094 -18.649  0.00  0.00    -0.004 C 
ATOM     19  C   UNL     1      35.516 -21.740 -19.144  0.00  0.00    -0.000 C 
ATOM     20  C   UNL     1      33.109 -21.537 -19.205  0.00  0.00    -0.000 C 
ATOM     21  C   UNL     1      35.618 -20.829 -20.195  0.00  0.00    +0.029 C 
ATOM     22  C   UNL     1      33.212 -20.626 -20.255  0.00  0.00    +0.029 C 
ATOM     23  C   UNL     1      34.467 -20.272 -20.751  0.00  0.00    +0.140 C 
ENDBRANCH  15  18
ENDBRANCH   4  15
TORSDOF 4
ENDMDL
MODEL 2
REMARK VINA RESULT:      -8.6      3.328      4.342
REMARK  Name = 25023710
REMARK  4 active torsions:
REMARK  status: ('A' for Active; 'I' for Inactive)
REMARK    1  A    between atoms: N_4  and  C_15
REMARK    2  A    between atoms: C_5  and  C_10
REMARK    3  A    between atoms: C_10  and  O_13
REMARK    4  A    between atoms: C_15  and  C_18
REMARK                            x       y       z     vdW  Elec       q    Type
REMARK                         _______ _______ _______ _____ _____    ______ ____
ROOT
ATOM      1  S   UNL     1      31.030 -23.000 -16.359  0.00  0.00    -0.049 S 
ATOM      2  O   UNL     1      33.953 -23.792 -14.001  0.00  0.00    -0.213 OA
ATOM      3  N   UNL     1      33.611 -23.232 -16.204  0.00  0.00    -0.314 NA
ATOM      4  N   UNL     1      32.758 -22.647 -18.348  0.00  0.00    -0.301 N 
ATOM      5  C   UNL     1      31.677 -23.447 -14.717  0.00  0.00    +0.172 C 
ATOM      6  C   UNL     1      31.322 -22.361 -13.708  0.00  0.00    +0.032 C 
ATOM      7  C   UNL     1      33.188 -23.512 -14.920  0.00  0.00    +0.192 C 
ATOM      8  C   UNL     1      32.648 -22.960 -17.026  0.00  0.00    +0.221 C 
ATOM      9  H   UNL     1      31.939 -22.460 -18.861  0.00  0.00    +0.150 HD
ENDROOT
BRANCH   5  10
ATOM     10  C   UNL     1      31.138 -24.812 -14.303  0.00  0.00    +0.112 C 
ATOM     11  C   UNL     1      30.483 -24.747 -12.923  0.00  0.00    +0.031 C 
ATOM     12  C   UNL     1      30.149 -25.341 -15.341  0.00  0.00    +0.031 C 
BRANCH  10  13
ATOM     13  O   UNL     1      32.228 -25.735 -14.242  0.00  0.00    -0.385 OA
ATOM     14  H   UNL     1      32.063 -26.385 -13.541  0.00  0.00    +0.210 HD
ENDBRANCH  10  13
ENDBRANCH   5  10
BRANCH   4  15
ATOM     15  C   UNL     1      34.023 -22.578 -19.022  0.00  0.00    +0.094 C 
ATOM     16  C   UNL     1      34.193 -23.808 -19.910  0.00  0.00    +0.026 C 
BRANCH  15  18
ATOM     17  F   UNL     1      34.460 -17.726 -21.868  0.00  0.00    -0.204 F 
ATOM     18  C   UNL     1      34.140 -21.276 -19.785  0.00  0.00    -0.004 C 
ATOM     19  C   UNL     1      32.992 -20.563 -20.128  0.00  0.00    -0.000 C 
ATOM     20  C   UNL     1      35.397 -20.790 -20.146  0.00  0.00    -0.000 C 
ATOM     21  C   UNL     1      33.100 -19.364 -20.832  0.00  0.00    +0.029 C 
ATOM     22  C   UNL     1      35.505 -19.591 -20.850  0.00  0.00    +0.029 C 
ATOM     23  C   UNL     1      34.356 -18.878 -21.193  0.00  0.00    +0.140 C 
ENDBRANCH  15  18
ENDBRANCH   4  15
TORSDOF 4
ENDMDL
MODEL 3
REMARK VINA RESULT:      -8.5      5.200      8.447
REMARK  Name = 25023710
REMARK  4 active torsions:
REMARK  status: ('A' for Active; 'I' for Inactive)
REMARK    1  A    between atoms: N_4  and  C_15
REMARK    2  A    between atoms: C_5  and  C_10
REMARK    3  A    between atoms: C_10  and  O_13
REMARK    4  A    between atoms: C_15  and  C_18
REMARK                            x       y       z     vdW  Elec       q    Type
REMARK                         _______ _______ _______ _____ _____    ______ ____
ROOT
ATOM      1  S   UNL     1      33.323 -19.506 -21.122  0.00  0.00    -0.049 S 
ATOM      2  O   UNL     1      37.055 -18.721 -21.555  0.00  0.00    -0.213 OA
ATOM      3  N   UNL     1      35.720 -20.197 -20.403  0.00  0.00    -0.314 NA
ATOM      4  N   UNL     1      33.952 -21.471 -19.446  0.00  0.00    -0.301 N 
ATOM      5  C   UNL     1      34.672 -18.529 -21.858  0.00  0.00    +0.172 C 
ATOM      6  C   UNL     1      34.658 -18.688 -23.374  0.00  0.00    +0.032 C 
ATOM      7  C   UNL     1      35.938 -19.144 -21.269  0.00  0.00    +0.192 C 
ATOM      8  C   UNL     1      34.470 -20.488 -20.235  0.00  0.00    +0.221 C 
ATOM      9  H   UNL     1      32.975 -21.585 -19.410  0.00  0.00    +0.150 HD
ENDROOT
BRANCH   5  10
ATOM     10  C   UNL     1      34.543 -17.070 -21.433  0.00  0.00    +0.112 C 
ATOM     11  C   UNL     1      34.955 -16.131 -22.568  0.00  0.00    +0.031 C 
ATOM     12  C   UNL     1      33.117 -16.763 -20.975  0.00  0.00    +0.031 C 
BRANCH  10  13
ATOM     13  O   UNL     1      35.409 -16.839 -20.320  0.00  0.00    -0.385 OA
ATOM     14  H   UNL     1      36.062 -17.554 -20.264  0.00  0.00    +0.210 HD
ENDBRANCH  10  13
ENDBRANCH   5  10
BRANCH   4  15
ATOM     15  C   UNL     1      34.777 -22.348 -18.666  0.00  0.00    +0.094 C 
ATOM     16  C   UNL     1      36.095 -21.650 -18.341  0.00  0.00    +0.026 C 
BRANCH  15  18
ATOM     17  F   UNL     1      32.000 -24.066 -14.065  0.00  0.00    -0.204 F 
ATOM     18  C   UNL     1      34.032 -22.809 -17.432  0.00  0.00    -0.004 C 
ATOM     19  C   UNL     1      32.642 -22.920 -17.457  0.00  0.00    -0.000 C 
ATOM     20  C   UNL     1      34.736 -23.123 -16.269  0.00  0.00    -0.000 C 
ATOM     21  C   UNL     1      31.956 -23.344 -16.319  0.00  0.00    +0.029 C 
ATOM     22  C   UNL     1      34.050 -23.547 -15.132  0.00  0.00    +0.029 C 
ATOM     23  C   UNL     1      32.659 -23.658 -15.157  0.00  0.00    +0.140 C 
ENDBRANCH  15  18
ENDBRANCH   4  15
TORSDOF 4
ENDMDL
MODEL 4
REMARK VINA RESULT:      -8.1      3.210      4.700
REMARK  Name = 25023710
REMARK  4 active torsions:
REMARK  status: ('A' for Active; 'I' for Inactive)
REMARK    1  A    between atoms: N_4  and  C_15
REMARK    2  A    between atoms: C_5  and  C_10
REMARK    3  A    between atoms: C_10  and  O_13
REMARK    4  A    between atoms: C_15  and  C_18
REMARK                            x       y       z     vdW  Elec       q    Type
REMARK                         _______ _______ _______ _____ _____    ______ ____
ROOT
ATOM      1  S   UNL     1      36.268 -25.831 -14.912  0.00  0.00    -0.049 S 
ATOM      2  O   UNL     1      37.753 -22.712 -13.239  0.00  0.00    -0.213 OA
ATOM      3  N   UNL     1      35.991 -23.269 -14.608  0.00  0.00    -0.314 NA
ATOM      4  N   UNL     1      34.358 -24.323 -15.981  0.00  0.00    -0.301 N 
ATOM      5  C   UNL     1      37.520 -25.029 -13.860  0.00  0.00    +0.172 C 
ATOM      6  C   UNL     1      37.451 -25.600 -12.448  0.00  0.00    +0.032 C 
ATOM      7  C   UNL     1      37.115 -23.558 -13.861  0.00  0.00    +0.192 C 
ATOM      8  C   UNL     1      35.465 -24.300 -15.186  0.00  0.00    +0.221 C 
ATOM      9  H   UNL     1      34.064 -25.183 -16.359  0.00  0.00    +0.150 HD
ENDROOT
BRANCH   5  10
ATOM     10  C   UNL     1      38.902 -25.201 -14.480  0.00  0.00    +0.112 C 
ATOM     11  C   UNL     1      39.994 -25.140 -13.411  0.00  0.00    +0.031 C 
ATOM     12  C   UNL     1      38.988 -26.513 -15.259  0.00  0.00    +0.031 C 
BRANCH  10  13
ATOM     13  O   UNL     1      39.122 -24.137 -15.410  0.00  0.00    -0.385 OA
ATOM     14  H   UNL     1      38.320 -23.595 -15.477  0.00  0.00    +0.210 HD
ENDBRANCH  10  13
ENDBRANCH   5  10
BRANCH   4  15
ATOM     15  C   UNL     1      33.604 -23.142 -16.287  0.00  0.00    +0.094 C 
ATOM     16  C   UNL     1      33.828 -22.761 -17.748  0.00  0.00    +0.026 C 
BRANCH  15  18
ATOM     17  F   UNL     1      28.161 -23.916 -15.018  0.00  0.00    -0.204 F 
ATOM     18  C   UNL     1      32.144 -23.350 -15.948  0.00  0.00    -0.004 C 
ATOM     19  C   UNL     1      31.153 -22.783 -16.749  0.00  0.00    -0.000 C 
ATOM     20  C   UNL     1      31.789 -24.108 -14.832  0.00  0.00    -0.000 C 
ATOM     21  C   UNL     1      29.808 -22.974 -16.435  0.00  0.00    +0.029 C 
ATOM     22  C   UNL     1      30.444 -24.299 -14.517  0.00  0.00    +0.029 C 
ATOM     23  C   UNL     1      29.453 -23.732 -15.320  0.00  0.00    +0.140 C 
ENDBRANCH  15  18
ENDBRANCH   4  15
TORSDOF 4
ENDMDL
MODEL 5
REMARK VINA RESULT:      -8.1      4.088      4.940
REMARK  Name = 25023710
REMARK  4 active torsions:
REMARK  status: ('A' for Active; 'I' for Inactive)
REMARK    1  A    between atoms: N_4  and  C_15
REMARK    2  A    between atoms: C_5  and  C_10
REMARK    3  A    between atoms: C_10  and  O_13
REMARK    4  A    between atoms: C_15  and  C_18
REMARK                            x       y       z     vdW  Elec       q    Type
REMARK                         _______ _______ _______ _____ _____    ______ ____
ROOT
ATOM      1  S   UNL     1      35.603 -25.019 -15.095  0.00  0.00    -0.049 S 
ATOM      2  O   UNL     1      36.233 -25.070 -11.310  0.00  0.00    -0.213 OA
ATOM      3  N   UNL     1      34.520 -24.606 -12.773  0.00  0.00    -0.314 NA
ATOM      4  N   UNL     1      33.099 -24.245 -14.648  0.00  0.00    -0.301 N 
ATOM      5  C   UNL     1      36.694 -25.296 -13.665  0.00  0.00    +0.172 C 
ATOM      6  C   UNL     1      37.144 -26.753 -13.632  0.00  0.00    +0.032 C 
ATOM      7  C   UNL     1      35.811 -24.984 -12.460  0.00  0.00    +0.192 C 
ATOM      8  C   UNL     1      34.275 -24.579 -14.043  0.00  0.00    +0.221 C 
ATOM      9  H   UNL     1      33.048 -24.267 -15.631  0.00  0.00    +0.150 HD
ENDROOT
BRANCH   5  10
ATOM     10  C   UNL     1      37.875 -24.333 -13.721  0.00  0.00    +0.112 C 
ATOM     11  C   UNL     1      39.171 -25.030 -13.305  0.00  0.00    +0.031 C 
ATOM     12  C   UNL     1      38.016 -23.732 -15.119  0.00  0.00    +0.031 C 
BRANCH  10  13
ATOM     13  O   UNL     1      37.630 -23.256 -12.815  0.00  0.00    -0.385 OA
ATOM     14  H   UNL     1      37.126 -23.582 -12.053  0.00  0.00    +0.210 HD
ENDBRANCH  10  13
ENDBRANCH   5  10
BRANCH   4  15
ATOM     15  C   UNL     1      31.932 -23.865 -13.906  0.00  0.00    +0.094 C 
ATOM     16  C   UNL     1      32.194 -22.544 -13.188  0.00  0.00    +0.026 C 
BRANCH  15  18
ATOM     17  F   UNL     1      27.435 -23.673 -17.309  0.00  0.00    -0.204 F 
ATOM     18  C   UNL     1      30.725 -23.814 -14.818  0.00  0.00    -0.004 C 
ATOM     19  C   UNL     1      29.706 -24.756 -14.682  0.00  0.00    -0.000 C 
ATOM     20  C   UNL     1      30.632 -22.824 -15.797  0.00  0.00    -0.000 C 
ATOM     21  C   UNL     1      28.595 -24.709 -15.523  0.00  0.00    +0.029 C 
ATOM     22  C   UNL     1      29.522 -22.776 -16.638  0.00  0.00    +0.029 C 
ATOM     23  C   UNL     1      28.502 -23.719 -16.501  0.00  0.00    +0.140 C 
ENDBRANCH  15  18
ENDBRANCH   4  15
TORSDOF 4
ENDMDL
MODEL 6
REMARK VINA RESULT:      -8.0     11.987     15.507
REMARK  Name = 25023710
REMARK  4 active torsions:
REMARK  status: ('A' for Active; 'I' for Inactive)
REMARK    1  A    between atoms: N_4  and  C_15
REMARK    2  A    between atoms: C_5  and  C_10
REMARK    3  A    between atoms: C_10  and  O_13
REMARK    4  A    between atoms: C_15  and  C_18
REMARK                            x       y       z     vdW  Elec       q    Type
REMARK                         _______ _______ _______ _____ _____    ______ ____
ROOT
ATOM      1  S   UNL     1      34.479  -9.379 -23.889  0.00  0.00    -0.049 S 
ATOM      2  O   UNL     1      31.137  -9.008 -22.039  0.00  0.00    -0.213 OA
ATOM      3  N   UNL     1      32.324 -10.627 -23.160  0.00  0.00    -0.314 NA
ATOM      4  N   UNL     1      33.900 -11.926 -24.383  0.00  0.00    -0.301 N 
ATOM      5  C   UNL     1      33.277  -8.381 -22.954  0.00  0.00    +0.172 C 
ATOM      6  C   UNL     1      33.907  -7.898 -21.652  0.00  0.00    +0.032 C 
ATOM      7  C   UNL     1      32.136  -9.352 -22.665  0.00  0.00    +0.192 C 
ATOM      8  C   UNL     1      33.443 -10.786 -23.790  0.00  0.00    +0.221 C 
ATOM      9  H   UNL     1      34.776 -11.909 -24.831  0.00  0.00    +0.150 HD
ENDROOT
BRANCH   5  10
ATOM     10  C   UNL     1      32.785  -7.224 -23.816  0.00  0.00    +0.112 C 
ATOM     11  C   UNL     1      32.306  -6.059 -22.948  0.00  0.00    +0.031 C 
ATOM     12  C   UNL     1      33.880  -6.761 -24.777  0.00  0.00    +0.031 C 
BRANCH  10  13
ATOM     13  O   UNL     1      31.686  -7.679 -24.608  0.00  0.00    -0.385 OA
ATOM     14  H   UNL     1      31.000  -6.994 -24.634  0.00  0.00    +0.210 HD
ENDBRANCH  10  13
ENDBRANCH   5  10
BRANCH   4  15
ATOM     15  C   UNL     1      33.153 -13.151 -24.376  0.00  0.00    +0.094 C 
ATOM     16  C   UNL     1      33.176 -13.767 -25.773  0.00  0.00    +0.026 C 
BRANCH  15  18
ATOM     17  F   UNL     1      35.133 -16.628 -20.399  0.00  0.00    -0.204 F 
ATOM     18  C   UNL     1      33.685 -14.084 -23.309  0.00  0.00    -0.004 C 
ATOM     19  C   UNL     1      34.521 -15.142 -23.662  0.00  0.00    -0.000 C 
ATOM     20  C   UNL     1      33.338 -13.884 -21.973  0.00  0.00    -0.000 C 
ATOM     21  C   UNL     1      35.010 -16.002 -22.679  0.00  0.00    +0.029 C 
ATOM     22  C   UNL     1      33.826 -14.743 -20.990  0.00  0.00    +0.029 C 
ATOM     23  C   UNL     1      34.663 -15.802 -21.343  0.00  0.00    +0.140 C 
ENDBRANCH  15  18
ENDBRANCH   4  15
TORSDOF 4
ENDMDL
MODEL 7
REMARK VINA RESULT:      -7.5     11.660     15.047
REMARK  Name = 25023710
REMARK  4 active torsions:
REMARK  status: ('A' for Active; 'I' for Inactive)
REMARK    1  A    between atoms: N_4  and  C_15
REMARK    2  A    between atoms: C_5  and  C_10
REMARK    3  A    between atoms: C_10  and  O_13
REMARK    4  A    between atoms: C_15  and  C_18
REMARK                            x       y       z     vdW  Elec       q    Type
REMARK                         _______ _______ _______ _____ _____    ______ ____
ROOT
ATOM      1  S   UNL     1      31.227 -10.146 -21.894  0.00  0.00    -0.049 S 
ATOM      2  O   UNL     1      33.583  -8.164 -24.186  0.00  0.00    -0.213 OA
ATOM      3  N   UNL     1      33.071 -10.354 -23.709  0.00  0.00    -0.314 NA
ATOM      4  N   UNL     1      32.204 -12.412 -22.883  0.00  0.00    -0.301 N 
ATOM      5  C   UNL     1      31.886  -8.569 -22.523  0.00  0.00    +0.172 C 
ATOM      6  C   UNL     1      30.771  -7.772 -23.189  0.00  0.00    +0.032 C 
ATOM      7  C   UNL     1      32.930  -8.990 -23.553  0.00  0.00    +0.192 C 
ATOM      8  C   UNL     1      32.289 -11.052 -22.950  0.00  0.00    +0.221 C 
ATOM      9  H   UNL     1      31.561 -12.816 -22.257  0.00  0.00    +0.150 HD
ENDROOT
BRANCH   5  10
ATOM     10  C   UNL     1      32.544  -7.794 -21.386  0.00  0.00    +0.112 C 
ATOM     11  C   UNL     1      32.105  -6.330 -21.395  0.00  0.00    +0.031 C 
ATOM     12  C   UNL     1      32.229  -8.440 -20.037  0.00  0.00    +0.031 C 
BRANCH  10  13
ATOM     13  O   UNL     1      33.962  -7.841 -21.561  0.00  0.00    -0.385 OA
ATOM     14  H   UNL     1      34.257  -8.765 -21.567  0.00  0.00    +0.210 HD
ENDBRANCH  10  13
ENDBRANCH   5  10
BRANCH   4  15
ATOM     15  C   UNL     1      33.015 -13.275 -23.692  0.00  0.00    +0.094 C 
ATOM     16  C   UNL     1      34.034 -12.439 -24.463  0.00  0.00    +0.026 C 
BRANCH  15  18
ATOM     17  F   UNL     1      35.404 -17.268 -20.501  0.00  0.00    -0.204 F 
ATOM     18  C   UNL     1      33.656 -14.346 -22.835  0.00  0.00    -0.004 C 
ATOM     19  C   UNL     1      33.461 -14.345 -21.454  0.00  0.00    -0.000 C 
ATOM     20  C   UNL     1      34.442 -15.335 -23.428  0.00  0.00    -0.000 C 
ATOM     21  C   UNL     1      34.052 -15.332 -20.666  0.00  0.00    +0.029 C 
ATOM     22  C   UNL     1      35.032 -16.322 -22.640  0.00  0.00    +0.029 C 
ATOM     23  C   UNL     1      34.837 -16.320 -21.258  0.00  0.00    +0.140 C 
ENDBRANCH  15  18
ENDBRANCH   4  15
TORSDOF 4
ENDMDL
MODEL 8
REMARK VINA RESULT:      -7.4      8.267     11.076
REMARK  Name = 25023710
REMARK  4 active torsions:
REMARK  status: ('A' for Active; 'I' for Inactive)
REMARK    1  A    between atoms: N_4  and  C_15
REMARK    2  A    between atoms: C_5  and  C_10
REMARK    3  A    between atoms: C_10  and  O_13
REMARK    4  A    between atoms: C_15  and  C_18
REMARK                            x       y       z     vdW  Elec       q    Type
REMARK                         _______ _______ _______ _____ _____    ______ ____
ROOT
ATOM      1  S   UNL     1      34.873 -16.488 -21.120  0.00  0.00    -0.049 S 
ATOM      2  O   UNL     1      35.378 -18.520 -24.337  0.00  0.00    -0.213 OA
ATOM      3  N   UNL     1      34.752 -16.397 -23.711  0.00  0.00    -0.314 NA
ATOM      4  N   UNL     1      34.176 -14.382 -22.584  0.00  0.00    -0.301 N 
ATOM      5  C   UNL     1      35.315 -18.032 -21.977  0.00  0.00    +0.172 C 
ATOM      6  C   UNL     1      36.762 -18.400 -21.667  0.00  0.00    +0.032 C 
ATOM      7  C   UNL     1      35.157 -17.692 -23.456  0.00  0.00    +0.192 C 
ATOM      8  C   UNL     1      34.572 -15.685 -22.646  0.00  0.00    +0.221 C 
ATOM      9  H   UNL     1      34.079 -13.957 -21.701  0.00  0.00    +0.150 HD
ENDROOT
BRANCH   5  10
ATOM     10  C   UNL     1      34.344 -19.140 -21.580  0.00  0.00    +0.112 C 
ATOM     11  C   UNL     1      35.042 -20.200 -20.727  0.00  0.00    +0.031 C 
ATOM     12  C   UNL     1      33.139 -18.563 -20.837  0.00  0.00    +0.031 C 
BRANCH  10  13
ATOM     13  O   UNL     1      33.855 -19.766 -22.768  0.00  0.00    -0.385 OA
ATOM     14  H   UNL     1      33.405 -20.594 -22.535  0.00  0.00    +0.210 HD
ENDBRANCH  10  13
ENDBRANCH   5  10
BRANCH   4  15
ATOM     15  C   UNL     1      33.896 -13.605 -23.757  0.00  0.00    +0.094 C 
ATOM     16  C   UNL     1      33.069 -14.438 -24.732  0.00  0.00    +0.026 C 
BRANCH  15  18
ATOM     17  F   UNL     1      31.398  -8.750 -22.331  0.00  0.00    -0.204 F 
ATOM     18  C   UNL     1      33.226 -12.302 -23.375  0.00  0.00    -0.004 C 
ATOM     19  C   UNL     1      33.657 -11.103 -23.941  0.00  0.00    -0.000 C 
ATOM     20  C   UNL     1      32.176 -12.302 -22.456  0.00  0.00    -0.000 C 
ATOM     21  C   UNL     1      33.040  -9.904 -23.588  0.00  0.00    +0.029 C 
ATOM     22  C   UNL     1      31.559 -11.102 -22.103  0.00  0.00    +0.029 C 
ATOM     23  C   UNL     1      31.991  -9.903 -22.669  0.00  0.00    +0.140 C 
ENDBRANCH  15  18
ENDBRANCH   4  15
TORSDOF 4
ENDMDL
MODEL 9
REMARK VINA RESULT:      -7.4      3.547      4.296
REMARK  Name = 25023710
REMARK  4 active torsions:
REMARK  status: ('A' for Active; 'I' for Inactive)
REMARK    1  A    between atoms: N_4  and  C_15
REMARK    2  A    between atoms: C_5  and  C_10
REMARK    3  A    between atoms: C_10  and  O_13
REMARK    4  A    between atoms: C_15  and  C_18
REMARK                            x       y       z     vdW  Elec       q    Type
REMARK                         _______ _______ _______ _____ _____    ______ ____
ROOT
ATOM      1  S   UNL     1      35.648 -23.146 -13.914  0.00  0.00    -0.049 S 
ATOM      2  O   UNL     1      36.824 -26.652 -14.940  0.00  0.00    -0.213 OA
ATOM      3  N   UNL     1      34.852 -25.511 -14.628  0.00  0.00    -0.314 NA
ATOM      4  N   UNL     1      33.124 -23.936 -14.183  0.00  0.00    -0.301 N 
ATOM      5  C   UNL     1      36.974 -24.347 -14.253  0.00  0.00    +0.172 C 
ATOM      6  C   UNL     1      37.831 -23.856 -15.415  0.00  0.00    +0.032 C 
ATOM      7  C   UNL     1      36.229 -25.620 -14.641  0.00  0.00    +0.192 C 
ATOM      8  C   UNL     1      34.423 -24.340 -14.285  0.00  0.00    +0.221 C 
ATOM      9  H   UNL     1      32.936 -23.009 -13.910  0.00  0.00    +0.150 HD
ENDROOT
BRANCH   5  10
ATOM     10  C   UNL     1      37.798 -24.577 -12.991  0.00  0.00    +0.112 C 
ATOM     11  C   UNL     1      39.232 -24.976 -13.338  0.00  0.00    +0.031 C 
ATOM     12  C   UNL     1      37.788 -23.333 -12.103  0.00  0.00    +0.031 C 
BRANCH  10  13
ATOM     13  O   UNL     1      37.202 -25.641 -12.244  0.00  0.00    -0.385 OA
ATOM     14  H   UNL     1      37.088 -26.415 -12.817  0.00  0.00    +0.210 HD
ENDBRANCH  10  13
ENDBRANCH   5  10
BRANCH   4  15
ATOM     15  C   UNL     1      32.021 -24.811 -14.458  0.00  0.00    +0.094 C 
ATOM     16  C   UNL     1      31.521 -25.425 -13.153  0.00  0.00    +0.026 C 
BRANCH  15  18
ATOM     17  F   UNL     1      27.991 -22.046 -17.278  0.00  0.00    -0.204 F 
ATOM     18  C   UNL     1      30.940 -24.069 -15.215  0.00  0.00    -0.004 C 
ATOM     19  C   UNL     1      31.285 -23.063 -16.117  0.00  0.00    -0.000 C 
ATOM     20  C   UNL     1      29.599 -24.393 -15.011  0.00  0.00    -0.000 C 
ATOM     21  C   UNL     1      30.289 -22.379 -16.813  0.00  0.00    +0.029 C 
ATOM     22  C   UNL     1      28.603 -23.710 -15.707  0.00  0.00    +0.029 C 
ATOM     23  C   UNL     1      28.948 -22.703 -16.608  0.00  0.00    +0.140 C 
ENDBRANCH  15  18
ENDBRANCH   4  15
TORSDOF 4
ENDMDL
