MODEL 1
REMARK VINA RESULT:      -6.5      0.000      0.000
REMARK  Name = 445615
REMARK  3 active torsions:
REMARK  status: ('A' for Active; 'I' for Inactive)
REMARK    1  A    between atoms: C_3  and  O_10
REMARK    2  A    between atoms: C_4  and  O_12
REMARK    3  A    between atoms: C_5  and  O_14
REMARK                            x       y       z     vdW  Elec       q    Type
REMARK                         _______ _______ _______ _____ _____    ______ ____
ROOT
ATOM      1  N   UNL     1      36.348 -24.370 -15.364  0.00  0.00    -0.269 N 
ATOM      2  N   UNL     1      38.135 -23.085 -15.125  0.00  0.00    -0.229 NA
ATOM      3  C   UNL     1      37.451 -26.648 -14.060  0.00  0.00    +0.173 C 
ATOM      4  C   UNL     1      36.302 -26.834 -15.062  0.00  0.00    +0.160 C 
ATOM      5  C   UNL     1      38.390 -25.489 -14.432  0.00  0.00    +0.194 C 
ATOM      6  C   UNL     1      35.502 -25.544 -15.273  0.00  0.00    +0.128 C 
ATOM      7  C   UNL     1      37.658 -24.303 -14.958  0.00  0.00    +0.142 C 
ATOM      8  C   UNL     1      35.975 -23.138 -15.811  0.00  0.00    +0.087 C 
ATOM      9  C   UNL     1      37.097 -22.360 -15.655  0.00  0.00    +0.116 C 
ENDROOT
BRANCH   3  10
ATOM     10  O   UNL     1      36.920 -26.435 -12.753  0.00  0.00    -0.379 OA
ATOM     11  H   UNL     1      36.067 -25.978 -12.821  0.00  0.00    +0.211 HD
ENDBRANCH   3  10
BRANCH   4  12
ATOM     12  O   UNL     1      36.835 -27.274 -16.309  0.00  0.00    -0.380 OA
ATOM     13  H   UNL     1      37.073 -28.213 -16.245  0.00  0.00    +0.211 HD
ENDBRANCH   4  12
BRANCH   5  14
ATOM     14  O   UNL     1      39.275 -25.888 -15.474  0.00  0.00    -0.375 OA
ATOM     15  H   UNL     1      39.598 -25.103 -15.943  0.00  0.00    +0.211 HD
ENDBRANCH   5  14
TORSDOF 3
ENDMDL
MODEL 2
REMARK VINA RESULT:      -6.3      1.630      2.138
REMARK  Name = 445615
REMARK  3 active torsions:
REMARK  status: ('A' for Active; 'I' for Inactive)
REMARK    1  A    between atoms: C_3  and  O_10
REMARK    2  A    between atoms: C_4  and  O_12
REMARK    3  A    between atoms: C_5  and  O_14
REMARK                            x       y       z     vdW  Elec       q    Type
REMARK                         _______ _______ _______ _____ _____    ______ ____
ROOT
ATOM      1  N   UNL     1      35.905 -24.187 -13.976  0.00  0.00    -0.269 N 
ATOM      2  N   UNL     1      36.556 -23.500 -15.977  0.00  0.00    -0.229 NA
ATOM      3  C   UNL     1      38.442 -25.201 -13.176  0.00  0.00    +0.173 C 
ATOM      4  C   UNL     1      37.167 -25.744 -12.512  0.00  0.00    +0.160 C 
ATOM      5  C   UNL     1      38.234 -24.822 -14.652  0.00  0.00    +0.194 C 
ATOM      6  C   UNL     1      35.983 -24.782 -12.656  0.00  0.00    +0.128 C 
ATOM      7  C   UNL     1      36.924 -24.158 -14.895  0.00  0.00    +0.142 C 
ATOM      8  C   UNL     1      34.838 -23.516 -14.497  0.00  0.00    +0.087 C 
ATOM      9  C   UNL     1      35.264 -23.102 -15.736  0.00  0.00    +0.116 C 
ENDROOT
BRANCH   3  10
ATOM     10  O   UNL     1      38.917 -24.068 -12.451  0.00  0.00    -0.379 OA
ATOM     11  H   UNL     1      39.694 -23.700 -12.900  0.00  0.00    +0.211 HD
ENDBRANCH   3  10
BRANCH   4  12
ATOM     12  O   UNL     1      36.835 -27.001 -13.097  0.00  0.00    -0.380 OA
ATOM     13  H   UNL     1      36.683 -27.655 -12.395  0.00  0.00    +0.211 HD
ENDBRANCH   4  12
BRANCH   5  14
ATOM     14  O   UNL     1      38.229 -25.992 -15.464  0.00  0.00    -0.375 OA
ATOM     15  H   UNL     1      37.769 -26.708 -14.998  0.00  0.00    +0.211 HD
ENDBRANCH   5  14
TORSDOF 3
ENDMDL
MODEL 3
REMARK VINA RESULT:      -6.2      2.435      3.166
REMARK  Name = 445615
REMARK  3 active torsions:
REMARK  status: ('A' for Active; 'I' for Inactive)
REMARK    1  A    between atoms: C_3  and  O_10
REMARK    2  A    between atoms: C_4  and  O_12
REMARK    3  A    between atoms: C_5  and  O_14
REMARK                            x       y       z     vdW  Elec       q    Type
REMARK                         _______ _______ _______ _____ _____    ______ ____
ROOT
ATOM      1  N   UNL     1      36.076 -24.232 -13.149  0.00  0.00    -0.269 N 
ATOM      2  N   UNL     1      36.395 -25.551 -11.400  0.00  0.00    -0.229 NA
ATOM      3  C   UNL     1      37.173 -26.025 -15.070  0.00  0.00    +0.173 C 
ATOM      4  C   UNL     1      37.135 -24.520 -15.375  0.00  0.00    +0.160 C 
ATOM      5  C   UNL     1      37.384 -26.328 -13.577  0.00  0.00    +0.194 C 
ATOM      6  C   UNL     1      36.095 -23.781 -14.527  0.00  0.00    +0.128 C 
ATOM      7  C   UNL     1      36.624 -25.404 -12.690  0.00  0.00    +0.142 C 
ATOM      8  C   UNL     1      35.471 -23.603 -12.102  0.00  0.00    +0.087 C 
ATOM      9  C   UNL     1      35.683 -24.437 -11.030  0.00  0.00    +0.116 C 
ENDROOT
BRANCH   3  10
ATOM     10  O   UNL     1      35.964 -26.637 -15.518  0.00  0.00    -0.379 OA
ATOM     11  H   UNL     1      35.222 -26.030 -15.375  0.00  0.00    +0.211 HD
ENDBRANCH   3  10
BRANCH   4  12
ATOM     12  O   UNL     1      38.426 -23.963 -15.140  0.00  0.00    -0.380 OA
ATOM     13  H   UNL     1      39.098 -24.658 -15.223  0.00  0.00    +0.211 HD
ENDBRANCH   4  12
BRANCH   5  14
ATOM     14  O   UNL     1      38.754 -26.156 -13.230  0.00  0.00    -0.375 OA
ATOM     15  H   UNL     1      39.171 -25.539 -13.852  0.00  0.00    +0.211 HD
ENDBRANCH   5  14
TORSDOF 3
ENDMDL
MODEL 4
REMARK VINA RESULT:      -6.2      2.154      2.693
REMARK  Name = 445615
REMARK  3 active torsions:
REMARK  status: ('A' for Active; 'I' for Inactive)
REMARK    1  A    between atoms: C_3  and  O_10
REMARK    2  A    between atoms: C_4  and  O_12
REMARK    3  A    between atoms: C_5  and  O_14
REMARK                            x       y       z     vdW  Elec       q    Type
REMARK                         _______ _______ _______ _____ _____    ______ ____
ROOT
ATOM      1  N   UNL     1      37.171 -24.982 -12.591  0.00  0.00    -0.269 N 
ATOM      2  N   UNL     1      37.660 -22.872 -13.046  0.00  0.00    -0.229 NA
ATOM      3  C   UNL     1      38.301 -26.063 -14.971  0.00  0.00    +0.173 C 
ATOM      4  C   UNL     1      37.210 -26.850 -14.226  0.00  0.00    +0.160 C 
ATOM      5  C   UNL     1      38.114 -24.540 -14.872  0.00  0.00    +0.194 C 
ATOM      6  C   UNL     1      37.083 -26.420 -12.761  0.00  0.00    +0.128 C 
ATOM      7  C   UNL     1      37.667 -24.103 -13.520  0.00  0.00    +0.142 C 
ATOM      8  C   UNL     1      36.830 -24.279 -11.474  0.00  0.00    +0.087 C 
ATOM      9  C   UNL     1      37.140 -22.976 -11.780  0.00  0.00    +0.116 C 
ENDROOT
BRANCH   3  10
ATOM     10  O   UNL     1      39.585 -26.424 -14.463  0.00  0.00    -0.379 OA
ATOM     11  H   UNL     1      40.092 -25.620 -14.269  0.00  0.00    +0.211 HD
ENDBRANCH   3  10
BRANCH   4  12
ATOM     12  O   UNL     1      35.963 -26.661 -14.889  0.00  0.00    -0.380 OA
ATOM     13  H   UNL     1      35.835 -25.717 -15.077  0.00  0.00    +0.211 HD
ENDBRANCH   4  12
BRANCH   5  14
ATOM     14  O   UNL     1      37.096 -24.111 -15.771  0.00  0.00    -0.375 OA
ATOM     15  H   UNL     1      36.867 -24.838 -16.372  0.00  0.00    +0.211 HD
ENDBRANCH   5  14
TORSDOF 3
ENDMDL
MODEL 5
REMARK VINA RESULT:      -6.2      2.797      3.977
REMARK  Name = 445615
REMARK  3 active torsions:
REMARK  status: ('A' for Active; 'I' for Inactive)
REMARK    1  A    between atoms: C_3  and  O_10
REMARK    2  A    between atoms: C_4  and  O_12
REMARK    3  A    between atoms: C_5  and  O_14
REMARK                            x       y       z     vdW  Elec       q    Type
REMARK                         _______ _______ _______ _____ _____    ______ ____
ROOT
ATOM      1  N   UNL     1      37.266 -25.620 -13.554  0.00  0.00    -0.269 N 
ATOM      2  N   UNL     1      35.808 -25.732 -15.216  0.00  0.00    -0.229 NA
ATOM      3  C   UNL     1      35.707 -23.889 -11.916  0.00  0.00    +0.173 C 
ATOM      4  C   UNL     1      37.231 -23.942 -11.725  0.00  0.00    +0.160 C 
ATOM      5  C   UNL     1      35.279 -24.100 -13.377  0.00  0.00    +0.194 C 
ATOM      6  C   UNL     1      37.841 -25.232 -12.280  0.00  0.00    +0.128 C 
ATOM      7  C   UNL     1      36.083 -25.148 -14.066  0.00  0.00    +0.142 C 
ATOM      8  C   UNL     1      37.768 -26.546 -14.419  0.00  0.00    +0.087 C 
ATOM      9  C   UNL     1      36.850 -26.597 -15.440  0.00  0.00    +0.116 C 
ENDROOT
BRANCH   3  10
ATOM     10  O   UNL     1      35.085 -24.868 -11.086  0.00  0.00    -0.379 OA
ATOM     11  H   UNL     1      35.140 -25.737 -11.514  0.00  0.00    +0.211 HD
ENDBRANCH   3  10
BRANCH   4  12
ATOM     12  O   UNL     1      37.822 -22.817 -12.373  0.00  0.00    -0.380 OA
ATOM     13  H   UNL     1      37.760 -22.040 -11.794  0.00  0.00    +0.211 HD
ENDBRANCH   4  12
BRANCH   5  14
ATOM     14  O   UNL     1      35.480 -22.906 -14.127  0.00  0.00    -0.375 OA
ATOM     15  H   UNL     1      35.285 -23.074 -15.062  0.00  0.00    +0.211 HD
ENDBRANCH   5  14
TORSDOF 3
ENDMDL
MODEL 6
REMARK VINA RESULT:      -6.1      2.536      3.478
REMARK  Name = 445615
REMARK  3 active torsions:
REMARK  status: ('A' for Active; 'I' for Inactive)
REMARK    1  A    between atoms: C_3  and  O_10
REMARK    2  A    between atoms: C_4  and  O_12
REMARK    3  A    between atoms: C_5  and  O_14
REMARK                            x       y       z     vdW  Elec       q    Type
REMARK                         _______ _______ _______ _____ _____    ______ ____
ROOT
ATOM      1  N   UNL     1      38.067 -24.400 -14.193  0.00  0.00    -0.269 N 
ATOM      2  N   UNL     1      39.437 -25.985 -13.476  0.00  0.00    -0.229 NA
ATOM      3  C   UNL     1      36.683 -24.073 -11.726  0.00  0.00    +0.173 C 
ATOM      4  C   UNL     1      35.998 -23.662 -13.039  0.00  0.00    +0.160 C 
ATOM      5  C   UNL     1      37.614 -25.286 -11.891  0.00  0.00    +0.194 C 
ATOM      6  C   UNL     1      37.004 -23.414 -14.166  0.00  0.00    +0.128 C 
ATOM      7  C   UNL     1      38.392 -25.244 -13.160  0.00  0.00    +0.142 C 
ATOM      8  C   UNL     1      38.945 -24.614 -15.214  0.00  0.00    +0.087 C 
ATOM      9  C   UNL     1      39.782 -25.599 -14.747  0.00  0.00    +0.116 C 
ENDROOT
BRANCH   3  10
ATOM     10  O   UNL     1      37.420 -22.970 -11.202  0.00  0.00    -0.379 OA
ATOM     11  H   UNL     1      37.073 -22.736 -10.327  0.00  0.00    +0.211 HD
ENDBRANCH   3  10
BRANCH   4  12
ATOM     12  O   UNL     1      35.085 -24.685 -13.429  0.00  0.00    -0.380 OA
ATOM     13  H   UNL     1      35.562 -25.524 -13.529  0.00  0.00    +0.211 HD
ENDBRANCH   4  12
BRANCH   5  14
ATOM     14  O   UNL     1      36.851 -26.487 -11.947  0.00  0.00    -0.375 OA
ATOM     15  H   UNL     1      36.460 -26.663 -11.077  0.00  0.00    +0.211 HD
ENDBRANCH   5  14
TORSDOF 3
ENDMDL
MODEL 7
REMARK VINA RESULT:      -5.9      1.954      3.127
REMARK  Name = 445615
REMARK  3 active torsions:
REMARK  status: ('A' for Active; 'I' for Inactive)
REMARK    1  A    between atoms: C_3  and  O_10
REMARK    2  A    between atoms: C_4  and  O_12
REMARK    3  A    between atoms: C_5  and  O_14
REMARK                            x       y       z     vdW  Elec       q    Type
REMARK                         _______ _______ _______ _____ _____    ______ ____
ROOT
ATOM      1  N   UNL     1      38.663 -24.773 -14.472  0.00  0.00    -0.269 N 
ATOM      2  N   UNL     1      39.422 -26.841 -14.687  0.00  0.00    -0.229 NA
ATOM      3  C   UNL     1      35.917 -25.492 -14.248  0.00  0.00    +0.173 C 
ATOM      4  C   UNL     1      36.293 -24.080 -14.725  0.00  0.00    +0.160 C 
ATOM      5  C   UNL     1      36.923 -26.564 -14.698  0.00  0.00    +0.194 C 
ATOM      6  C   UNL     1      37.715 -23.687 -14.312  0.00  0.00    +0.128 C 
ATOM      7  C   UNL     1      38.335 -26.098 -14.616  0.00  0.00    +0.142 C 
ATOM      8  C   UNL     1      40.022 -24.667 -14.452  0.00  0.00    +0.087 C 
ATOM      9  C   UNL     1      40.470 -25.960 -14.588  0.00  0.00    +0.116 C 
ENDROOT
BRANCH   3  10
ATOM     10  O   UNL     1      35.806 -25.505 -12.825  0.00  0.00    -0.379 OA
ATOM     11  H   UNL     1      36.689 -25.592 -12.433  0.00  0.00    +0.211 HD
ENDBRANCH   3  10
BRANCH   4  12
ATOM     12  O   UNL     1      36.174 -24.020 -16.144  0.00  0.00    -0.380 OA
ATOM     13  H   UNL     1      36.873 -24.557 -16.551  0.00  0.00    +0.211 HD
ENDBRANCH   4  12
BRANCH   5  14
ATOM     14  O   UNL     1      36.707 -26.897 -16.066  0.00  0.00    -0.375 OA
ATOM     15  H   UNL     1      37.161 -26.253 -16.631  0.00  0.00    +0.211 HD
ENDBRANCH   5  14
TORSDOF 3
ENDMDL
MODEL 8
REMARK VINA RESULT:      -5.9      2.609      3.621
REMARK  Name = 445615
REMARK  3 active torsions:
REMARK  status: ('A' for Active; 'I' for Inactive)
REMARK    1  A    between atoms: C_3  and  O_10
REMARK    2  A    between atoms: C_4  and  O_12
REMARK    3  A    between atoms: C_5  and  O_14
REMARK                            x       y       z     vdW  Elec       q    Type
REMARK                         _______ _______ _______ _____ _____    ______ ____
ROOT
ATOM      1  N   UNL     1      35.713 -24.603 -13.647  0.00  0.00    -0.269 N 
ATOM      2  N   UNL     1      37.215 -25.855 -14.684  0.00  0.00    -0.229 NA
ATOM      3  C   UNL     1      37.389 -23.888 -11.459  0.00  0.00    +0.173 C 
ATOM      4  C   UNL     1      35.863 -23.837 -11.291  0.00  0.00    +0.160 C 
ATOM      5  C   UNL     1      37.850 -25.012 -12.402  0.00  0.00    +0.194 C 
ATOM      6  C   UNL     1      35.133 -23.741 -12.634  0.00  0.00    +0.128 C 
ATOM      7  C   UNL     1      36.961 -25.169 -13.587  0.00  0.00    +0.142 C 
ATOM      8  C   UNL     1      35.144 -24.945 -14.838  0.00  0.00    +0.087 C 
ATOM      9  C   UNL     1      36.091 -25.721 -15.461  0.00  0.00    +0.116 C 
ENDROOT
BRANCH   3  10
ATOM     10  O   UNL     1      37.862 -22.631 -11.943  0.00  0.00    -0.379 OA
ATOM     11  H   UNL     1      38.616 -22.342 -11.406  0.00  0.00    +0.211 HD
ENDBRANCH   3  10
BRANCH   4  12
ATOM     12  O   UNL     1      35.430 -25.003 -10.594  0.00  0.00    -0.380 OA
ATOM     13  H   UNL     1      35.525 -25.779 -11.171  0.00  0.00    +0.211 HD
ENDBRANCH   4  12
BRANCH   5  14
ATOM     14  O   UNL     1      37.817 -26.265 -11.726  0.00  0.00    -0.375 OA
ATOM     15  H   UNL     1      37.913 -26.121 -10.772  0.00  0.00    +0.211 HD
ENDBRANCH   5  14
TORSDOF 3
ENDMDL
MODEL 9
REMARK VINA RESULT:      -5.9      1.163      2.723
REMARK  Name = 445615
REMARK  3 active torsions:
REMARK  status: ('A' for Active; 'I' for Inactive)
REMARK    1  A    between atoms: C_3  and  O_10
REMARK    2  A    between atoms: C_4  and  O_12
REMARK    3  A    between atoms: C_5  and  O_14
REMARK                            x       y       z     vdW  Elec       q    Type
REMARK                         _______ _______ _______ _____ _____    ______ ____
ROOT
ATOM      1  N   UNL     1      37.545 -23.817 -15.429  0.00  0.00    -0.269 N 
ATOM      2  N   UNL     1      35.521 -23.194 -16.075  0.00  0.00    -0.229 NA
ATOM      3  C   UNL     1      36.835 -26.501 -14.797  0.00  0.00    +0.173 C 
ATOM      4  C   UNL     1      38.070 -25.869 -14.135  0.00  0.00    +0.160 C 
ATOM      5  C   UNL     1      35.710 -25.486 -15.059  0.00  0.00    +0.194 C 
ATOM      6  C   UNL     1      38.604 -24.671 -14.926  0.00  0.00    +0.128 C 
ATOM      7  C   UNL     1      36.222 -24.171 -15.534  0.00  0.00    +0.142 C 
ATOM      8  C   UNL     1      37.691 -22.555 -15.925  0.00  0.00    +0.087 C 
ATOM      9  C   UNL     1      36.426 -22.191 -16.317  0.00  0.00    +0.116 C 
ENDROOT
BRANCH   3  10
ATOM     10  O   UNL     1      37.214 -27.126 -16.023  0.00  0.00    -0.379 OA
ATOM     11  H   UNL     1      37.946 -26.632 -16.424  0.00  0.00    +0.211 HD
ENDBRANCH   3  10
BRANCH   4  12
ATOM     12  O   UNL     1      37.731 -25.455 -12.813  0.00  0.00    -0.380 OA
ATOM     13  H   UNL     1      36.866 -25.825 -12.570  0.00  0.00    +0.211 HD
ENDBRANCH   4  12
BRANCH   5  14
ATOM     14  O   UNL     1      35.005 -25.212 -13.853  0.00  0.00    -0.375 OA
ATOM     15  H   UNL     1      35.363 -24.409 -13.444  0.00  0.00    +0.211 HD
ENDBRANCH   5  14
TORSDOF 3
ENDMDL
