MODEL 1
REMARK VINA RESULT:      -6.6      0.000      0.000
REMARK  Name = 70914
REMARK  7 active torsions:
REMARK  status: ('A' for Active; 'I' for Inactive)
REMARK    1  A    between atoms: CA_1  and  N_3
REMARK    2  A    between atoms: CA_1  and  C_8
REMARK    3  A    between atoms: CA_1  and  CB_11
REMARK    4  A    between atoms: C_8  and  O_9
REMARK    5  A    between atoms: CB_11  and  CG_12
REMARK    6  A    between atoms: CG_12  and  CD_14
REMARK    7  A    between atoms: CD_14  and  OE1_15
REMARK                            x       y       z     vdW  Elec       q    Type
REMARK                         _______ _______ _______ _____ _____    ______ ____
ROOT
ATOM      1  CA  GLU A   1      37.961 -24.818 -13.519  0.00  0.00    +0.172 C 
ENDROOT
BRANCH   1   3
ATOM      2  O   UNK A   0      38.359 -23.095 -15.821  0.00  0.00    -0.275 OA
ATOM      3  N   GLU A   1      36.955 -24.100 -14.260  0.00  0.00    -0.297 N 
ATOM      4  C   UNK A   0      37.242 -23.297 -15.353  0.00  0.00    +0.223 C 
ATOM      5  C   UNK A   0      36.005 -22.687 -15.956  0.00  0.00    +0.095 C 
ATOM      6  H   GLU A   1      36.016 -24.186 -13.976  0.00  0.00    +0.150 HD
ENDBRANCH   1   3
BRANCH   1   8
ATOM      7  OXT GLU A   1      38.454 -26.926 -14.632  0.00  0.00    -0.248 OA
ATOM      8  C   GLU A   1      37.791 -26.292 -13.822  0.00  0.00    +0.332 C 
BRANCH   8   9
ATOM      9  O   GLU A   1      36.826 -26.860 -13.052  0.00  0.00    -0.479 OA
ATOM     10  H   GLU A   1      35.934 -26.852 -13.336  0.00  0.00    +0.295 HD
ENDBRANCH   8   9
ENDBRANCH   1   8
BRANCH   1  11
ATOM     11  CB  GLU A   1      37.942 -24.488 -12.021  0.00  0.00    +0.043 C 
BRANCH  11  12
ATOM     12  CG  GLU A   1      36.782 -23.604 -11.546  0.00  0.00    +0.112 C 
BRANCH  12  14
ATOM     13  OE2 GLU A   1      35.402 -24.522  -9.762  0.00  0.00    -0.250 OA
ATOM     14  CD  GLU A   1      35.624 -24.381 -10.956  0.00  0.00    +0.314 C 
BRANCH  14  15
ATOM     15  OE1 GLU A   1      34.861 -24.953 -11.922  0.00  0.00    -0.480 OA
ATOM     16  HE1 GLU A   1      34.773 -25.885 -11.960  0.00  0.00    +0.295 HD
ENDBRANCH  14  15
ENDBRANCH  12  14
ENDBRANCH  11  12
ENDBRANCH   1  11
TORSDOF 7
ENDMDL
MODEL 2
REMARK VINA RESULT:      -6.4      2.705      3.560
REMARK  Name = 70914
REMARK  7 active torsions:
REMARK  status: ('A' for Active; 'I' for Inactive)
REMARK    1  A    between atoms: CA_1  and  N_3
REMARK    2  A    between atoms: CA_1  and  C_8
REMARK    3  A    between atoms: CA_1  and  CB_11
REMARK    4  A    between atoms: C_8  and  O_9
REMARK    5  A    between atoms: CB_11  and  CG_12
REMARK    6  A    between atoms: CG_12  and  CD_14
REMARK    7  A    between atoms: CD_14  and  OE1_15
REMARK                            x       y       z     vdW  Elec       q    Type
REMARK                         _______ _______ _______ _____ _____    ______ ____
ROOT
ATOM      1  CA  GLU A   1      39.052 -25.055 -14.231  0.00  0.00    +0.172 C 
ENDROOT
BRANCH   1   3
ATOM      2  O   UNK A   0      37.391 -22.682 -14.051  0.00  0.00    -0.275 OA
ATOM      3  N   GLU A   1      38.508 -24.283 -15.319  0.00  0.00    -0.297 N 
ATOM      4  C   UNK A   0      37.721 -23.157 -15.135  0.00  0.00    +0.223 C 
ATOM      5  C   UNK A   0      37.309 -22.527 -16.438  0.00  0.00    +0.095 C 
ATOM      6  H   GLU A   1      38.707 -24.569 -16.239  0.00  0.00    +0.150 HD
ENDBRANCH   1   3
BRANCH   1   8
ATOM      7  OXT GLU A   1      40.967 -26.553 -14.107  0.00  0.00    -0.248 OA
ATOM      8  C   GLU A   1      40.197 -25.882 -14.780  0.00  0.00    +0.332 C 
BRANCH   8   9
ATOM      9  O   GLU A   1      40.255 -25.828 -16.137  0.00  0.00    -0.479 OA
ATOM     10  H   GLU A   1      41.073 -25.669 -16.565  0.00  0.00    +0.295 HD
ENDBRANCH   8   9
ENDBRANCH   1   8
BRANCH   1  11
ATOM     11  CB  GLU A   1      37.987 -25.883 -13.502  0.00  0.00    +0.043 C 
BRANCH  11  12
ATOM     12  CG  GLU A   1      37.429 -27.085 -14.274  0.00  0.00    +0.112 C 
BRANCH  12  14
ATOM     13  OE2 GLU A   1      35.733 -25.820 -15.482  0.00  0.00    -0.250 OA
ATOM     14  CD  GLU A   1      36.580 -26.703 -15.468  0.00  0.00    +0.314 C 
BRANCH  14  15
ATOM     15  OE1 GLU A   1      36.837 -27.496 -16.539  0.00  0.00    -0.480 OA
ATOM     16  HE1 GLU A   1      37.603 -27.349 -17.058  0.00  0.00    +0.295 HD
ENDBRANCH  14  15
ENDBRANCH  12  14
ENDBRANCH  11  12
ENDBRANCH   1  11
TORSDOF 7
ENDMDL
MODEL 3
REMARK VINA RESULT:      -6.4      2.094      4.192
REMARK  Name = 70914
REMARK  7 active torsions:
REMARK  status: ('A' for Active; 'I' for Inactive)
REMARK    1  A    between atoms: CA_1  and  N_3
REMARK    2  A    between atoms: CA_1  and  C_8
REMARK    3  A    between atoms: CA_1  and  CB_11
REMARK    4  A    between atoms: C_8  and  O_9
REMARK    5  A    between atoms: CB_11  and  CG_12
REMARK    6  A    between atoms: CG_12  and  CD_14
REMARK    7  A    between atoms: CD_14  and  OE1_15
REMARK                            x       y       z     vdW  Elec       q    Type
REMARK                         _______ _______ _______ _____ _____    ______ ____
ROOT
ATOM      1  CA  GLU A   1      37.419 -24.399 -13.142  0.00  0.00    +0.172 C 
ENDROOT
BRANCH   1   3
ATOM      2  O   UNK A   0      36.085 -24.517 -15.717  0.00  0.00    -0.275 OA
ATOM      3  N   GLU A   1      37.436 -23.402 -14.182  0.00  0.00    -0.297 N 
ATOM      4  C   UNK A   0      36.763 -23.548 -15.386  0.00  0.00    +0.223 C 
ATOM      5  C   UNK A   0      36.926 -22.349 -16.282  0.00  0.00    +0.095 C 
ATOM      6  H   GLU A   1      37.949 -22.577 -14.031  0.00  0.00    +0.150 HD
ENDBRANCH   1   3
BRANCH   1   8
ATOM      7  OXT GLU A   1      38.283 -22.686 -11.642  0.00  0.00    -0.248 OA
ATOM      8  C   GLU A   1      37.596 -23.684 -11.817  0.00  0.00    +0.332 C 
BRANCH   8   9
ATOM      9  O   GLU A   1      36.862 -24.258 -10.829  0.00  0.00    -0.479 OA
ATOM     10  H   GLU A   1      36.999 -24.008  -9.937  0.00  0.00    +0.295 HD
ENDBRANCH   8   9
ENDBRANCH   1   8
BRANCH   1  11
ATOM     11  CB  GLU A   1      38.438 -25.520 -13.379  0.00  0.00    +0.043 C 
BRANCH  11  12
ATOM     12  CG  GLU A   1      39.839 -25.069 -13.812  0.00  0.00    +0.112 C 
BRANCH  12  14
ATOM     13  OE2 GLU A   1      41.336 -26.958 -14.164  0.00  0.00    -0.250 OA
ATOM     14  CD  GLU A   1      40.590 -26.104 -14.622  0.00  0.00    +0.314 C 
BRANCH  14  15
ATOM     15  OE1 GLU A   1      40.373 -25.952 -15.954  0.00  0.00    -0.480 OA
ATOM     16  HE1 GLU A   1      40.937 -26.373 -16.572  0.00  0.00    +0.295 HD
ENDBRANCH  14  15
ENDBRANCH  12  14
ENDBRANCH  11  12
ENDBRANCH   1  11
TORSDOF 7
ENDMDL
MODEL 4
REMARK VINA RESULT:      -6.1      1.871      2.845
REMARK  Name = 70914
REMARK  7 active torsions:
REMARK  status: ('A' for Active; 'I' for Inactive)
REMARK    1  A    between atoms: CA_1  and  N_3
REMARK    2  A    between atoms: CA_1  and  C_8
REMARK    3  A    between atoms: CA_1  and  CB_11
REMARK    4  A    between atoms: C_8  and  O_9
REMARK    5  A    between atoms: CB_11  and  CG_12
REMARK    6  A    between atoms: CG_12  and  CD_14
REMARK    7  A    between atoms: CD_14  and  OE1_15
REMARK                            x       y       z     vdW  Elec       q    Type
REMARK                         _______ _______ _______ _____ _____    ______ ____
ROOT
ATOM      1  CA  GLU A   1      36.713 -24.882 -13.983  0.00  0.00    +0.172 C 
ENDROOT
BRANCH   1   3
ATOM      2  O   UNK A   0      38.597 -27.030 -14.493  0.00  0.00    -0.275 OA
ATOM      3  N   GLU A   1      38.095 -24.760 -14.370  0.00  0.00    -0.297 N 
ATOM      4  C   UNK A   0      38.923 -25.850 -14.593  0.00  0.00    +0.223 C 
ATOM      5  C   UNK A   0      40.309 -25.440 -15.011  0.00  0.00    +0.095 C 
ATOM      6  H   GLU A   1      38.471 -23.857 -14.483  0.00  0.00    +0.150 HD
ENDBRANCH   1   3
BRANCH   1   8
ATOM      7  OXT GLU A   1      35.434 -24.323 -15.978  0.00  0.00    -0.248 OA
ATOM      8  C   GLU A   1      35.909 -25.171 -15.235  0.00  0.00    +0.332 C 
BRANCH   8   9
ATOM      9  O   GLU A   1      35.801 -26.505 -15.471  0.00  0.00    -0.479 OA
ATOM     10  H   GLU A   1      35.192 -26.820 -16.109  0.00  0.00    +0.295 HD
ENDBRANCH   8   9
ENDBRANCH   1   8
BRANCH   1  11
ATOM     11  CB  GLU A   1      36.209 -23.668 -13.192  0.00  0.00    +0.043 C 
BRANCH  11  12
ATOM     12  CG  GLU A   1      35.213 -23.971 -12.066  0.00  0.00    +0.112 C 
BRANCH  12  14
ATOM     13  OE2 GLU A   1      35.288 -24.599  -9.714  0.00  0.00    -0.250 OA
ATOM     14  CD  GLU A   1      35.865 -24.219 -10.723  0.00  0.00    +0.314 C 
BRANCH  14  15
ATOM     15  OE1 GLU A   1      37.191 -23.927 -10.749  0.00  0.00    -0.480 OA
ATOM     16  HE1 GLU A   1      37.665 -23.826  -9.947  0.00  0.00    +0.295 HD
ENDBRANCH  14  15
ENDBRANCH  12  14
ENDBRANCH  11  12
ENDBRANCH   1  11
TORSDOF 7
ENDMDL
MODEL 5
REMARK VINA RESULT:      -6.0      8.330     10.180
REMARK  Name = 70914
REMARK  7 active torsions:
REMARK  status: ('A' for Active; 'I' for Inactive)
REMARK    1  A    between atoms: CA_1  and  N_3
REMARK    2  A    between atoms: CA_1  and  C_8
REMARK    3  A    between atoms: CA_1  and  CB_11
REMARK    4  A    between atoms: C_8  and  O_9
REMARK    5  A    between atoms: CB_11  and  CG_12
REMARK    6  A    between atoms: CG_12  and  CD_14
REMARK    7  A    between atoms: CD_14  and  OE1_15
REMARK                            x       y       z     vdW  Elec       q    Type
REMARK                         _______ _______ _______ _____ _____    ______ ____
ROOT
ATOM      1  CA  GLU A   1      34.752 -18.429 -21.091  0.00  0.00    +0.172 C 
ENDROOT
BRANCH   1   3
ATOM      2  O   UNK A   0      34.917 -15.668 -20.210  0.00  0.00    -0.275 OA
ATOM      3  N   GLU A   1      34.529 -17.244 -21.879  0.00  0.00    -0.297 N 
ATOM      4  C   UNK A   0      34.632 -15.959 -21.369  0.00  0.00    +0.223 C 
ATOM      5  C   UNK A   0      34.374 -14.906 -22.412  0.00  0.00    +0.095 C 
ATOM      6  H   GLU A   1      34.293 -17.352 -22.828  0.00  0.00    +0.150 HD
ENDBRANCH   1   3
BRANCH   1   8
ATOM      7  OXT GLU A   1      36.954 -18.466 -22.130  0.00  0.00    -0.248 OA
ATOM      8  C   GLU A   1      36.221 -18.786 -21.203  0.00  0.00    +0.332 C 
BRANCH   8   9
ATOM      9  O   GLU A   1      36.658 -19.483 -20.122  0.00  0.00    -0.479 OA
ATOM     10  H   GLU A   1      37.426 -20.015 -20.186  0.00  0.00    +0.295 HD
ENDBRANCH   8   9
ENDBRANCH   1   8
BRANCH   1  11
ATOM     11  CB  GLU A   1      33.807 -19.577 -21.465  0.00  0.00    +0.043 C 
BRANCH  11  12
ATOM     12  CG  GLU A   1      32.951 -20.138 -20.323  0.00  0.00    +0.112 C 
BRANCH  12  14
ATOM     13  OE2 GLU A   1      34.767 -21.594 -19.607  0.00  0.00    -0.250 OA
ATOM     14  CD  GLU A   1      33.575 -21.322 -19.617  0.00  0.00    +0.314 C 
BRANCH  14  15
ATOM     15  OE1 GLU A   1      32.636 -22.094 -19.011  0.00  0.00    -0.480 OA
ATOM     16  HE1 GLU A   1      32.831 -22.518 -18.198  0.00  0.00    +0.295 HD
ENDBRANCH  14  15
ENDBRANCH  12  14
ENDBRANCH  11  12
ENDBRANCH   1  11
TORSDOF 7
ENDMDL
MODEL 6
REMARK VINA RESULT:      -5.9      9.176     12.338
REMARK  Name = 70914
REMARK  7 active torsions:
REMARK  status: ('A' for Active; 'I' for Inactive)
REMARK    1  A    between atoms: CA_1  and  N_3
REMARK    2  A    between atoms: CA_1  and  C_8
REMARK    3  A    between atoms: CA_1  and  CB_11
REMARK    4  A    between atoms: C_8  and  O_9
REMARK    5  A    between atoms: CB_11  and  CG_12
REMARK    6  A    between atoms: CG_12  and  CD_14
REMARK    7  A    between atoms: CD_14  and  OE1_15
REMARK                            x       y       z     vdW  Elec       q    Type
REMARK                         _______ _______ _______ _____ _____    ______ ____
ROOT
ATOM      1  CA  GLU A   1      35.348 -17.928 -21.527  0.00  0.00    +0.172 C 
ENDROOT
BRANCH   1   3
ATOM      2  O   UNK A   0      35.283 -20.538 -20.259  0.00  0.00    -0.275 OA
ATOM      3  N   GLU A   1      34.184 -18.699 -21.171  0.00  0.00    -0.297 N 
ATOM      4  C   UNK A   0      34.252 -19.944 -20.565  0.00  0.00    +0.223 C 
ATOM      5  C   UNK A   0      32.890 -20.518 -20.280  0.00  0.00    +0.095 C 
ATOM      6  H   GLU A   1      33.297 -18.323 -21.368  0.00  0.00    +0.150 HD
ENDBRANCH   1   3
BRANCH   1   8
ATOM      7  OXT GLU A   1      34.757 -15.673 -22.229  0.00  0.00    -0.248 OA
ATOM      8  C   GLU A   1      35.007 -16.464 -21.330  0.00  0.00    +0.332 C 
BRANCH   8   9
ATOM      9  O   GLU A   1      34.970 -16.124 -20.015  0.00  0.00    -0.479 OA
ATOM     10  H   GLU A   1      35.062 -16.785 -19.357  0.00  0.00    +0.295 HD
ENDBRANCH   8   9
ENDBRANCH   1   8
BRANCH   1  11
ATOM     11  CB  GLU A   1      35.872 -18.257 -22.930  0.00  0.00    +0.043 C 
BRANCH  11  12
ATOM     12  CG  GLU A   1      34.815 -18.692 -23.952  0.00  0.00    +0.112 C 
BRANCH  12  14
ATOM     13  OE2 GLU A   1      33.598 -17.705 -25.818  0.00  0.00    -0.250 OA
ATOM     14  CD  GLU A   1      34.488 -17.631 -24.981  0.00  0.00    +0.314 C 
BRANCH  14  15
ATOM     15  OE1 GLU A   1      35.338 -16.576 -24.900  0.00  0.00    -0.480 OA
ATOM     16  HE1 GLU A   1      35.000 -15.706 -24.820  0.00  0.00    +0.295 HD
ENDBRANCH  14  15
ENDBRANCH  12  14
ENDBRANCH  11  12
ENDBRANCH   1  11
TORSDOF 7
ENDMDL
MODEL 7
REMARK VINA RESULT:      -5.9      2.593      2.944
REMARK  Name = 70914
REMARK  7 active torsions:
REMARK  status: ('A' for Active; 'I' for Inactive)
REMARK    1  A    between atoms: CA_1  and  N_3
REMARK    2  A    between atoms: CA_1  and  C_8
REMARK    3  A    between atoms: CA_1  and  CB_11
REMARK    4  A    between atoms: C_8  and  O_9
REMARK    5  A    between atoms: CB_11  and  CG_12
REMARK    6  A    between atoms: CG_12  and  CD_14
REMARK    7  A    between atoms: CD_14  and  OE1_15
REMARK                            x       y       z     vdW  Elec       q    Type
REMARK                         _______ _______ _______ _____ _____    ______ ____
ROOT
ATOM      1  CA  GLU A   1      36.192 -25.108 -15.073  0.00  0.00    +0.172 C 
ENDROOT
BRANCH   1   3
ATOM      2  O   UNK A   0      33.830 -23.561 -15.746  0.00  0.00    -0.275 OA
ATOM      3  N   GLU A   1      34.963 -25.018 -14.327  0.00  0.00    -0.297 N 
ATOM      4  C   UNK A   0      33.882 -24.249 -14.730  0.00  0.00    +0.223 C 
ATOM      5  C   UNK A   0      32.718 -24.355 -13.782  0.00  0.00    +0.095 C 
ATOM      6  H   GLU A   1      34.886 -25.529 -13.490  0.00  0.00    +0.150 HD
ENDBRANCH   1   3
BRANCH   1   8
ATOM      7  OXT GLU A   1      36.748 -27.241 -16.107  0.00  0.00    -0.248 OA
ATOM      8  C   GLU A   1      36.610 -26.564 -15.097  0.00  0.00    +0.332 C 
BRANCH   8   9
ATOM      9  O   GLU A   1      36.859 -27.041 -13.849  0.00  0.00    -0.479 OA
ATOM     10  H   GLU A   1      37.102 -26.452 -13.162  0.00  0.00    +0.295 HD
ENDBRANCH   8   9
ENDBRANCH   1   8
BRANCH   1  11
ATOM     11  CB  GLU A   1      37.277 -24.163 -14.544  0.00  0.00    +0.043 C 
BRANCH  11  12
ATOM     12  CG  GLU A   1      36.987 -23.504 -13.189  0.00  0.00    +0.112 C 
BRANCH  12  14
ATOM     13  OE2 GLU A   1      38.825 -23.229 -11.615  0.00  0.00    -0.250 OA
ATOM     14  CD  GLU A   1      37.939 -23.925 -12.089  0.00  0.00    +0.314 C 
BRANCH  14  15
ATOM     15  OE1 GLU A   1      37.722 -25.209 -11.704  0.00  0.00    -0.480 OA
ATOM     16  HE1 GLU A   1      37.990 -25.494 -10.853  0.00  0.00    +0.295 HD
ENDBRANCH  14  15
ENDBRANCH  12  14
ENDBRANCH  11  12
ENDBRANCH   1  11
TORSDOF 7
ENDMDL
MODEL 8
REMARK VINA RESULT:      -5.8      8.787     11.297
REMARK  Name = 70914
REMARK  7 active torsions:
REMARK  status: ('A' for Active; 'I' for Inactive)
REMARK    1  A    between atoms: CA_1  and  N_3
REMARK    2  A    between atoms: CA_1  and  C_8
REMARK    3  A    between atoms: CA_1  and  CB_11
REMARK    4  A    between atoms: C_8  and  O_9
REMARK    5  A    between atoms: CB_11  and  CG_12
REMARK    6  A    between atoms: CG_12  and  CD_14
REMARK    7  A    between atoms: CD_14  and  OE1_15
REMARK                            x       y       z     vdW  Elec       q    Type
REMARK                         _______ _______ _______ _____ _____    ______ ____
ROOT
ATOM      1  CA  GLU A   1      34.963 -17.556 -21.800  0.00  0.00    +0.172 C 
ENDROOT
BRANCH   1   3
ATOM      2  O   UNK A   0      34.992 -14.942 -20.538  0.00  0.00    -0.275 OA
ATOM      3  N   GLU A   1      33.835 -16.817 -21.292  0.00  0.00    -0.297 N 
ATOM      4  C   UNK A   0      33.947 -15.567 -20.702  0.00  0.00    +0.223 C 
ATOM      5  C   UNK A   0      32.613 -15.009 -20.285  0.00  0.00    +0.095 C 
ATOM      6  H   GLU A   1      32.940 -17.219 -21.369  0.00  0.00    +0.150 HD
ENDBRANCH   1   3
BRANCH   1   8
ATOM      7  OXT GLU A   1      34.626 -17.978 -24.174  0.00  0.00    -0.248 OA
ATOM      8  C   GLU A   1      35.072 -17.267 -23.283  0.00  0.00    +0.332 C 
BRANCH   8   9
ATOM      9  O   GLU A   1      35.699 -16.086 -23.524  0.00  0.00    -0.479 OA
ATOM     10  H   GLU A   1      36.338 -15.762 -22.921  0.00  0.00    +0.295 HD
ENDBRANCH   8   9
ENDBRANCH   1   8
BRANCH   1  11
ATOM     11  CB  GLU A   1      34.890 -19.051 -21.466  0.00  0.00    +0.043 C 
BRANCH  11  12
ATOM     12  CG  GLU A   1      33.541 -19.553 -20.935  0.00  0.00    +0.112 C 
BRANCH  12  14
ATOM     13  OE2 GLU A   1      32.719 -21.598 -19.898  0.00  0.00    -0.250 OA
ATOM     14  CD  GLU A   1      33.640 -20.824 -20.119  0.00  0.00    +0.314 C 
BRANCH  14  15
ATOM     15  OE1 GLU A   1      34.887 -20.996 -19.611  0.00  0.00    -0.480 OA
ATOM     16  HE1 GLU A   1      35.637 -20.905 -20.166  0.00  0.00    +0.295 HD
ENDBRANCH  14  15
ENDBRANCH  12  14
ENDBRANCH  11  12
ENDBRANCH   1  11
TORSDOF 7
ENDMDL
MODEL 9
REMARK VINA RESULT:      -5.8      6.147      7.679
REMARK  Name = 70914
REMARK  7 active torsions:
REMARK  status: ('A' for Active; 'I' for Inactive)
REMARK    1  A    between atoms: CA_1  and  N_3
REMARK    2  A    between atoms: CA_1  and  C_8
REMARK    3  A    between atoms: CA_1  and  CB_11
REMARK    4  A    between atoms: C_8  and  O_9
REMARK    5  A    between atoms: CB_11  and  CG_12
REMARK    6  A    between atoms: CG_12  and  CD_14
REMARK    7  A    between atoms: CD_14  and  OE1_15
REMARK                            x       y       z     vdW  Elec       q    Type
REMARK                         _______ _______ _______ _____ _____    ______ ____
ROOT
ATOM      1  CA  GLU A   1      31.035 -23.638 -14.803  0.00  0.00    +0.172 C 
ENDROOT
BRANCH   1   3
ATOM      2  O   UNK A   0      33.294 -23.904 -12.999  0.00  0.00    -0.275 OA
ATOM      3  N   GLU A   1      32.417 -23.845 -15.155  0.00  0.00    -0.297 N 
ATOM      4  C   UNK A   0      33.433 -23.961 -14.218  0.00  0.00    +0.223 C 
ATOM      5  C   UNK A   0      34.775 -24.197 -14.856  0.00  0.00    +0.095 C 
ATOM      6  H   GLU A   1      32.652 -23.908 -16.109  0.00  0.00    +0.150 HD
ENDBRANCH   1   3
BRANCH   1   8
ATOM      7  OXT GLU A   1      30.187 -25.920 -14.868  0.00  0.00    -0.248 OA
ATOM      8  C   GLU A   1      30.512 -24.934 -14.218  0.00  0.00    +0.332 C 
BRANCH   8   9
ATOM      9  O   GLU A   1      30.476 -24.901 -12.860  0.00  0.00    -0.479 OA
ATOM     10  H   GLU A   1      30.935 -25.547 -12.363  0.00  0.00    +0.295 HD
ENDBRANCH   8   9
ENDBRANCH   1   8
BRANCH   1  11
ATOM     11  CB  GLU A   1      30.199 -23.105 -15.972  0.00  0.00    +0.043 C 
BRANCH  11  12
ATOM     12  CG  GLU A   1      28.785 -22.627 -15.620  0.00  0.00    +0.112 C 
BRANCH  12  14
ATOM     13  OE2 GLU A   1      27.229 -21.539 -17.146  0.00  0.00    -0.250 OA
ATOM     14  CD  GLU A   1      27.857 -22.534 -16.812  0.00  0.00    +0.314 C 
BRANCH  14  15
ATOM     15  OE1 GLU A   1      27.762 -23.721 -17.465  0.00  0.00    -0.480 OA
ATOM     16  HE1 GLU A   1      27.180 -24.384 -17.150  0.00  0.00    +0.295 HD
ENDBRANCH  14  15
ENDBRANCH  12  14
ENDBRANCH  11  12
ENDBRANCH   1  11
TORSDOF 7
ENDMDL
