MODEL 1
REMARK VINA RESULT:      -4.3      0.000      0.000
REMARK  Name = 8894
REMARK  0 active torsions:
REMARK  status: ('A' for Active; 'I' for Inactive)
REMARK                            x       y       z     vdW  Elec       q    Type
REMARK                         _______ _______ _______ _____ _____    ______ ____
ROOT
ATOM      1  O   UNL     1      32.722 -20.825 -19.483  0.00  0.00    -0.354 OA
ATOM      2  C   UNL     1      35.336 -20.562 -20.650  0.00  0.00    +0.005 C 
ATOM      3  C   UNL     1      34.258 -19.495 -20.812  0.00  0.00    +0.032 C 
ATOM      4  C   UNL     1      35.081 -21.396 -19.399  0.00  0.00    +0.032 C 
ATOM      5  C   UNL     1      32.869 -20.111 -20.710  0.00  0.00    +0.142 C 
ATOM      6  C   UNL     1      33.646 -21.907 -19.375  0.00  0.00    +0.142 C 
ENDROOT
TORSDOF 0
ENDMDL
MODEL 2
REMARK VINA RESULT:      -4.2      1.464      2.866
REMARK  Name = 8894
REMARK  0 active torsions:
REMARK  status: ('A' for Active; 'I' for Inactive)
REMARK                            x       y       z     vdW  Elec       q    Type
REMARK                         _______ _______ _______ _____ _____    ______ ____
ROOT
ATOM      1  O   UNL     1      35.770 -20.104 -20.011  0.00  0.00    -0.354 OA
ATOM      2  C   UNL     1      32.998 -20.248 -20.759  0.00  0.00    +0.005 C 
ATOM      3  C   UNL     1      33.577 -21.067 -19.610  0.00  0.00    +0.032 C 
ATOM      4  C   UNL     1      33.849 -19.009 -21.016  0.00  0.00    +0.032 C 
ATOM      5  C   UNL     1      35.062 -21.330 -19.829  0.00  0.00    +0.142 C 
ATOM      6  C   UNL     1      35.319 -19.385 -21.158  0.00  0.00    +0.142 C 
ENDROOT
TORSDOF 0
ENDMDL
MODEL 3
REMARK VINA RESULT:      -4.2      0.669      2.099
REMARK  Name = 8894
REMARK  0 active torsions:
REMARK  status: ('A' for Active; 'I' for Inactive)
REMARK                            x       y       z     vdW  Elec       q    Type
REMARK                         _______ _______ _______ _____ _____    ______ ____
ROOT
ATOM      1  O   UNL     1      32.738 -21.660 -19.978  0.00  0.00    -0.354 OA
ATOM      2  C   UNL     1      35.431 -20.652 -19.988  0.00  0.00    +0.005 C 
ATOM      3  C   UNL     1      35.096 -22.082 -19.577  0.00  0.00    +0.032 C 
ATOM      4  C   UNL     1      34.345 -20.088 -20.898  0.00  0.00    +0.032 C 
ATOM      5  C   UNL     1      33.677 -22.168 -19.030  0.00  0.00    +0.142 C 
ATOM      6  C   UNL     1      32.967 -20.284 -20.278  0.00  0.00    +0.142 C 
ENDROOT
TORSDOF 0
ENDMDL
MODEL 4
REMARK VINA RESULT:      -4.1      1.414      2.136
REMARK  Name = 8894
REMARK  0 active torsions:
REMARK  status: ('A' for Active; 'I' for Inactive)
REMARK                            x       y       z     vdW  Elec       q    Type
REMARK                         _______ _______ _______ _____ _____    ______ ____
ROOT
ATOM      1  O   UNL     1      35.799 -21.282 -20.301  0.00  0.00    -0.354 OA
ATOM      2  C   UNL     1      33.057 -20.480 -19.976  0.00  0.00    +0.005 C 
ATOM      3  C   UNL     1      33.942 -19.932 -21.091  0.00  0.00    +0.032 C 
ATOM      4  C   UNL     1      33.574 -21.833 -19.499  0.00  0.00    +0.032 C 
ATOM      5  C   UNL     1      35.408 -19.963 -20.681  0.00  0.00    +0.142 C 
ATOM      6  C   UNL     1      35.061 -21.760 -19.176  0.00  0.00    +0.142 C 
ENDROOT
TORSDOF 0
ENDMDL
MODEL 5
REMARK VINA RESULT:      -4.0      4.723      5.416
REMARK  Name = 8894
REMARK  0 active torsions:
REMARK  status: ('A' for Active; 'I' for Inactive)
REMARK                            x       y       z     vdW  Elec       q    Type
REMARK                         _______ _______ _______ _____ _____    ______ ____
ROOT
ATOM      1  O   UNL     1      35.340 -15.954 -23.268  0.00  0.00    -0.354 OA
ATOM      2  C   UNL     1      34.684 -18.566 -24.273  0.00  0.00    +0.005 C 
ATOM      3  C   UNL     1      34.650 -17.321 -25.152  0.00  0.00    +0.032 C 
ATOM      4  C   UNL     1      35.622 -18.360 -23.088  0.00  0.00    +0.032 C 
ATOM      5  C   UNL     1      34.379 -16.077 -24.315  0.00  0.00    +0.142 C 
ATOM      6  C   UNL     1      35.298 -17.059 -22.365  0.00  0.00    +0.142 C 
ENDROOT
TORSDOF 0
ENDMDL
MODEL 6
REMARK VINA RESULT:      -4.0      1.478      2.173
REMARK  Name = 8894
REMARK  0 active torsions:
REMARK  status: ('A' for Active; 'I' for Inactive)
REMARK                            x       y       z     vdW  Elec       q    Type
REMARK                         _______ _______ _______ _____ _____    ______ ____
ROOT
ATOM      1  O   UNL     1      35.182 -19.757 -21.387  0.00  0.00    -0.354 OA
ATOM      2  C   UNL     1      33.249 -20.907 -19.596  0.00  0.00    +0.005 C 
ATOM      3  C   UNL     1      32.848 -20.023 -20.772  0.00  0.00    +0.032 C 
ATOM      4  C   UNL     1      34.611 -21.545 -19.846  0.00  0.00    +0.032 C 
ATOM      5  C   UNL     1      33.968 -19.053 -21.126  0.00  0.00    +0.142 C 
ATOM      6  C   UNL     1      35.634 -20.492 -20.250  0.00  0.00    +0.142 C 
ENDROOT
TORSDOF 0
ENDMDL
MODEL 7
REMARK VINA RESULT:      -4.0      9.662     10.089
REMARK  Name = 8894
REMARK  0 active torsions:
REMARK  status: ('A' for Active; 'I' for Inactive)
REMARK                            x       y       z     vdW  Elec       q    Type
REMARK                         _______ _______ _______ _____ _____    ______ ____
ROOT
ATOM      1  O   UNL     1      42.301 -16.511 -16.000  0.00  0.00    -0.354 OA
ATOM      2  C   UNL     1      41.174 -14.420 -17.618  0.00  0.00    +0.005 C 
ATOM      3  C   UNL     1      41.310 -14.297 -16.104  0.00  0.00    +0.032 C 
ATOM      4  C   UNL     1      42.183 -15.422 -18.168  0.00  0.00    +0.032 C 
ATOM      5  C   UNL     1      41.289 -15.671 -15.448  0.00  0.00    +0.142 C 
ATOM      6  C   UNL     1      42.114 -16.734 -17.398  0.00  0.00    +0.142 C 
ENDROOT
TORSDOF 0
ENDMDL
MODEL 8
REMARK VINA RESULT:      -4.0      1.207      2.185
REMARK  Name = 8894
REMARK  0 active torsions:
REMARK  status: ('A' for Active; 'I' for Inactive)
REMARK                            x       y       z     vdW  Elec       q    Type
REMARK                         _______ _______ _______ _____ _____    ______ ____
ROOT
ATOM      1  O   UNL     1      34.147 -19.380 -20.700  0.00  0.00    -0.354 OA
ATOM      2  C   UNL     1      34.662 -21.968 -19.560  0.00  0.00    +0.005 C 
ATOM      3  C   UNL     1      35.767 -20.942 -19.789  0.00  0.00    +0.032 C 
ATOM      4  C   UNL     1      33.307 -21.279 -19.440  0.00  0.00    +0.032 C 
ATOM      5  C   UNL     1      35.407 -20.008 -20.936  0.00  0.00    +0.142 C 
ATOM      6  C   UNL     1      33.082 -20.326 -20.607  0.00  0.00    +0.142 C 
ENDROOT
TORSDOF 0
ENDMDL
MODEL 9
REMARK VINA RESULT:      -4.0      5.006      5.927
REMARK  Name = 8894
REMARK  0 active torsions:
REMARK  status: ('A' for Active; 'I' for Inactive)
REMARK                            x       y       z     vdW  Elec       q    Type
REMARK                         _______ _______ _______ _____ _____    ______ ____
ROOT
ATOM      1  O   UNL     1      34.542 -17.442 -25.668  0.00  0.00    -0.354 OA
ATOM      2  C   UNL     1      34.940 -17.293 -22.825  0.00  0.00    +0.005 C 
ATOM      3  C   UNL     1      35.285 -18.539 -23.634  0.00  0.00    +0.032 C 
ATOM      4  C   UNL     1      34.953 -16.056 -23.717  0.00  0.00    +0.032 C 
ATOM      5  C   UNL     1      34.420 -18.628 -24.884  0.00  0.00    +0.142 C 
ATOM      6  C   UNL     1      34.105 -16.281 -24.963  0.00  0.00    +0.142 C 
ENDROOT
TORSDOF 0
ENDMDL
