MODEL 1
REMARK VINA RESULT:      -9.6      0.000      0.000
REMARK  Name = 121976
REMARK  10 active torsions:
REMARK  status: ('A' for Active; 'I' for Inactive)
REMARK    1  A    between atoms: C_2  and  O_16
REMARK    2  A    between atoms: C_3  and  C_23
REMARK    3  A    between atoms: C_5  and  N_8
REMARK    4  A    between atoms: O_16  and  P_17
REMARK    5  A    between atoms: P_17  and  O_19
REMARK    6  A    between atoms: P_17  and  O_21
REMARK    7  A    between atoms: C_23  and  O_24
REMARK    8  A    between atoms: O_24  and  P_25
REMARK    9  A    between atoms: P_25  and  O_27
REMARK   10  A    between atoms: P_25  and  O_29
REMARK                            x       y       z     vdW  Elec       q    Type
REMARK                         _______ _______ _______ _____ _____    ______ ____
ROOT
ATOM      1  O   UNL     1      35.739 -22.606 -14.928  0.00  0.00    -0.335 OA
ATOM      2  C   UNL     1      35.720 -24.777 -13.977  0.00  0.00    +0.160 C 
ATOM      3  C   UNL     1      36.612 -23.609 -14.372  0.00  0.00    +0.175 C 
ATOM      4  C   UNL     1      34.575 -24.683 -14.958  0.00  0.00    +0.084 C 
ATOM      5  C   UNL     1      34.448 -23.183 -15.171  0.00  0.00    +0.202 C 
ENDROOT
BRANCH   5   8
ATOM      6  O   UNL     1      31.758 -23.270 -16.102  0.00  0.00    -0.252 OA
ATOM      7  O   UNL     1      32.987 -21.845 -20.298  0.00  0.00    -0.270 OA
ATOM      8  N   UNL     1      34.020 -22.844 -16.497  0.00  0.00    -0.219 N 
ATOM      9  N   UNL     1      32.385 -22.559 -18.190  0.00  0.00    -0.236 N 
ATOM     10  C   UNL     1      34.976 -22.438 -17.418  0.00  0.00    +0.071 C 
ATOM     11  C   UNL     1      32.660 -22.919 -16.866  0.00  0.00    +0.315 C 
ATOM     12  C   UNL     1      34.711 -22.094 -18.685  0.00  0.00    +0.047 C 
ATOM     13  C   UNL     1      33.299 -22.147 -19.149  0.00  0.00    +0.250 C 
ATOM     14  C   UNL     1      35.756 -21.660 -19.661  0.00  0.00    +0.037 C 
ATOM     15  H   UNL     1      31.442 -22.603 -18.472  0.00  0.00    +0.159 HD
ENDBRANCH   5   8
BRANCH   2  16
ATOM     16  O   UNL     1      35.233 -24.587 -12.649  0.00  0.00    -0.273 OA
BRANCH  16  17
ATOM     17  P   UNL     1      36.267 -24.750 -11.411  0.00  0.00    +0.473 P 
ATOM     18  O   UNL     1      37.160 -23.567 -11.175  0.00  0.00    -0.227 OA
BRANCH  17  19
ATOM     19  O   UNL     1      37.032 -26.140 -11.731  0.00  0.00    -0.303 OA
ATOM     20  H   UNL     1      37.590 -26.027 -12.517  0.00  0.00    +0.222 HD
ENDBRANCH  17  19
BRANCH  17  21
ATOM     21  O   UNL     1      35.299 -25.134 -10.175  0.00  0.00    -0.303 OA
ATOM     22  H   UNL     1      34.956 -24.323  -9.769  0.00  0.00    +0.222 HD
ENDBRANCH  17  21
ENDBRANCH  16  17
ENDBRANCH   2  16
BRANCH   3  23
ATOM     23  C   UNL     1      37.635 -23.980 -15.438  0.00  0.00    +0.186 C 
BRANCH  23  24
ATOM     24  O   UNL     1      38.924 -24.005 -14.845  0.00  0.00    -0.271 OA
BRANCH  24  25
ATOM     25  P   UNL     1      39.654 -25.436 -14.649  0.00  0.00    +0.473 P 
ATOM     26  O   UNL     1      38.799 -26.505 -14.033  0.00  0.00    -0.227 OA
BRANCH  25  27
ATOM     27  O   UNL     1      41.001 -25.073 -13.832  0.00  0.00    -0.303 OA
ATOM     28  H   UNL     1      41.731 -25.627 -14.150  0.00  0.00    +0.222 HD
ENDBRANCH  25  27
BRANCH  25  29
ATOM     29  O   UNL     1      40.198 -25.770 -16.135  0.00  0.00    -0.303 OA
ATOM     30  H   UNL     1      39.633 -25.335 -16.791  0.00  0.00    +0.222 HD
ENDBRANCH  25  29
ENDBRANCH  24  25
ENDBRANCH  23  24
ENDBRANCH   3  23
TORSDOF 10
ENDMDL
MODEL 2
REMARK VINA RESULT:      -9.3      1.371      4.338
REMARK  Name = 121976
REMARK  10 active torsions:
REMARK  status: ('A' for Active; 'I' for Inactive)
REMARK    1  A    between atoms: C_2  and  O_16
REMARK    2  A    between atoms: C_3  and  C_23
REMARK    3  A    between atoms: C_5  and  N_8
REMARK    4  A    between atoms: O_16  and  P_17
REMARK    5  A    between atoms: P_17  and  O_19
REMARK    6  A    between atoms: P_17  and  O_21
REMARK    7  A    between atoms: C_23  and  O_24
REMARK    8  A    between atoms: O_24  and  P_25
REMARK    9  A    between atoms: P_25  and  O_27
REMARK   10  A    between atoms: P_25  and  O_29
REMARK                            x       y       z     vdW  Elec       q    Type
REMARK                         _______ _______ _______ _____ _____    ______ ____
ROOT
ATOM      1  O   UNL     1      35.894 -25.234 -15.652  0.00  0.00    -0.335 OA
ATOM      2  C   UNL     1      37.458 -24.004 -14.364  0.00  0.00    +0.160 C 
ATOM      3  C   UNL     1      36.709 -25.325 -14.468  0.00  0.00    +0.175 C 
ATOM      4  C   UNL     1      36.517 -23.023 -15.026  0.00  0.00    +0.084 C 
ATOM      5  C   UNL     1      35.862 -23.872 -16.103  0.00  0.00    +0.202 C 
ENDROOT
BRANCH   5   8
ATOM      6  O   UNL     1      34.878 -22.900 -18.592  0.00  0.00    -0.252 OA
ATOM      7  O   UNL     1      30.616 -22.454 -16.923  0.00  0.00    -0.270 OA
ATOM      8  N   UNL     1      34.505 -23.491 -16.364  0.00  0.00    -0.219 N 
ATOM      9  N   UNL     1      32.757 -22.682 -17.746  0.00  0.00    -0.236 N 
ATOM     10  C   UNL     1      33.579 -23.595 -15.335  0.00  0.00    +0.071 C 
ATOM     11  C   UNL     1      34.111 -23.018 -17.634  0.00  0.00    +0.315 C 
ATOM     12  C   UNL     1      32.283 -23.273 -15.445  0.00  0.00    +0.047 C 
ATOM     13  C   UNL     1      31.791 -22.768 -16.754  0.00  0.00    +0.250 C 
ATOM     14  C   UNL     1      31.303 -23.393 -14.324  0.00  0.00    +0.037 C 
ATOM     15  H   UNL     1      32.457 -22.350 -18.624  0.00  0.00    +0.159 HD
ENDBRANCH   5   8
BRANCH   2  16
ATOM     16  O   UNL     1      38.675 -24.077 -15.105  0.00  0.00    -0.273 OA
BRANCH  16  17
ATOM     17  P   UNL     1      39.748 -25.231 -14.724  0.00  0.00    +0.473 P 
ATOM     18  O   UNL     1      39.263 -26.239 -13.723  0.00  0.00    -0.227 OA
BRANCH  17  19
ATOM     19  O   UNL     1      41.064 -24.399 -14.285  0.00  0.00    -0.303 OA
ATOM     20  H   UNL     1      41.263 -23.731 -14.960  0.00  0.00    +0.222 HD
ENDBRANCH  17  19
BRANCH  17  21
ATOM     21  O   UNL     1      40.156 -25.840 -16.165  0.00  0.00    -0.303 OA
ATOM     22  H   UNL     1      41.101 -25.689 -16.324  0.00  0.00    +0.222 HD
ENDBRANCH  17  21
ENDBRANCH  16  17
ENDBRANCH   2  16
BRANCH   3  23
ATOM     23  C   UNL     1      35.786 -25.576 -13.283  0.00  0.00    +0.186 C 
BRANCH  23  24
ATOM     24  O   UNL     1      36.501 -25.324 -12.083  0.00  0.00    -0.271 OA
BRANCH  24  25
ATOM     25  P   UNL     1      36.006 -24.112 -11.132  0.00  0.00    +0.473 P 
ATOM     26  O   UNL     1      37.063 -23.101 -10.791  0.00  0.00    -0.227 OA
BRANCH  25  27
ATOM     27  O   UNL     1      35.337 -24.864  -9.867  0.00  0.00    -0.303 OA
ATOM     28  H   UNL     1      34.372 -24.877  -9.972  0.00  0.00    +0.222 HD
ENDBRANCH  25  27
BRANCH  25  29
ATOM     29  O   UNL     1      34.731 -23.523 -11.932  0.00  0.00    -0.303 OA
ATOM     30  H   UNL     1      35.031 -23.094 -12.748  0.00  0.00    +0.222 HD
ENDBRANCH  25  29
ENDBRANCH  24  25
ENDBRANCH  23  24
ENDBRANCH   3  23
TORSDOF 10
ENDMDL
MODEL 3
REMARK VINA RESULT:      -8.7      1.743      2.519
REMARK  Name = 121976
REMARK  10 active torsions:
REMARK  status: ('A' for Active; 'I' for Inactive)
REMARK    1  A    between atoms: C_2  and  O_16
REMARK    2  A    between atoms: C_3  and  C_23
REMARK    3  A    between atoms: C_5  and  N_8
REMARK    4  A    between atoms: O_16  and  P_17
REMARK    5  A    between atoms: P_17  and  O_19
REMARK    6  A    between atoms: P_17  and  O_21
REMARK    7  A    between atoms: C_23  and  O_24
REMARK    8  A    between atoms: O_24  and  P_25
REMARK    9  A    between atoms: P_25  and  O_27
REMARK   10  A    between atoms: P_25  and  O_29
REMARK                            x       y       z     vdW  Elec       q    Type
REMARK                         _______ _______ _______ _____ _____    ______ ____
ROOT
ATOM      1  O   UNL     1      37.087 -23.492 -14.717  0.00  0.00    -0.335 OA
ATOM      2  C   UNL     1      35.329 -24.720 -13.706  0.00  0.00    +0.160 C 
ATOM      3  C   UNL     1      36.804 -24.752 -14.078  0.00  0.00    +0.175 C 
ATOM      4  C   UNL     1      34.729 -23.819 -14.760  0.00  0.00    +0.084 C 
ATOM      5  C   UNL     1      35.852 -22.829 -15.025  0.00  0.00    +0.202 C 
ENDROOT
BRANCH   5   8
ATOM      6  O   UNL     1      37.961 -21.323 -16.205  0.00  0.00    -0.252 OA
ATOM      7  O   UNL     1      35.805 -21.170 -20.264  0.00  0.00    -0.270 OA
ATOM      8  N   UNL     1      35.884 -22.375 -16.384  0.00  0.00    -0.219 N 
ATOM      9  N   UNL     1      36.874 -21.254 -18.224  0.00  0.00    -0.236 N 
ATOM     10  C   UNL     1      34.811 -22.682 -17.210  0.00  0.00    +0.071 C 
ATOM     11  C   UNL     1      36.976 -21.632 -16.880  0.00  0.00    +0.315 C 
ATOM     12  C   UNL     1      34.716 -22.320 -18.496  0.00  0.00    +0.047 C 
ATOM     13  C   UNL     1      35.829 -21.534 -19.092  0.00  0.00    +0.250 C 
ATOM     14  C   UNL     1      33.551 -22.661 -19.368  0.00  0.00    +0.037 C 
ATOM     15  H   UNL     1      37.625 -20.734 -18.593  0.00  0.00    +0.159 HD
ENDBRANCH   5   8
BRANCH   2  16
ATOM     16  O   UNL     1      35.168 -24.127 -12.418  0.00  0.00    -0.273 OA
BRANCH  16  17
ATOM     17  P   UNL     1      36.224 -24.510 -11.249  0.00  0.00    +0.473 P 
ATOM     18  O   UNL     1      37.033 -25.747 -11.509  0.00  0.00    -0.227 OA
BRANCH  17  19
ATOM     19  O   UNL     1      35.316 -24.547  -9.910  0.00  0.00    -0.303 OA
ATOM     20  H   UNL     1      35.699 -23.954  -9.245  0.00  0.00    +0.222 HD
ENDBRANCH  17  19
BRANCH  17  21
ATOM     21  O   UNL     1      37.086 -23.153 -11.077  0.00  0.00    -0.303 OA
ATOM     22  H   UNL     1      37.000 -22.828 -10.167  0.00  0.00    +0.222 HD
ENDBRANCH  17  21
ENDBRANCH  16  17
ENDBRANCH   2  16
BRANCH   3  23
ATOM     23  C   UNL     1      37.141 -25.862 -15.066  0.00  0.00    +0.186 C 
BRANCH  23  24
ATOM     24  O   UNL     1      38.295 -26.549 -14.608  0.00  0.00    -0.271 OA
BRANCH  24  25
ATOM     25  P   UNL     1      39.701 -25.749 -14.564  0.00  0.00    +0.473 P 
ATOM     26  O   UNL     1      40.926 -26.616 -14.606  0.00  0.00    -0.227 OA
BRANCH  25  27
ATOM     27  O   UNL     1      39.567 -24.806 -13.258  0.00  0.00    -0.303 OA
ATOM     28  H   UNL     1      38.761 -24.271 -13.327  0.00  0.00    +0.222 HD
ENDBRANCH  25  27
BRANCH  25  29
ATOM     29  O   UNL     1      39.560 -24.706 -15.792  0.00  0.00    -0.303 OA
ATOM     30  H   UNL     1      39.678 -23.802 -15.463  0.00  0.00    +0.222 HD
ENDBRANCH  25  29
ENDBRANCH  24  25
ENDBRANCH  23  24
ENDBRANCH   3  23
TORSDOF 10
ENDMDL
MODEL 4
REMARK VINA RESULT:      -8.4      2.127      4.533
REMARK  Name = 121976
REMARK  10 active torsions:
REMARK  status: ('A' for Active; 'I' for Inactive)
REMARK    1  A    between atoms: C_2  and  O_16
REMARK    2  A    between atoms: C_3  and  C_23
REMARK    3  A    between atoms: C_5  and  N_8
REMARK    4  A    between atoms: O_16  and  P_17
REMARK    5  A    between atoms: P_17  and  O_19
REMARK    6  A    between atoms: P_17  and  O_21
REMARK    7  A    between atoms: C_23  and  O_24
REMARK    8  A    between atoms: O_24  and  P_25
REMARK    9  A    between atoms: P_25  and  O_27
REMARK   10  A    between atoms: P_25  and  O_29
REMARK                            x       y       z     vdW  Elec       q    Type
REMARK                         _______ _______ _______ _____ _____    ______ ____
ROOT
ATOM      1  O   UNL     1      34.652 -24.392 -15.823  0.00  0.00    -0.335 OA
ATOM      2  C   UNL     1      35.857 -23.281 -14.111  0.00  0.00    +0.160 C 
ATOM      3  C   UNL     1      34.710 -24.241 -14.392  0.00  0.00    +0.175 C 
ATOM      4  C   UNL     1      35.891 -22.415 -15.349  0.00  0.00    +0.084 C 
ATOM      5  C   UNL     1      35.467 -23.385 -16.440  0.00  0.00    +0.202 C 
ENDROOT
BRANCH   5   8
ATOM      6  O   UNL     1      32.648 -23.565 -16.798  0.00  0.00    -0.252 OA
ATOM      7  O   UNL     1      32.783 -20.881 -20.530  0.00  0.00    -0.270 OA
ATOM      8  N   UNL     1      34.725 -22.751 -17.490  0.00  0.00    -0.219 N 
ATOM      9  N   UNL     1      32.730 -22.226 -18.659  0.00  0.00    -0.236 N 
ATOM     10  C   UNL     1      35.415 -21.983 -18.418  0.00  0.00    +0.071 C 
ATOM     11  C   UNL     1      33.325 -22.899 -17.586  0.00  0.00    +0.315 C 
ATOM     12  C   UNL     1      34.843 -21.339 -19.443  0.00  0.00    +0.047 C 
ATOM     13  C   UNL     1      33.369 -21.446 -19.611  0.00  0.00    +0.250 C 
ATOM     14  C   UNL     1      35.605 -20.516 -20.432  0.00  0.00    +0.037 C 
ATOM     15  H   UNL     1      31.753 -22.314 -18.746  0.00  0.00    +0.159 HD
ENDBRANCH   5   8
BRANCH   2  16
ATOM     16  O   UNL     1      37.080 -24.007 -13.998  0.00  0.00    -0.273 OA
BRANCH  16  17
ATOM     17  P   UNL     1      37.767 -24.150 -12.537  0.00  0.00    +0.473 P 
ATOM     18  O   UNL     1      37.050 -25.068 -11.589  0.00  0.00    -0.227 OA
BRANCH  17  19
ATOM     19  O   UNL     1      37.920 -22.620 -12.035  0.00  0.00    -0.303 OA
ATOM     20  H   UNL     1      38.233 -22.069 -12.770  0.00  0.00    +0.222 HD
ENDBRANCH  17  19
BRANCH  17  21
ATOM     21  O   UNL     1      39.285 -24.580 -12.887  0.00  0.00    -0.303 OA
ATOM     22  H   UNL     1      39.346 -25.548 -12.930  0.00  0.00    +0.222 HD
ENDBRANCH  17  21
ENDBRANCH  16  17
ENDBRANCH   2  16
BRANCH   3  23
ATOM     23  C   UNL     1      33.363 -23.705 -13.924  0.00  0.00    +0.186 C 
BRANCH  23  24
ATOM     24  O   UNL     1      32.541 -24.799 -13.546  0.00  0.00    -0.271 OA
BRANCH  24  25
ATOM     25  P   UNL     1      30.959 -24.724 -13.874  0.00  0.00    +0.473 P 
ATOM     26  O   UNL     1      30.439 -25.829 -14.747  0.00  0.00    -0.227 OA
BRANCH  25  27
ATOM     27  O   UNL     1      30.757 -23.230 -14.458  0.00  0.00    -0.303 OA
ATOM     28  H   UNL     1      30.897 -22.584 -13.748  0.00  0.00    +0.222 HD
ENDBRANCH  25  27
BRANCH  25  29
ATOM     29  O   UNL     1      30.289 -24.643 -12.405  0.00  0.00    -0.303 OA
ATOM     30  H   UNL     1      30.753 -25.247 -11.804  0.00  0.00    +0.222 HD
ENDBRANCH  25  29
ENDBRANCH  24  25
ENDBRANCH  23  24
ENDBRANCH   3  23
TORSDOF 10
ENDMDL
MODEL 5
REMARK VINA RESULT:      -8.3      2.125      4.601
REMARK  Name = 121976
REMARK  10 active torsions:
REMARK  status: ('A' for Active; 'I' for Inactive)
REMARK    1  A    between atoms: C_2  and  O_16
REMARK    2  A    between atoms: C_3  and  C_23
REMARK    3  A    between atoms: C_5  and  N_8
REMARK    4  A    between atoms: O_16  and  P_17
REMARK    5  A    between atoms: P_17  and  O_19
REMARK    6  A    between atoms: P_17  and  O_21
REMARK    7  A    between atoms: C_23  and  O_24
REMARK    8  A    between atoms: O_24  and  P_25
REMARK    9  A    between atoms: P_25  and  O_27
REMARK   10  A    between atoms: P_25  and  O_29
REMARK                            x       y       z     vdW  Elec       q    Type
REMARK                         _______ _______ _______ _____ _____    ______ ____
ROOT
ATOM      1  O   UNL     1      33.739 -25.029 -15.010  0.00  0.00    -0.335 OA
ATOM      2  C   UNL     1      35.492 -23.458 -14.735  0.00  0.00    +0.160 C 
ATOM      3  C   UNL     1      34.785 -24.645 -14.097  0.00  0.00    +0.175 C 
ATOM      4  C   UNL     1      34.401 -22.808 -15.554  0.00  0.00    +0.084 C 
ATOM      5  C   UNL     1      33.567 -24.000 -15.995  0.00  0.00    +0.202 C 
ENDROOT
BRANCH   5   8
ATOM      6  O   UNL     1      32.441 -22.235 -17.925  0.00  0.00    -0.252 OA
ATOM      7  O   UNL     1      28.188 -22.921 -16.316  0.00  0.00    -0.270 OA
ATOM      8  N   UNL     1      32.173 -23.688 -16.117  0.00  0.00    -0.219 N 
ATOM      9  N   UNL     1      30.325 -22.585 -17.112  0.00  0.00    -0.236 N 
ATOM     10  C   UNL     1      31.282 -24.282 -15.233  0.00  0.00    +0.071 C 
ATOM     11  C   UNL     1      31.708 -22.798 -17.109  0.00  0.00    +0.315 C 
ATOM     12  C   UNL     1      29.958 -24.078 -15.239  0.00  0.00    +0.047 C 
ATOM     13  C   UNL     1      29.392 -23.152 -16.257  0.00  0.00    +0.250 C 
ATOM     14  C   UNL     1      29.017 -24.728 -14.278  0.00  0.00    +0.037 C 
ATOM     15  H   UNL     1      29.976 -21.969 -17.796  0.00  0.00    +0.159 HD
ENDBRANCH   5   8
BRANCH   2  16
ATOM     16  O   UNL     1      36.531 -23.919 -15.597  0.00  0.00    -0.273 OA
BRANCH  16  17
ATOM     17  P   UNL     1      37.924 -24.421 -14.937  0.00  0.00    +0.473 P 
ATOM     18  O   UNL     1      38.065 -25.911 -14.817  0.00  0.00    -0.227 OA
BRANCH  17  19
ATOM     19  O   UNL     1      38.002 -23.605 -13.542  0.00  0.00    -0.303 OA
ATOM     20  H   UNL     1      38.469 -22.767 -13.685  0.00  0.00    +0.222 HD
ENDBRANCH  17  19
BRANCH  17  21
ATOM     21  O   UNL     1      39.043 -23.700 -15.853  0.00  0.00    -0.303 OA
ATOM     22  H   UNL     1      39.909 -24.104 -15.684  0.00  0.00    +0.222 HD
ENDBRANCH  17  21
ENDBRANCH  16  17
ENDBRANCH   2  16
BRANCH   3  23
ATOM     23  C   UNL     1      34.137 -24.300 -12.762  0.00  0.00    +0.186 C 
BRANCH  23  24
ATOM     24  O   UNL     1      35.056 -23.545 -11.988  0.00  0.00    -0.271 OA
BRANCH  24  25
ATOM     25  P   UNL     1      36.086 -24.339 -11.025  0.00  0.00    +0.473 P 
ATOM     26  O   UNL     1      36.644 -25.608 -11.601  0.00  0.00    -0.227 OA
BRANCH  25  27
ATOM     27  O   UNL     1      35.265 -24.511  -9.642  0.00  0.00    -0.303 OA
ATOM     28  H   UNL     1      34.534 -25.134  -9.776  0.00  0.00    +0.222 HD
ENDBRANCH  25  27
BRANCH  25  29
ATOM     29  O   UNL     1      37.186 -23.210 -10.667  0.00  0.00    -0.303 OA
ATOM     30  H   UNL     1      36.876 -22.682  -9.915  0.00  0.00    +0.222 HD
ENDBRANCH  25  29
ENDBRANCH  24  25
ENDBRANCH  23  24
ENDBRANCH   3  23
TORSDOF 10
ENDMDL
MODEL 6
REMARK VINA RESULT:      -8.2      3.421      6.429
REMARK  Name = 121976
REMARK  10 active torsions:
REMARK  status: ('A' for Active; 'I' for Inactive)
REMARK    1  A    between atoms: C_2  and  O_16
REMARK    2  A    between atoms: C_3  and  C_23
REMARK    3  A    between atoms: C_5  and  N_8
REMARK    4  A    between atoms: O_16  and  P_17
REMARK    5  A    between atoms: P_17  and  O_19
REMARK    6  A    between atoms: P_17  and  O_21
REMARK    7  A    between atoms: C_23  and  O_24
REMARK    8  A    between atoms: O_24  and  P_25
REMARK    9  A    between atoms: P_25  and  O_27
REMARK   10  A    between atoms: P_25  and  O_29
REMARK                            x       y       z     vdW  Elec       q    Type
REMARK                         _______ _______ _______ _____ _____    ______ ____
ROOT
ATOM      1  O   UNL     1      34.926 -24.847 -16.114  0.00  0.00    -0.335 OA
ATOM      2  C   UNL     1      33.478 -23.488 -14.821  0.00  0.00    +0.160 C 
ATOM      3  C   UNL     1      34.109 -23.664 -16.194  0.00  0.00    +0.175 C 
ATOM      4  C   UNL     1      34.499 -24.104 -13.893  0.00  0.00    +0.084 C 
ATOM      5  C   UNL     1      35.075 -25.228 -14.739  0.00  0.00    +0.202 C 
ENDROOT
BRANCH   5   8
ATOM      6  O   UNL     1      36.666 -27.228 -15.994  0.00  0.00    -0.252 OA
ATOM      7  O   UNL     1      40.380 -26.043 -13.554  0.00  0.00    -0.270 OA
ATOM      8  N   UNL     1      36.460 -25.477 -14.463  0.00  0.00    -0.219 N 
ATOM      9  N   UNL     1      38.510 -26.628 -14.770  0.00  0.00    -0.236 N 
ATOM     10  C   UNL     1      37.097 -24.693 -13.511  0.00  0.00    +0.071 C 
ATOM     11  C   UNL     1      37.167 -26.495 -15.138  0.00  0.00    +0.315 C 
ATOM     12  C   UNL     1      38.383 -24.821 -13.161  0.00  0.00    +0.047 C 
ATOM     13  C   UNL     1      39.195 -25.872 -13.830  0.00  0.00    +0.250 C 
ATOM     14  C   UNL     1      39.050 -23.966 -12.132  0.00  0.00    +0.037 C 
ATOM     15  H   UNL     1      39.025 -27.331 -15.228  0.00  0.00    +0.159 HD
ENDBRANCH   5   8
BRANCH   2  16
ATOM     16  O   UNL     1      32.258 -24.223 -14.750  0.00  0.00    -0.273 OA
BRANCH  16  17
ATOM     17  P   UNL     1      31.074 -23.675 -13.787  0.00  0.00    +0.473 P 
ATOM     18  O   UNL     1      29.950 -22.981 -14.501  0.00  0.00    -0.227 OA
BRANCH  17  19
ATOM     19  O   UNL     1      31.857 -22.776 -12.693  0.00  0.00    -0.303 OA
ATOM     20  H   UNL     1      32.527 -23.320 -12.250  0.00  0.00    +0.222 HD
ENDBRANCH  17  19
BRANCH  17  21
ATOM     21  O   UNL     1      30.644 -24.989 -12.951  0.00  0.00    -0.303 OA
ATOM     22  H   UNL     1      29.952 -24.755 -12.313  0.00  0.00    +0.222 HD
ENDBRANCH  17  21
ENDBRANCH  16  17
ENDBRANCH   2  16
BRANCH   3  23
ATOM     23  C   UNL     1      35.009 -22.499 -16.585  0.00  0.00    +0.186 C 
BRANCH  23  24
ATOM     24  O   UNL     1      35.303 -22.592 -17.970  0.00  0.00    -0.271 OA
BRANCH  24  25
ATOM     25  P   UNL     1      34.094 -22.402 -19.029  0.00  0.00    +0.473 P 
ATOM     26  O   UNL     1      32.783 -21.984 -18.428  0.00  0.00    -0.227 OA
BRANCH  25  27
ATOM     27  O   UNL     1      34.067 -23.802 -19.837  0.00  0.00    -0.303 OA
ATOM     28  H   UNL     1      33.150 -24.028 -20.062  0.00  0.00    +0.222 HD
ENDBRANCH  25  27
BRANCH  25  29
ATOM     29  O   UNL     1      34.715 -21.364 -20.103  0.00  0.00    -0.303 OA
ATOM     30  H   UNL     1      35.683 -21.397 -20.061  0.00  0.00    +0.222 HD
ENDBRANCH  25  29
ENDBRANCH  24  25
ENDBRANCH  23  24
ENDBRANCH   3  23
TORSDOF 10
ENDMDL
MODEL 7
REMARK VINA RESULT:      -8.0     10.595     14.159
REMARK  Name = 121976
REMARK  10 active torsions:
REMARK  status: ('A' for Active; 'I' for Inactive)
REMARK    1  A    between atoms: C_2  and  O_16
REMARK    2  A    between atoms: C_3  and  C_23
REMARK    3  A    between atoms: C_5  and  N_8
REMARK    4  A    between atoms: O_16  and  P_17
REMARK    5  A    between atoms: P_17  and  O_19
REMARK    6  A    between atoms: P_17  and  O_21
REMARK    7  A    between atoms: C_23  and  O_24
REMARK    8  A    between atoms: O_24  and  P_25
REMARK    9  A    between atoms: P_25  and  O_27
REMARK   10  A    between atoms: P_25  and  O_29
REMARK                            x       y       z     vdW  Elec       q    Type
REMARK                         _______ _______ _______ _____ _____    ______ ____
ROOT
ATOM      1  O   UNL     1      31.969 -13.620 -22.209  0.00  0.00    -0.335 OA
ATOM      2  C   UNL     1      33.495 -13.955 -23.992  0.00  0.00    +0.160 C 
ATOM      3  C   UNL     1      32.971 -14.537 -22.687  0.00  0.00    +0.175 C 
ATOM      4  C   UNL     1      33.313 -12.467 -23.801  0.00  0.00    +0.084 C 
ATOM      5  C   UNL     1      32.052 -12.396 -22.954  0.00  0.00    +0.202 C 
ENDROOT
BRANCH   5   8
ATOM      6  O   UNL     1      32.644  -9.700 -23.654  0.00  0.00    -0.252 OA
ATOM      7  O   UNL     1      32.009  -8.263 -19.333  0.00  0.00    -0.270 OA
ATOM      8  N   UNL     1      32.054 -11.287 -22.046  0.00  0.00    -0.219 N 
ATOM      9  N   UNL     1      32.325  -8.997 -21.495  0.00  0.00    -0.236 N 
ATOM     10  C   UNL     1      31.745 -11.522 -20.713  0.00  0.00    +0.071 C 
ATOM     11  C   UNL     1      32.361  -9.982 -22.488  0.00  0.00    +0.315 C 
ATOM     12  C   UNL     1      31.710 -10.577 -19.765  0.00  0.00    +0.047 C 
ATOM     13  C   UNL     1      32.022  -9.176 -20.153  0.00  0.00    +0.250 C 
ATOM     14  C   UNL     1      31.375 -10.853 -18.335  0.00  0.00    +0.037 C 
ATOM     15  H   UNL     1      32.536  -8.078 -21.779  0.00  0.00    +0.159 HD
ENDBRANCH   5   8
BRANCH   2  16
ATOM     16  O   UNL     1      32.689 -14.402 -25.080  0.00  0.00    -0.273 OA
BRANCH  16  17
ATOM     17  P   UNL     1      33.372 -15.323 -26.226  0.00  0.00    +0.473 P 
ATOM     18  O   UNL     1      34.487 -16.207 -25.745  0.00  0.00    -0.227 OA
BRANCH  17  19
ATOM     19  O   UNL     1      33.780 -14.262 -27.377  0.00  0.00    -0.303 OA
ATOM     20  H   UNL     1      34.718 -14.371 -27.598  0.00  0.00    +0.222 HD
ENDBRANCH  17  19
BRANCH  17  21
ATOM     21  O   UNL     1      32.111 -16.103 -26.869  0.00  0.00    -0.303 OA
ATOM     22  H   UNL     1      31.799 -15.623 -27.652  0.00  0.00    +0.222 HD
ENDBRANCH  17  21
ENDBRANCH  16  17
ENDBRANCH   2  16
BRANCH   3  23
ATOM     23  C   UNL     1      34.048 -14.651 -21.615  0.00  0.00    +0.186 C 
BRANCH  23  24
ATOM     24  O   UNL     1      33.989 -15.948 -21.042  0.00  0.00    -0.271 OA
BRANCH  24  25
ATOM     25  P   UNL     1      34.920 -17.112 -21.673  0.00  0.00    +0.473 P 
ATOM     26  O   UNL     1      35.795 -17.828 -20.686  0.00  0.00    -0.227 OA
BRANCH  25  27
ATOM     27  O   UNL     1      35.702 -16.370 -22.878  0.00  0.00    -0.303 OA
ATOM     28  H   UNL     1      36.444 -15.861 -22.516  0.00  0.00    +0.222 HD
ENDBRANCH  25  27
BRANCH  25  29
ATOM     29  O   UNL     1      33.851 -18.049 -22.443  0.00  0.00    -0.303 OA
ATOM     30  H   UNL     1      34.293 -18.512 -23.172  0.00  0.00    +0.222 HD
ENDBRANCH  25  29
ENDBRANCH  24  25
ENDBRANCH  23  24
ENDBRANCH   3  23
TORSDOF 10
ENDMDL
MODEL 8
REMARK VINA RESULT:      -8.0      2.345      3.362
REMARK  Name = 121976
REMARK  10 active torsions:
REMARK  status: ('A' for Active; 'I' for Inactive)
REMARK    1  A    between atoms: C_2  and  O_16
REMARK    2  A    between atoms: C_3  and  C_23
REMARK    3  A    between atoms: C_5  and  N_8
REMARK    4  A    between atoms: O_16  and  P_17
REMARK    5  A    between atoms: P_17  and  O_19
REMARK    6  A    between atoms: P_17  and  O_21
REMARK    7  A    between atoms: C_23  and  O_24
REMARK    8  A    between atoms: O_24  and  P_25
REMARK    9  A    between atoms: P_25  and  O_27
REMARK   10  A    between atoms: P_25  and  O_29
REMARK                            x       y       z     vdW  Elec       q    Type
REMARK                         _______ _______ _______ _____ _____    ______ ____
ROOT
ATOM      1  O   UNL     1      34.056 -22.816 -14.698  0.00  0.00    -0.335 OA
ATOM      2  C   UNL     1      34.324 -24.443 -12.996  0.00  0.00    +0.160 C 
ATOM      3  C   UNL     1      34.973 -23.820 -14.223  0.00  0.00    +0.175 C 
ATOM      4  C   UNL     1      32.847 -24.292 -13.274  0.00  0.00    +0.084 C 
ATOM      5  C   UNL     1      32.790 -22.982 -14.044  0.00  0.00    +0.202 C 
ENDROOT
BRANCH   5   8
ATOM      6  O   UNL     1      33.145 -23.397 -16.839  0.00  0.00    -0.252 OA
ATOM      7  O   UNL     1      28.653 -22.855 -17.660  0.00  0.00    -0.270 OA
ATOM      8  N   UNL     1      31.743 -22.958 -15.024  0.00  0.00    -0.219 N 
ATOM      9  N   UNL     1      30.902 -23.124 -17.234  0.00  0.00    -0.236 N 
ATOM     10  C   UNL     1      30.444 -22.715 -14.598  0.00  0.00    +0.071 C 
ATOM     11  C   UNL     1      32.018 -23.175 -16.391  0.00  0.00    +0.315 C 
ATOM     12  C   UNL     1      29.378 -22.667 -15.408  0.00  0.00    +0.047 C 
ATOM     13  C   UNL     1      29.587 -22.887 -16.864  0.00  0.00    +0.250 C 
ATOM     14  C   UNL     1      27.987 -22.403 -14.929  0.00  0.00    +0.037 C 
ATOM     15  H   UNL     1      31.069 -23.273 -18.194  0.00  0.00    +0.159 HD
ENDBRANCH   5   8
BRANCH   2  16
ATOM     16  O   UNL     1      34.673 -23.695 -11.831  0.00  0.00    -0.273 OA
BRANCH  16  17
ATOM     17  P   UNL     1      35.983 -24.139 -10.986  0.00  0.00    +0.473 P 
ATOM     18  O   UNL     1      37.110 -23.148 -11.001  0.00  0.00    -0.227 OA
BRANCH  17  19
ATOM     19  O   UNL     1      36.341 -25.602 -11.576  0.00  0.00    -0.303 OA
ATOM     20  H   UNL     1      37.219 -25.869 -11.262  0.00  0.00    +0.222 HD
ENDBRANCH  17  19
BRANCH  17  21
ATOM     21  O   UNL     1      35.379 -24.466  -9.522  0.00  0.00    -0.303 OA
ATOM     22  H   UNL     1      34.516 -24.034  -9.424  0.00  0.00    +0.222 HD
ENDBRANCH  17  21
ENDBRANCH  16  17
ENDBRANCH   2  16
BRANCH   3  23
ATOM     23  C   UNL     1      35.193 -24.822 -15.349  0.00  0.00    +0.186 C 
BRANCH  23  24
ATOM     24  O   UNL     1      36.588 -25.005 -15.534  0.00  0.00    -0.271 OA
BRANCH  24  25
ATOM     25  P   UNL     1      37.230 -26.447 -15.177  0.00  0.00    +0.473 P 
ATOM     26  O   UNL     1      36.861 -26.990 -13.827  0.00  0.00    -0.227 OA
BRANCH  25  27
ATOM     27  O   UNL     1      38.813 -26.237 -15.428  0.00  0.00    -0.303 OA
ATOM     28  H   UNL     1      39.167 -25.627 -14.760  0.00  0.00    +0.222 HD
ENDBRANCH  25  27
BRANCH  25  29
ATOM     29  O   UNL     1      36.773 -27.364 -16.429  0.00  0.00    -0.303 OA
ATOM     30  H   UNL     1      37.547 -27.815 -16.798  0.00  0.00    +0.222 HD
ENDBRANCH  25  29
ENDBRANCH  24  25
ENDBRANCH  23  24
ENDBRANCH   3  23
TORSDOF 10
ENDMDL
MODEL 9
REMARK VINA RESULT:      -7.9      3.216      6.369
REMARK  Name = 121976
REMARK  10 active torsions:
REMARK  status: ('A' for Active; 'I' for Inactive)
REMARK    1  A    between atoms: C_2  and  O_16
REMARK    2  A    between atoms: C_3  and  C_23
REMARK    3  A    between atoms: C_5  and  N_8
REMARK    4  A    between atoms: O_16  and  P_17
REMARK    5  A    between atoms: P_17  and  O_19
REMARK    6  A    between atoms: P_17  and  O_21
REMARK    7  A    between atoms: C_23  and  O_24
REMARK    8  A    between atoms: O_24  and  P_25
REMARK    9  A    between atoms: P_25  and  O_27
REMARK   10  A    between atoms: P_25  and  O_29
REMARK                            x       y       z     vdW  Elec       q    Type
REMARK                         _______ _______ _______ _____ _____    ______ ____
ROOT
ATOM      1  O   UNL     1      34.747 -25.338 -14.989  0.00  0.00    -0.335 OA
ATOM      2  C   UNL     1      33.428 -23.767 -13.801  0.00  0.00    +0.160 C 
ATOM      3  C   UNL     1      33.735 -24.330 -15.180  0.00  0.00    +0.175 C 
ATOM      4  C   UNL     1      34.733 -23.942 -13.060  0.00  0.00    +0.084 C 
ATOM      5  C   UNL     1      35.284 -25.224 -13.663  0.00  0.00    +0.202 C 
ENDROOT
BRANCH   5   8
ATOM      6  O   UNL     1      37.000 -26.556 -11.822  0.00  0.00    -0.252 OA
ATOM      7  O   UNL     1      40.764 -25.169 -14.071  0.00  0.00    -0.270 OA
ATOM      8  N   UNL     1      36.716 -25.238 -13.729  0.00  0.00    -0.219 N 
ATOM      9  N   UNL     1      38.869 -25.857 -12.953  0.00  0.00    -0.236 N 
ATOM     10  C   UNL     1      37.338 -24.553 -14.764  0.00  0.00    +0.071 C 
ATOM     11  C   UNL     1      37.484 -25.928 -12.767  0.00  0.00    +0.315 C 
ATOM     12  C   UNL     1      38.664 -24.487 -14.940  0.00  0.00    +0.047 C 
ATOM     13  C   UNL     1      39.541 -25.190 -13.967  0.00  0.00    +0.250 C 
ATOM     14  C   UNL     1      39.313 -23.744 -16.063  0.00  0.00    +0.037 C 
ATOM     15  H   UNL     1      39.427 -26.331 -12.294  0.00  0.00    +0.159 HD
ENDBRANCH   5   8
BRANCH   2  16
ATOM     16  O   UNL     1      32.411 -24.548 -13.174  0.00  0.00    -0.273 OA
BRANCH  16  17
ATOM     17  P   UNL     1      30.877 -24.361 -13.663  0.00  0.00    +0.473 P 
ATOM     18  O   UNL     1      30.582 -23.050 -14.333  0.00  0.00    -0.227 OA
BRANCH  17  19
ATOM     19  O   UNL     1      30.011 -24.667 -12.331  0.00  0.00    -0.303 OA
ATOM     20  H   UNL     1      30.541 -25.201 -11.718  0.00  0.00    +0.222 HD
ENDBRANCH  17  19
BRANCH  17  21
ATOM     21  O   UNL     1      30.624 -25.669 -14.580  0.00  0.00    -0.303 OA
ATOM     22  H   UNL     1      31.455 -25.932 -15.005  0.00  0.00    +0.222 HD
ENDBRANCH  17  21
ENDBRANCH  16  17
ENDBRANCH   2  16
BRANCH   3  23
ATOM     23  C   UNL     1      34.294 -23.283 -16.136  0.00  0.00    +0.186 C 
BRANCH  23  24
ATOM     24  O   UNL     1      33.347 -23.052 -17.167  0.00  0.00    -0.271 OA
BRANCH  24  25
ATOM     25  P   UNL     1      33.887 -22.574 -18.616  0.00  0.00    +0.473 P 
ATOM     26  O   UNL     1      33.120 -21.441 -19.236  0.00  0.00    -0.227 OA
BRANCH  25  27
ATOM     27  O   UNL     1      33.925 -23.938 -19.482  0.00  0.00    -0.303 OA
ATOM     28  H   UNL     1      33.275 -23.882 -20.201  0.00  0.00    +0.222 HD
ENDBRANCH  25  27
BRANCH  25  29
ATOM     29  O   UNL     1      35.449 -22.267 -18.335  0.00  0.00    -0.303 OA
ATOM     30  H   UNL     1      35.553 -21.343 -18.061  0.00  0.00    +0.222 HD
ENDBRANCH  25  29
ENDBRANCH  24  25
ENDBRANCH  23  24
ENDBRANCH   3  23
TORSDOF 10
ENDMDL
