MODEL 1
REMARK VINA RESULT:      -4.0      0.000      0.000
REMARK  Name = 13195
REMARK  0 active torsions:
REMARK  status: ('A' for Active; 'I' for Inactive)
REMARK                            x       y       z     vdW  Elec       q    Type
REMARK                         _______ _______ _______ _____ _____    ______ ____
ROOT
ATOM      1  N   UNL     1      32.833 -21.868 -19.187  0.00  0.00    -0.319 N 
ATOM      2  N   UNL     1      35.005 -22.241 -18.908  0.00  0.00    -0.315 N 
ATOM      3  C   UNL     1      33.474 -20.903 -19.911  0.00  0.00    +0.038 C 
ATOM      4  C   UNL     1      32.755 -19.876 -20.681  0.00  0.00    +0.048 C 
ATOM      5  C   UNL     1      34.813 -21.154 -19.723  0.00  0.00    +0.069 C 
ATOM      6  C   UNL     1      33.793 -22.648 -18.603  0.00  0.00    +0.182 C 
ATOM      7  H   UNL     1      31.859 -21.982 -19.102  0.00  0.00    +0.148 HD
ATOM      8  H   UNL     1      35.860 -22.631 -18.618  0.00  0.00    +0.148 HD
ENDROOT
TORSDOF 0
ENDMDL
MODEL 2
REMARK VINA RESULT:      -3.9      4.770      5.394
REMARK  Name = 13195
REMARK  0 active torsions:
REMARK  status: ('A' for Active; 'I' for Inactive)
REMARK                            x       y       z     vdW  Elec       q    Type
REMARK                         _______ _______ _______ _____ _____    ______ ____
ROOT
ATOM      1  N   UNL     1      35.376 -17.604 -20.814  0.00  0.00    -0.319 N 
ATOM      2  N   UNL     1      35.826 -17.755 -22.984  0.00  0.00    -0.315 N 
ATOM      3  C   UNL     1      34.912 -16.447 -21.374  0.00  0.00    +0.038 C 
ATOM      4  C   UNL     1      34.262 -15.388 -20.588  0.00  0.00    +0.048 C 
ATOM      5  C   UNL     1      35.201 -16.564 -22.713  0.00  0.00    +0.069 C 
ATOM      6  C   UNL     1      35.916 -18.358 -21.819  0.00  0.00    +0.182 C 
ATOM      7  H   UNL     1      35.330 -17.850 -19.862  0.00  0.00    +0.148 HD
ATOM      8  H   UNL     1      36.137 -18.086 -23.857  0.00  0.00    +0.148 HD
ENDROOT
TORSDOF 0
ENDMDL
MODEL 3
REMARK VINA RESULT:      -3.9      1.494      2.824
REMARK  Name = 13195
REMARK  0 active torsions:
REMARK  status: ('A' for Active; 'I' for Inactive)
REMARK                            x       y       z     vdW  Elec       q    Type
REMARK                         _______ _______ _______ _____ _____    ______ ____
ROOT
ATOM      1  N   UNL     1      34.490 -19.946 -20.661  0.00  0.00    -0.319 N 
ATOM      2  N   UNL     1      32.667 -20.959 -19.898  0.00  0.00    -0.315 N 
ATOM      3  C   UNL     1      34.933 -20.987 -19.894  0.00  0.00    +0.038 C 
ATOM      4  C   UNL     1      36.361 -21.274 -19.692  0.00  0.00    +0.048 C 
ATOM      5  C   UNL     1      33.790 -21.597 -19.434  0.00  0.00    +0.069 C 
ATOM      6  C   UNL     1      33.123 -19.970 -20.634  0.00  0.00    +0.182 C 
ATOM      7  H   UNL     1      35.052 -19.298 -21.145  0.00  0.00    +0.148 HD
ATOM      8  H   UNL     1      31.727 -21.192 -19.720  0.00  0.00    +0.148 HD
ENDROOT
TORSDOF 0
ENDMDL
MODEL 4
REMARK VINA RESULT:      -3.9      3.156      3.842
REMARK  Name = 13195
REMARK  0 active torsions:
REMARK  status: ('A' for Active; 'I' for Inactive)
REMARK                            x       y       z     vdW  Elec       q    Type
REMARK                         _______ _______ _______ _____ _____    ______ ____
ROOT
ATOM      1  N   UNL     1      35.469 -19.292 -20.510  0.00  0.00    -0.319 N 
ATOM      2  N   UNL     1      35.687 -18.570 -22.599  0.00  0.00    -0.315 N 
ATOM      3  C   UNL     1      34.298 -19.607 -21.139  0.00  0.00    +0.038 C 
ATOM      4  C   UNL     1      33.188 -20.290 -20.457  0.00  0.00    +0.048 C 
ATOM      5  C   UNL     1      34.456 -19.152 -22.426  0.00  0.00    +0.069 C 
ATOM      6  C   UNL     1      36.272 -18.671 -21.426  0.00  0.00    +0.182 C 
ATOM      7  H   UNL     1      35.694 -19.478 -19.570  0.00  0.00    +0.148 HD
ATOM      8  H   UNL     1      36.051 -18.167 -23.420  0.00  0.00    +0.148 HD
ENDROOT
TORSDOF 0
ENDMDL
MODEL 5
REMARK VINA RESULT:      -3.8      4.808      5.435
REMARK  Name = 13195
REMARK  0 active torsions:
REMARK  status: ('A' for Active; 'I' for Inactive)
REMARK                            x       y       z     vdW  Elec       q    Type
REMARK                         _______ _______ _______ _____ _____    ______ ____
ROOT
ATOM      1  N   UNL     1      35.903 -17.567 -22.958  0.00  0.00    -0.319 N 
ATOM      2  N   UNL     1      35.497 -18.021 -20.822  0.00  0.00    -0.315 N 
ATOM      3  C   UNL     1      35.096 -16.560 -22.508  0.00  0.00    +0.038 C 
ATOM      4  C   UNL     1      34.653 -15.451 -23.368  0.00  0.00    +0.048 C 
ATOM      5  C   UNL     1      34.859 -16.862 -21.188  0.00  0.00    +0.069 C 
ATOM      6  C   UNL     1      36.116 -18.420 -21.911  0.00  0.00    +0.182 C 
ATOM      7  H   UNL     1      36.264 -17.661 -23.869  0.00  0.00    +0.148 HD
ATOM      8  H   UNL     1      35.492 -18.456 -19.939  0.00  0.00    +0.148 HD
ENDROOT
TORSDOF 0
ENDMDL
MODEL 6
REMARK VINA RESULT:      -3.8     10.757     11.473
REMARK  Name = 13195
REMARK  0 active torsions:
REMARK  status: ('A' for Active; 'I' for Inactive)
REMARK                            x       y       z     vdW  Elec       q    Type
REMARK                         _______ _______ _______ _____ _____    ______ ____
ROOT
ATOM      1  N   UNL     1      41.616 -13.067 -15.255  0.00  0.00    -0.319 N 
ATOM      2  N   UNL     1      40.573 -15.028 -15.289  0.00  0.00    -0.315 N 
ATOM      3  C   UNL     1      41.820 -13.578 -16.506  0.00  0.00    +0.038 C 
ATOM      4  C   UNL     1      42.597 -12.872 -17.536  0.00  0.00    +0.048 C 
ATOM      5  C   UNL     1      41.167 -14.788 -16.503  0.00  0.00    +0.069 C 
ATOM      6  C   UNL     1      40.862 -13.972 -14.561  0.00  0.00    +0.182 C 
ATOM      7  H   UNL     1      41.950 -12.206 -14.916  0.00  0.00    +0.148 HD
ATOM      8  H   UNL     1      40.045 -15.815 -15.024  0.00  0.00    +0.148 HD
ENDROOT
TORSDOF 0
ENDMDL
MODEL 7
REMARK VINA RESULT:      -3.8      1.559      2.303
REMARK  Name = 13195
REMARK  0 active torsions:
REMARK  status: ('A' for Active; 'I' for Inactive)
REMARK                            x       y       z     vdW  Elec       q    Type
REMARK                         _______ _______ _______ _____ _____    ______ ____
ROOT
ATOM      1  N   UNL     1      34.829 -20.752 -20.203  0.00  0.00    -0.319 N 
ATOM      2  N   UNL     1      32.677 -20.971 -19.698  0.00  0.00    -0.315 N 
ATOM      3  C   UNL     1      34.171 -19.818 -20.953  0.00  0.00    +0.038 C 
ATOM      4  C   UNL     1      34.866 -18.907 -21.876  0.00  0.00    +0.048 C 
ATOM      5  C   UNL     1      32.845 -19.972 -20.625  0.00  0.00    +0.069 C 
ATOM      6  C   UNL     1      33.890 -21.420 -19.465  0.00  0.00    +0.182 C 
ATOM      7  H   UNL     1      35.800 -20.915 -20.194  0.00  0.00    +0.148 HD
ATOM      8  H   UNL     1      31.834 -21.281 -19.296  0.00  0.00    +0.148 HD
ENDROOT
TORSDOF 0
ENDMDL
MODEL 8
REMARK VINA RESULT:      -3.8      7.323      8.426
REMARK  Name = 13195
REMARK  0 active torsions:
REMARK  status: ('A' for Active; 'I' for Inactive)
REMARK                            x       y       z     vdW  Elec       q    Type
REMARK                         _______ _______ _______ _____ _____    ______ ____
ROOT
ATOM      1  N   UNL     1      37.951 -25.800 -15.289  0.00  0.00    -0.319 N 
ATOM      2  N   UNL     1      36.558 -26.093 -13.583  0.00  0.00    -0.315 N 
ATOM      3  C   UNL     1      38.727 -25.789 -14.165  0.00  0.00    +0.038 C 
ATOM      4  C   UNL     1      40.187 -25.609 -14.208  0.00  0.00    +0.048 C 
ATOM      5  C   UNL     1      37.846 -25.971 -13.125  0.00  0.00    +0.069 C 
ATOM      6  C   UNL     1      36.656 -25.986 -14.890  0.00  0.00    +0.182 C 
ATOM      7  H   UNL     1      38.265 -25.694 -16.215  0.00  0.00    +0.148 HD
ATOM      8  H   UNL     1      35.742 -26.231 -13.051  0.00  0.00    +0.148 HD
ENDROOT
TORSDOF 0
ENDMDL
MODEL 9
REMARK VINA RESULT:      -3.8     11.812     12.719
REMARK  Name = 13195
REMARK  0 active torsions:
REMARK  status: ('A' for Active; 'I' for Inactive)
REMARK                            x       y       z     vdW  Elec       q    Type
REMARK                         _______ _______ _______ _____ _____    ______ ____
ROOT
ATOM      1  N   UNL     1      32.492  -8.539 -19.499  0.00  0.00    -0.319 N 
ATOM      2  N   UNL     1      32.432  -8.406 -21.715  0.00  0.00    -0.315 N 
ATOM      3  C   UNL     1      31.892  -9.690 -19.927  0.00  0.00    +0.038 C 
ATOM      4  C   UNL     1      31.422 -10.734 -19.003  0.00  0.00    +0.048 C 
ATOM      5  C   UNL     1      31.866  -9.584 -21.298  0.00  0.00    +0.069 C 
ATOM      6  C   UNL     1      32.799  -7.800 -20.608  0.00  0.00    +0.182 C 
ATOM      7  H   UNL     1      32.671  -8.289 -18.564  0.00  0.00    +0.148 HD
ATOM      8  H   UNL     1      32.541  -8.086 -22.639  0.00  0.00    +0.148 HD
ENDROOT
TORSDOF 0
ENDMDL
