MODEL 1
REMARK VINA RESULT:      -8.7      0.000      0.000
REMARK  Name = 5288670
REMARK  12 active torsions:
REMARK  status: ('A' for Active; 'I' for Inactive)
REMARK    1  A    between atoms: C_3  and  C_24
REMARK    2  A    between atoms: C_11  and  C_12
REMARK    3  A    between atoms: C_16  and  O_20
REMARK    4  A    between atoms: C_17  and  O_22
REMARK    5  A    between atoms: C_24  and  O_26
REMARK    6  A    between atoms: O_26  and  C_27
REMARK    7  A    between atoms: C_27  and  C_28
REMARK    8  A    between atoms: C_28  and  C_29
REMARK    9  A    between atoms: C_29  and  C_30
REMARK   10  A    between atoms: C_30  and  O_31
REMARK   11  A    between atoms: C_30  and  C_33
REMARK   12  A    between atoms: C_30  and  C_35
REMARK                            x       y       z     vdW  Elec       q    Type
REMARK                         _______ _______ _______ _____ _____    ______ ____
ROOT
ATOM      1  C   UNL     1      33.910 -15.726 -23.103  0.00  0.00    +0.006 C 
ATOM      2  C   UNL     1      32.954 -14.655 -22.521  0.00  0.00    +0.018 C 
ATOM      3  C   UNL     1      33.637 -16.880 -22.108  0.00  0.00    +0.028 C 
ATOM      4  C   UNL     1      33.254 -14.693 -21.022  0.00  0.00    +0.004 C 
ATOM      5  C   UNL     1      33.555 -16.175 -20.733  0.00  0.00    +0.003 C 
ATOM      6  C   UNL     1      33.483 -16.024 -24.554  0.00  0.00    +0.001 C 
ATOM      7  C   UNL     1      33.004 -13.382 -23.322  0.00  0.00    -0.045 C 
ATOM      8  C   UNL     1      35.399 -15.295 -23.076  0.00  0.00    +0.000 C 
ATOM      9  C   UNL     1      33.463 -14.748 -25.416  0.00  0.00    +0.004 C 
ATOM     10  C   UNL     1      32.662 -13.598 -24.783  0.00  0.00    +0.022 C 
ATOM     11  C   UNL     1      33.305 -12.173 -22.831  0.00  0.00    -0.009 C 
ENDROOT
BRANCH  11  12
ATOM     12  C   UNL     1      33.334 -10.977 -23.636  0.00  0.00    -0.005 C 
ATOM     13  C   UNL     1      32.613  -9.880 -23.352  0.00  0.00    -0.021 C 
ATOM     14  C   UNL     1      32.701  -8.631 -24.192  0.00  0.00    +0.055 C 
ATOM     15  C   UNL     1      31.728  -9.789 -22.193  0.00  0.00    +0.000 C 
ATOM     16  C   UNL     1      32.938  -7.379 -23.344  0.00  0.00    +0.118 C 
ATOM     17  C   UNL     1      31.868  -8.536 -21.358  0.00  0.00    +0.135 C 
ATOM     18  C   UNL     1      31.898  -7.273 -22.223  0.00  0.00    +0.063 C 
ATOM     19  C   UNL     1      30.805 -10.724 -21.910  0.00  0.00    -0.003 C 
BRANCH  16  20
ATOM     20  O   UNL     1      32.846  -6.236 -24.188  0.00  0.00    -0.384 OA
ATOM     21  H   UNL     1      33.738  -5.921 -24.405  0.00  0.00    +0.210 HD
ENDBRANCH  16  20
BRANCH  17  22
ATOM     22  O   UNL     1      33.081  -8.633 -20.610  0.00  0.00    -0.380 OA
ATOM     23  H   UNL     1      33.835  -8.449 -21.190  0.00  0.00    +0.211 HD
ENDBRANCH  17  22
ENDBRANCH  11  12
BRANCH   3  24
ATOM     24  C   UNL     1      34.625 -18.036 -22.122  0.00  0.00    +0.115 C 
ATOM     25  C   UNL     1      35.590 -17.972 -20.949  0.00  0.00    +0.032 C 
BRANCH  24  26
ATOM     26  O   UNL     1      33.907 -19.266 -22.071  0.00  0.00    -0.356 OA
BRANCH  26  27
ATOM     27  C   UNL     1      33.362 -19.495 -20.780  0.00  0.00    +0.142 C 
BRANCH  27  28
ATOM     28  C   UNL     1      33.111 -20.988 -20.609  0.00  0.00    +0.034 C 
BRANCH  28  29
ATOM     29  C   UNL     1      33.153 -21.398 -19.132  0.00  0.00    +0.029 C 
BRANCH  29  30
ATOM     30  C   UNL     1      34.258 -22.422 -18.779  0.00  0.00    +0.088 C 
BRANCH  30  31
ATOM     31  O   UNL     1      34.080 -23.551 -19.646  0.00  0.00    -0.387 OA
ATOM     32  H   UNL     1      34.916 -24.038 -19.721  0.00  0.00    +0.210 HD
ENDBRANCH  30  31
BRANCH  30  33
ATOM     33  C   UNL     1      34.163 -22.956 -17.329  0.00  0.00    +0.027 C 
ATOM     34  C   UNL     1      32.759 -23.276 -16.837  0.00  0.00    +0.002 C 
ENDBRANCH  30  33
BRANCH  30  35
ATOM     35  C   UNL     1      35.668 -21.833 -19.043  0.00  0.00    +0.027 C 
ATOM     36  C   UNL     1      36.593 -21.803 -17.829  0.00  0.00    +0.002 C 
ENDBRANCH  30  35
ENDBRANCH  29  30
ENDBRANCH  28  29
ENDBRANCH  27  28
ENDBRANCH  26  27
ENDBRANCH  24  26
ENDBRANCH   3  24
TORSDOF 12
ENDMDL
MODEL 2
REMARK VINA RESULT:      -8.7      2.507      4.543
REMARK  Name = 5288670
REMARK  12 active torsions:
REMARK  status: ('A' for Active; 'I' for Inactive)
REMARK    1  A    between atoms: C_3  and  C_24
REMARK    2  A    between atoms: C_11  and  C_12
REMARK    3  A    between atoms: C_16  and  O_20
REMARK    4  A    between atoms: C_17  and  O_22
REMARK    5  A    between atoms: C_24  and  O_26
REMARK    6  A    between atoms: O_26  and  C_27
REMARK    7  A    between atoms: C_27  and  C_28
REMARK    8  A    between atoms: C_28  and  C_29
REMARK    9  A    between atoms: C_29  and  C_30
REMARK   10  A    between atoms: C_30  and  O_31
REMARK   11  A    between atoms: C_30  and  C_33
REMARK   12  A    between atoms: C_30  and  C_35
REMARK                            x       y       z     vdW  Elec       q    Type
REMARK                         _______ _______ _______ _____ _____    ______ ____
ROOT
ATOM      1  C   UNL     1      32.850 -13.007 -23.488  0.00  0.00    +0.006 C 
ATOM      2  C   UNL     1      33.518 -11.615 -23.613  0.00  0.00    +0.018 C 
ATOM      3  C   UNL     1      33.879 -13.856 -24.273  0.00  0.00    +0.028 C 
ATOM      4  C   UNL     1      33.870 -11.527 -25.099  0.00  0.00    +0.004 C 
ATOM      5  C   UNL     1      34.248 -12.969 -25.486  0.00  0.00    +0.003 C 
ATOM      6  C   UNL     1      32.740 -13.364 -21.992  0.00  0.00    +0.001 C 
ATOM      7  C   UNL     1      32.712 -10.556 -22.910  0.00  0.00    -0.045 C 
ATOM      8  C   UNL     1      31.446 -13.073 -24.142  0.00  0.00    +0.000 C 
ATOM      9  C   UNL     1      31.970 -12.288 -21.204  0.00  0.00    +0.004 C 
ATOM     10  C   UNL     1      32.499 -10.864 -21.442  0.00  0.00    +0.022 C 
ATOM     11  C   UNL     1      32.229  -9.447 -23.484  0.00  0.00    -0.009 C 
ENDROOT
BRANCH  11  12
ATOM     12  C   UNL     1      31.467  -8.454 -22.769  0.00  0.00    -0.005 C 
ATOM     13  C   UNL     1      31.796  -7.152 -22.741  0.00  0.00    -0.021 C 
ATOM     14  C   UNL     1      30.953  -6.133 -22.018  0.00  0.00    +0.055 C 
ATOM     15  C   UNL     1      32.962  -6.612 -23.438  0.00  0.00    +0.000 C 
ATOM     16  C   UNL     1      30.627  -4.923 -22.896  0.00  0.00    +0.118 C 
ATOM     17  C   UNL     1      32.713  -5.371 -24.265  0.00  0.00    +0.135 C 
ATOM     18  C   UNL     1      31.904  -4.323 -23.495  0.00  0.00    +0.063 C 
ATOM     19  C   UNL     1      34.191  -7.141 -23.313  0.00  0.00    -0.003 C 
BRANCH  16  20
ATOM     20  O   UNL     1      29.972  -3.944 -22.096  0.00  0.00    -0.384 OA
ATOM     21  H   UNL     1      29.011  -4.060 -22.165  0.00  0.00    +0.210 HD
ENDBRANCH  16  20
BRANCH  17  22
ATOM     22  O   UNL     1      32.003  -5.755 -25.443  0.00  0.00    -0.380 OA
ATOM     23  H   UNL     1      32.555  -6.350 -25.974  0.00  0.00    +0.211 HD
ENDBRANCH  17  22
ENDBRANCH  11  12
BRANCH   3  24
ATOM     24  C   UNL     1      33.439 -15.255 -24.675  0.00  0.00    +0.115 C 
ATOM     25  C   UNL     1      33.228 -15.373 -26.177  0.00  0.00    +0.032 C 
BRANCH  24  26
ATOM     26  O   UNL     1      34.430 -16.194 -24.268  0.00  0.00    -0.356 OA
BRANCH  26  27
ATOM     27  C   UNL     1      34.400 -17.363 -25.073  0.00  0.00    +0.142 C 
BRANCH  27  28
ATOM     28  C   UNL     1      34.583 -18.583 -24.178  0.00  0.00    +0.034 C 
BRANCH  28  29
ATOM     29  C   UNL     1      35.553 -18.293 -23.027  0.00  0.00    +0.029 C 
BRANCH  29  30
ATOM     30  C   UNL     1      34.959 -18.504 -21.614  0.00  0.00    +0.088 C 
BRANCH  30  31
ATOM     31  O   UNL     1      36.058 -18.506 -20.690  0.00  0.00    -0.387 OA
ATOM     32  H   UNL     1      35.764 -18.869 -19.840  0.00  0.00    +0.210 HD
ENDBRANCH  30  31
BRANCH  30  33
ATOM     33  C   UNL     1      34.235 -19.861 -21.447  0.00  0.00    +0.027 C 
ATOM     34  C   UNL     1      32.931 -19.819 -20.662  0.00  0.00    +0.002 C 
ENDBRANCH  30  33
BRANCH  30  35
ATOM     35  C   UNL     1      34.012 -17.338 -21.229  0.00  0.00    +0.027 C 
ATOM     36  C   UNL     1      34.712 -16.070 -20.749  0.00  0.00    +0.002 C 
ENDBRANCH  30  35
ENDBRANCH  29  30
ENDBRANCH  28  29
ENDBRANCH  27  28
ENDBRANCH  26  27
ENDBRANCH  24  26
ENDBRANCH   3  24
TORSDOF 12
ENDMDL
MODEL 3
REMARK VINA RESULT:      -8.7      2.536      4.905
REMARK  Name = 5288670
REMARK  12 active torsions:
REMARK  status: ('A' for Active; 'I' for Inactive)
REMARK    1  A    between atoms: C_3  and  C_24
REMARK    2  A    between atoms: C_11  and  C_12
REMARK    3  A    between atoms: C_16  and  O_20
REMARK    4  A    between atoms: C_17  and  O_22
REMARK    5  A    between atoms: C_24  and  O_26
REMARK    6  A    between atoms: O_26  and  C_27
REMARK    7  A    between atoms: C_27  and  C_28
REMARK    8  A    between atoms: C_28  and  C_29
REMARK    9  A    between atoms: C_29  and  C_30
REMARK   10  A    between atoms: C_30  and  O_31
REMARK   11  A    between atoms: C_30  and  C_33
REMARK   12  A    between atoms: C_30  and  C_35
REMARK                            x       y       z     vdW  Elec       q    Type
REMARK                         _______ _______ _______ _____ _____    ______ ____
ROOT
ATOM      1  C   UNL     1      32.449 -12.232 -22.810  0.00  0.00    +0.006 C 
ATOM      2  C   UNL     1      33.228 -10.970 -23.258  0.00  0.00    +0.018 C 
ATOM      3  C   UNL     1      33.494 -13.317 -23.169  0.00  0.00    +0.028 C 
ATOM      4  C   UNL     1      33.748 -11.351 -24.645  0.00  0.00    +0.004 C 
ATOM      5  C   UNL     1      34.058 -12.856 -24.534  0.00  0.00    +0.003 C 
ATOM      6  C   UNL     1      32.150 -12.111 -21.303  0.00  0.00    +0.001 C 
ATOM      7  C   UNL     1      32.431  -9.718 -23.011  0.00  0.00    -0.045 C 
ATOM      8  C   UNL     1      31.125 -12.441 -23.589  0.00  0.00    +0.000 C 
ATOM      9  C   UNL     1      31.379 -10.819 -20.976  0.00  0.00    +0.004 C 
ATOM     10  C   UNL     1      32.035  -9.556 -21.558  0.00  0.00    +0.022 C 
ATOM     11  C   UNL     1      32.097  -8.820 -23.947  0.00  0.00    -0.009 C 
ENDROOT
BRANCH  11  12
ATOM     12  C   UNL     1      31.337  -7.627 -23.663  0.00  0.00    -0.005 C 
ATOM     13  C   UNL     1      31.792  -6.388 -23.905  0.00  0.00    -0.021 C 
ATOM     14  C   UNL     1      30.953  -5.165 -23.635  0.00  0.00    +0.055 C 
ATOM     15  C   UNL     1      33.108  -6.123 -24.484  0.00  0.00    +0.000 C 
ATOM     16  C   UNL     1      30.908  -4.218 -24.837  0.00  0.00    +0.118 C 
ATOM     17  C   UNL     1      33.133  -5.138 -25.630  0.00  0.00    +0.135 C 
ATOM     18  C   UNL     1      32.322  -3.876 -25.318  0.00  0.00    +0.063 C 
ATOM     19  C   UNL     1      34.236  -6.670 -24.000  0.00  0.00    -0.003 C 
BRANCH  16  20
ATOM     20  O   UNL     1      30.236  -3.024 -24.449  0.00  0.00    -0.384 OA
ATOM     21  H   UNL     1      29.277  -3.165 -24.487  0.00  0.00    +0.210 HD
ENDBRANCH  16  20
BRANCH  17  22
ATOM     22  O   UNL     1      32.591  -5.782 -26.784  0.00  0.00    -0.380 OA
ATOM     23  H   UNL     1      33.308  -6.187 -27.295  0.00  0.00    +0.211 HD
ENDBRANCH  17  22
ENDBRANCH  11  12
BRANCH   3  24
ATOM     24  C   UNL     1      32.998 -14.755 -23.189  0.00  0.00    +0.115 C 
ATOM     25  C   UNL     1      33.809 -15.621 -24.140  0.00  0.00    +0.032 C 
BRANCH  24  26
ATOM     26  O   UNL     1      33.084 -15.298 -21.875  0.00  0.00    -0.356 OA
BRANCH  26  27
ATOM     27  C   UNL     1      34.331 -14.992 -21.267  0.00  0.00    +0.142 C 
BRANCH  27  28
ATOM     28  C   UNL     1      34.872 -16.247 -20.593  0.00  0.00    +0.034 C 
BRANCH  28  29
ATOM     29  C   UNL     1      34.138 -17.503 -21.076  0.00  0.00    +0.029 C 
BRANCH  29  30
ATOM     30  C   UNL     1      35.057 -18.712 -21.375  0.00  0.00    +0.088 C 
BRANCH  30  31
ATOM     31  O   UNL     1      36.154 -18.646 -20.452  0.00  0.00    -0.387 OA
ATOM     32  H   UNL     1      36.702 -19.442 -20.543  0.00  0.00    +0.210 HD
ENDBRANCH  30  31
BRANCH  30  33
ATOM     33  C   UNL     1      35.669 -18.684 -22.796  0.00  0.00    +0.027 C 
ATOM     34  C   UNL     1      34.781 -19.230 -23.905  0.00  0.00    +0.002 C 
ENDBRANCH  30  33
BRANCH  30  35
ATOM     35  C   UNL     1      34.311 -20.050 -21.137  0.00  0.00    +0.027 C 
ATOM     36  C   UNL     1      32.863 -19.909 -20.677  0.00  0.00    +0.002 C 
ENDBRANCH  30  35
ENDBRANCH  29  30
ENDBRANCH  28  29
ENDBRANCH  27  28
ENDBRANCH  26  27
ENDBRANCH  24  26
ENDBRANCH   3  24
TORSDOF 12
ENDMDL
MODEL 4
REMARK VINA RESULT:      -7.4      1.904     11.284
REMARK  Name = 5288670
REMARK  12 active torsions:
REMARK  status: ('A' for Active; 'I' for Inactive)
REMARK    1  A    between atoms: C_3  and  C_24
REMARK    2  A    between atoms: C_11  and  C_12
REMARK    3  A    between atoms: C_16  and  O_20
REMARK    4  A    between atoms: C_17  and  O_22
REMARK    5  A    between atoms: C_24  and  O_26
REMARK    6  A    between atoms: O_26  and  C_27
REMARK    7  A    between atoms: C_27  and  C_28
REMARK    8  A    between atoms: C_28  and  C_29
REMARK    9  A    between atoms: C_29  and  C_30
REMARK   10  A    between atoms: C_30  and  O_31
REMARK   11  A    between atoms: C_30  and  C_33
REMARK   12  A    between atoms: C_30  and  C_35
REMARK                            x       y       z     vdW  Elec       q    Type
REMARK                         _______ _______ _______ _____ _____    ______ ____
ROOT
ATOM      1  C   UNL     1      33.227 -13.580 -22.314  0.00  0.00    +0.006 C 
ATOM      2  C   UNL     1      32.765 -14.937 -22.902  0.00  0.00    +0.018 C 
ATOM      3  C   UNL     1      33.038 -12.683 -23.561  0.00  0.00    +0.028 C 
ATOM      4  C   UNL     1      33.510 -15.013 -24.236  0.00  0.00    +0.004 C 
ATOM      5  C   UNL     1      33.555 -13.555 -24.730  0.00  0.00    +0.003 C 
ATOM      6  C   UNL     1      32.307 -13.224 -21.129  0.00  0.00    +0.001 C 
ATOM      7  C   UNL     1      32.836 -16.033 -21.874  0.00  0.00    -0.045 C 
ATOM      8  C   UNL     1      34.704 -13.590 -21.841  0.00  0.00    +0.000 C 
ATOM      9  C   UNL     1      32.295 -14.335 -20.062  0.00  0.00    +0.004 C 
ATOM     10  C   UNL     1      32.010 -15.731 -20.641  0.00  0.00    +0.022 C 
ATOM     11  C   UNL     1      33.535 -17.168 -22.004  0.00  0.00    -0.009 C 
ENDROOT
BRANCH  11  12
ATOM     12  C   UNL     1      33.568 -18.197 -20.994  0.00  0.00    -0.005 C 
ATOM     13  C   UNL     1      34.349 -19.287 -21.078  0.00  0.00    -0.021 C 
ATOM     14  C   UNL     1      34.390 -20.322 -19.983  0.00  0.00    +0.055 C 
ATOM     15  C   UNL     1      35.245 -19.538 -22.204  0.00  0.00    +0.000 C 
ATOM     16  C   UNL     1      35.821 -20.655 -19.556  0.00  0.00    +0.118 C 
ATOM     17  C   UNL     1      36.656 -19.943 -21.841  0.00  0.00    +0.135 C 
ATOM     18  C   UNL     1      36.679 -21.035 -20.767  0.00  0.00    +0.063 C 
ATOM     19  C   UNL     1      34.838 -19.473 -23.483  0.00  0.00    -0.003 C 
BRANCH  16  20
ATOM     20  O   UNL     1      35.779 -21.746 -18.641  0.00  0.00    -0.384 OA
ATOM     21  H   UNL     1      35.154 -21.547 -17.927  0.00  0.00    +0.210 HD
ENDBRANCH  16  20
BRANCH  17  22
ATOM     22  O   UNL     1      37.342 -18.785 -21.361  0.00  0.00    -0.380 OA
ATOM     23  H   UNL     1      38.251 -18.786 -21.698  0.00  0.00    +0.211 HD
ENDBRANCH  17  22
ENDBRANCH  11  12
BRANCH   3  24
ATOM     24  C   UNL     1      33.691 -11.310 -23.513  0.00  0.00    +0.115 C 
ATOM     25  C   UNL     1      34.620 -11.082 -24.696  0.00  0.00    +0.032 C 
BRANCH  24  26
ATOM     26  O   UNL     1      32.678 -10.309 -23.515  0.00  0.00    -0.356 OA
BRANCH  26  27
ATOM     27  C   UNL     1      32.421  -9.827 -22.204  0.00  0.00    +0.142 C 
BRANCH  27  28
ATOM     28  C   UNL     1      31.568  -8.568 -22.301  0.00  0.00    +0.034 C 
BRANCH  28  29
ATOM     29  C   UNL     1      31.600  -7.977 -23.715  0.00  0.00    +0.029 C 
BRANCH  29  30
ATOM     30  C   UNL     1      32.252  -6.577 -23.814  0.00  0.00    +0.088 C 
BRANCH  30  31
ATOM     31  O   UNL     1      32.408  -6.088 -22.473  0.00  0.00    -0.387 OA
ATOM     32  H   UNL     1      32.027  -5.198 -22.407  0.00  0.00    +0.210 HD
ENDBRANCH  30  31
BRANCH  30  33
ATOM     33  C   UNL     1      31.379  -5.542 -24.566  0.00  0.00    +0.027 C 
ATOM     34  C   UNL     1      31.594  -4.089 -24.168  0.00  0.00    +0.002 C 
ENDBRANCH  30  33
BRANCH  30  35
ATOM     35  C   UNL     1      33.659  -6.662 -24.459  0.00  0.00    +0.027 C 
ATOM     36  C   UNL     1      34.713  -7.373 -23.615  0.00  0.00    +0.002 C 
ENDBRANCH  30  35
ENDBRANCH  29  30
ENDBRANCH  28  29
ENDBRANCH  27  28
ENDBRANCH  26  27
ENDBRANCH  24  26
ENDBRANCH   3  24
TORSDOF 12
ENDMDL
MODEL 5
REMARK VINA RESULT:      -7.2      4.090      8.434
REMARK  Name = 5288670
REMARK  12 active torsions:
REMARK  status: ('A' for Active; 'I' for Inactive)
REMARK    1  A    between atoms: C_3  and  C_24
REMARK    2  A    between atoms: C_11  and  C_12
REMARK    3  A    between atoms: C_16  and  O_20
REMARK    4  A    between atoms: C_17  and  O_22
REMARK    5  A    between atoms: C_24  and  O_26
REMARK    6  A    between atoms: O_26  and  C_27
REMARK    7  A    between atoms: C_27  and  C_28
REMARK    8  A    between atoms: C_28  and  C_29
REMARK    9  A    between atoms: C_29  and  C_30
REMARK   10  A    between atoms: C_30  and  O_31
REMARK   11  A    between atoms: C_30  and  C_33
REMARK   12  A    between atoms: C_30  and  C_35
REMARK                            x       y       z     vdW  Elec       q    Type
REMARK                         _______ _______ _______ _____ _____    ______ ____
ROOT
ATOM      1  C   UNL     1      33.312  -8.215 -22.791  0.00  0.00    +0.006 C 
ATOM      2  C   UNL     1      32.799  -7.405 -24.006  0.00  0.00    +0.018 C 
ATOM      3  C   UNL     1      31.992  -8.342 -21.992  0.00  0.00    +0.028 C 
ATOM      4  C   UNL     1      31.980  -6.285 -23.362  0.00  0.00    +0.004 C 
ATOM      5  C   UNL     1      31.338  -6.947 -22.128  0.00  0.00    +0.003 C 
ATOM      6  C   UNL     1      33.878  -9.556 -23.302  0.00  0.00    +0.001 C 
ATOM      7  C   UNL     1      33.905  -7.132 -24.990  0.00  0.00    -0.045 C 
ATOM      8  C   UNL     1      34.399  -7.470 -21.974  0.00  0.00    +0.000 C 
ATOM      9  C   UNL     1      34.981  -9.345 -24.355  0.00  0.00    +0.004 C 
ATOM     10  C   UNL     1      34.563  -8.400 -25.493  0.00  0.00    +0.022 C 
ATOM     11  C   UNL     1      34.286  -5.917 -25.403  0.00  0.00    -0.009 C 
ENDROOT
BRANCH  11  12
ATOM     12  C   UNL     1      35.349  -5.703 -26.355  0.00  0.00    -0.005 C 
ATOM     13  C   UNL     1      35.251  -4.851 -27.389  0.00  0.00    -0.021 C 
ATOM     14  C   UNL     1      36.398  -4.620 -28.340  0.00  0.00    +0.055 C 
ATOM     15  C   UNL     1      34.055  -4.054 -27.652  0.00  0.00    +0.000 C 
ATOM     16  C   UNL     1      36.693  -3.131 -28.539  0.00  0.00    +0.118 C 
ATOM     17  C   UNL     1      34.294  -2.587 -27.928  0.00  0.00    +0.135 C 
ATOM     18  C   UNL     1      35.424  -2.371 -28.939  0.00  0.00    +0.063 C 
ATOM     19  C   UNL     1      32.824  -4.589 -27.705  0.00  0.00    -0.003 C 
BRANCH  16  20
ATOM     20  O   UNL     1      37.671  -2.996 -29.565  0.00  0.00    -0.384 OA
ATOM     21  H   UNL     1      37.272  -2.570 -30.340  0.00  0.00    +0.210 HD
ENDBRANCH  16  20
BRANCH  17  22
ATOM     22  O   UNL     1      34.627  -1.950 -26.694  0.00  0.00    -0.380 OA
ATOM     23  H   UNL     1      35.276  -1.248 -26.857  0.00  0.00    +0.211 HD
ENDBRANCH  17  22
ENDBRANCH  11  12
BRANCH   3  24
ATOM     24  C   UNL     1      32.115  -8.801 -20.547  0.00  0.00    +0.115 C 
ATOM     25  C   UNL     1      31.977  -7.642 -19.571  0.00  0.00    +0.032 C 
BRANCH  24  26
ATOM     26  O   UNL     1      31.102  -9.765 -20.273  0.00  0.00    -0.356 OA
BRANCH  26  27
ATOM     27  C   UNL     1      31.657 -10.969 -19.764  0.00  0.00    +0.142 C 
BRANCH  27  28
ATOM     28  C   UNL     1      31.556 -12.049 -20.835  0.00  0.00    +0.034 C 
BRANCH  28  29
ATOM     29  C   UNL     1      32.413 -13.270 -20.482  0.00  0.00    +0.029 C 
BRANCH  29  30
ATOM     30  C   UNL     1      32.849 -14.124 -21.697  0.00  0.00    +0.088 C 
BRANCH  30  31
ATOM     31  O   UNL     1      32.081 -15.336 -21.659  0.00  0.00    -0.387 OA
ATOM     32  H   UNL     1      31.140 -15.126 -21.767  0.00  0.00    +0.210 HD
ENDBRANCH  30  31
BRANCH  30  33
ATOM     33  C   UNL     1      34.339 -14.540 -21.654  0.00  0.00    +0.027 C 
ATOM     34  C   UNL     1      34.683 -15.654 -20.677  0.00  0.00    +0.002 C 
ENDBRANCH  30  33
BRANCH  30  35
ATOM     35  C   UNL     1      32.532 -13.398 -23.030  0.00  0.00    +0.027 C 
ATOM     36  C   UNL     1      33.665 -13.404 -24.053  0.00  0.00    +0.002 C 
ENDBRANCH  30  35
ENDBRANCH  29  30
ENDBRANCH  28  29
ENDBRANCH  27  28
ENDBRANCH  26  27
ENDBRANCH  24  26
ENDBRANCH   3  24
TORSDOF 12
ENDMDL
MODEL 6
REMARK VINA RESULT:      -7.1      4.359      7.389
REMARK  Name = 5288670
REMARK  12 active torsions:
REMARK  status: ('A' for Active; 'I' for Inactive)
REMARK    1  A    between atoms: C_3  and  C_24
REMARK    2  A    between atoms: C_11  and  C_12
REMARK    3  A    between atoms: C_16  and  O_20
REMARK    4  A    between atoms: C_17  and  O_22
REMARK    5  A    between atoms: C_24  and  O_26
REMARK    6  A    between atoms: O_26  and  C_27
REMARK    7  A    between atoms: C_27  and  C_28
REMARK    8  A    between atoms: C_28  and  C_29
REMARK    9  A    between atoms: C_29  and  C_30
REMARK   10  A    between atoms: C_30  and  O_31
REMARK   11  A    between atoms: C_30  and  C_33
REMARK   12  A    between atoms: C_30  and  C_35
REMARK                            x       y       z     vdW  Elec       q    Type
REMARK                         _______ _______ _______ _____ _____    ______ ____
ROOT
ATOM      1  C   UNL     1      34.612 -21.658 -19.191  0.00  0.00    +0.006 C 
ATOM      2  C   UNL     1      35.221 -20.332 -19.711  0.00  0.00    +0.018 C 
ATOM      3  C   UNL     1      35.399 -21.799 -17.866  0.00  0.00    +0.028 C 
ATOM      4  C   UNL     1      36.725 -20.541 -19.530  0.00  0.00    +0.004 C 
ATOM      5  C   UNL     1      36.840 -21.376 -18.240  0.00  0.00    +0.003 C 
ATOM      6  C   UNL     1      33.094 -21.460 -19.011  0.00  0.00    +0.001 C 
ATOM      7  C   UNL     1      34.615 -19.929 -21.028  0.00  0.00    -0.045 C 
ATOM      8  C   UNL     1      34.871 -22.861 -20.135  0.00  0.00    +0.000 C 
ATOM      9  C   UNL     1      32.420 -20.995 -20.315  0.00  0.00    +0.004 C 
ATOM     10  C   UNL     1      33.109 -19.779 -20.955  0.00  0.00    +0.022 C 
ATOM     11  C   UNL     1      35.301 -19.712 -22.158  0.00  0.00    -0.009 C 
ENDROOT
BRANCH  11  12
ATOM     12  C   UNL     1      34.678 -19.320 -23.398  0.00  0.00    -0.005 C 
ATOM     13  C   UNL     1      34.187 -18.089 -23.619  0.00  0.00    -0.021 C 
ATOM     14  C   UNL     1      33.580 -17.700 -24.943  0.00  0.00    +0.055 C 
ATOM     15  C   UNL     1      34.237 -17.022 -22.621  0.00  0.00    +0.000 C 
ATOM     16  C   UNL     1      34.162 -16.392 -25.483  0.00  0.00    +0.118 C 
ATOM     17  C   UNL     1      34.736 -15.684 -23.118  0.00  0.00    +0.135 C 
ATOM     18  C   UNL     1      34.069 -15.278 -24.435  0.00  0.00    +0.063 C 
ATOM     19  C   UNL     1      33.816 -17.192 -21.356  0.00  0.00    -0.003 C 
BRANCH  16  20
ATOM     20  O   UNL     1      33.428 -16.015 -26.645  0.00  0.00    -0.384 OA
ATOM     21  H   UNL     1      32.486 -15.947 -26.424  0.00  0.00    +0.210 HD
ENDBRANCH  16  20
BRANCH  17  22
ATOM     22  O   UNL     1      36.149 -15.778 -23.306  0.00  0.00    -0.380 OA
ATOM     23  H   UNL     1      36.435 -15.110 -23.948  0.00  0.00    +0.211 HD
ENDBRANCH  17  22
ENDBRANCH  11  12
BRANCH   3  24
ATOM     24  C   UNL     1      35.340 -23.157 -17.183  0.00  0.00    +0.115 C 
ATOM     25  C   UNL     1      36.335 -23.259 -16.037  0.00  0.00    +0.032 C 
BRANCH  24  26
ATOM     26  O   UNL     1      34.024 -23.371 -16.680  0.00  0.00    -0.356 OA
BRANCH  26  27
ATOM     27  C   UNL     1      33.965 -23.159 -15.277  0.00  0.00    +0.142 C 
BRANCH  27  28
ATOM     28  C   UNL     1      32.722 -23.849 -14.727  0.00  0.00    +0.034 C 
BRANCH  28  29
ATOM     29  C   UNL     1      31.534 -22.883 -14.649  0.00  0.00    +0.029 C 
BRANCH  29  30
ATOM     30  C   UNL     1      30.412 -23.156 -15.680  0.00  0.00    +0.088 C 
BRANCH  30  31
ATOM     31  O   UNL     1      30.888 -22.694 -16.953  0.00  0.00    -0.387 OA
ATOM     32  H   UNL     1      30.160 -22.272 -17.436  0.00  0.00    +0.210 HD
ENDBRANCH  30  31
BRANCH  30  33
ATOM     33  C   UNL     1      29.104 -22.384 -15.386  0.00  0.00    +0.027 C 
ATOM     34  C   UNL     1      28.055 -22.423 -16.489  0.00  0.00    +0.002 C 
ENDBRANCH  30  33
BRANCH  30  35
ATOM     35  C   UNL     1      30.124 -24.675 -15.799  0.00  0.00    +0.027 C 
ATOM     36  C   UNL     1      29.311 -25.269 -14.652  0.00  0.00    +0.002 C 
ENDBRANCH  30  35
ENDBRANCH  29  30
ENDBRANCH  28  29
ENDBRANCH  27  28
ENDBRANCH  26  27
ENDBRANCH  24  26
ENDBRANCH   3  24
TORSDOF 12
ENDMDL
MODEL 7
REMARK VINA RESULT:      -6.9      3.921     12.485
REMARK  Name = 5288670
REMARK  12 active torsions:
REMARK  status: ('A' for Active; 'I' for Inactive)
REMARK    1  A    between atoms: C_3  and  C_24
REMARK    2  A    between atoms: C_11  and  C_12
REMARK    3  A    between atoms: C_16  and  O_20
REMARK    4  A    between atoms: C_17  and  O_22
REMARK    5  A    between atoms: C_24  and  O_26
REMARK    6  A    between atoms: O_26  and  C_27
REMARK    7  A    between atoms: C_27  and  C_28
REMARK    8  A    between atoms: C_28  and  C_29
REMARK    9  A    between atoms: C_29  and  C_30
REMARK   10  A    between atoms: C_30  and  O_31
REMARK   11  A    between atoms: C_30  and  C_33
REMARK   12  A    between atoms: C_30  and  C_35
REMARK                            x       y       z     vdW  Elec       q    Type
REMARK                         _______ _______ _______ _____ _____    ______ ____
ROOT
ATOM      1  C   UNL     1      32.611  -8.064 -23.192  0.00  0.00    +0.006 C 
ATOM      2  C   UNL     1      33.082  -9.275 -22.350  0.00  0.00    +0.018 C 
ATOM      3  C   UNL     1      32.206  -7.100 -22.050  0.00  0.00    +0.028 C 
ATOM      4  C   UNL     1      31.958  -9.451 -21.328  0.00  0.00    +0.004 C 
ATOM      5  C   UNL     1      31.491  -8.015 -21.027  0.00  0.00    +0.003 C 
ATOM      6  C   UNL     1      33.797  -7.573 -24.047  0.00  0.00    +0.001 C 
ATOM      7  C   UNL     1      33.558 -10.401 -23.227  0.00  0.00    -0.045 C 
ATOM      8  C   UNL     1      31.407  -8.390 -24.113  0.00  0.00    +0.000 C 
ATOM      9  C   UNL     1      34.366  -8.697 -24.932  0.00  0.00    +0.004 C 
ATOM     10  C   UNL     1      34.684  -9.984 -24.152  0.00  0.00    +0.022 C 
ATOM     11  C   UNL     1      33.071 -11.648 -23.214  0.00  0.00    -0.009 C 
ENDROOT
BRANCH  11  12
ATOM     12  C   UNL     1      33.564 -12.699 -24.069  0.00  0.00    -0.005 C 
ATOM     13  C   UNL     1      34.055 -13.859 -23.603  0.00  0.00    -0.021 C 
ATOM     14  C   UNL     1      34.522 -14.954 -24.528  0.00  0.00    +0.055 C 
ATOM     15  C   UNL     1      34.137 -14.172 -22.178  0.00  0.00    +0.000 C 
ATOM     16  C   UNL     1      33.915 -16.313 -24.169  0.00  0.00    +0.118 C 
ATOM     17  C   UNL     1      33.617 -15.533 -21.776  0.00  0.00    +0.135 C 
ATOM     18  C   UNL     1      34.146 -16.642 -22.691  0.00  0.00    +0.063 C 
ATOM     19  C   UNL     1      34.689 -13.336 -21.283  0.00  0.00    -0.003 C 
BRANCH  16  20
ATOM     20  O   UNL     1      34.526 -17.311 -24.980  0.00  0.00    -0.384 OA
ATOM     21  H   UNL     1      35.485 -17.306 -24.832  0.00  0.00    +0.210 HD
ENDBRANCH  16  20
BRANCH  17  22
ATOM     22  O   UNL     1      32.190 -15.501 -21.838  0.00  0.00    -0.380 OA
ATOM     23  H   UNL     1      31.911 -15.139 -22.693  0.00  0.00    +0.211 HD
ENDBRANCH  17  22
ENDBRANCH  11  12
BRANCH   3  24
ATOM     24  C   UNL     1      31.373  -5.891 -22.447  0.00  0.00    +0.115 C 
ATOM     25  C   UNL     1      30.539  -5.372 -21.286  0.00  0.00    +0.032 C 
BRANCH  24  26
ATOM     26  O   UNL     1      32.239  -4.854 -22.900  0.00  0.00    -0.356 OA
BRANCH  26  27
ATOM     27  C   UNL     1      31.587  -4.003 -23.831  0.00  0.00    +0.142 C 
BRANCH  27  28
ATOM     28  C   UNL     1      31.688  -4.624 -25.220  0.00  0.00    +0.034 C 
BRANCH  28  29
ATOM     29  C   UNL     1      31.929  -3.557 -26.294  0.00  0.00    +0.029 C 
BRANCH  29  30
ATOM     30  C   UNL     1      33.098  -3.868 -27.259  0.00  0.00    +0.088 C 
BRANCH  30  31
ATOM     31  O   UNL     1      33.949  -2.711 -27.278  0.00  0.00    -0.387 OA
ATOM     32  H   UNL     1      34.792  -2.937 -27.700  0.00  0.00    +0.210 HD
ENDBRANCH  30  31
BRANCH  30  33
ATOM     33  C   UNL     1      32.645  -4.109 -28.719  0.00  0.00    +0.027 C 
ATOM     34  C   UNL     1      31.638  -3.109 -29.269  0.00  0.00    +0.002 C 
ENDBRANCH  30  33
BRANCH  30  35
ATOM     35  C   UNL     1      33.935  -5.070 -26.751  0.00  0.00    +0.027 C 
ATOM     36  C   UNL     1      35.416  -5.026 -27.119  0.00  0.00    +0.002 C 
ENDBRANCH  30  35
ENDBRANCH  29  30
ENDBRANCH  28  29
ENDBRANCH  27  28
ENDBRANCH  26  27
ENDBRANCH  24  26
ENDBRANCH   3  24
TORSDOF 12
ENDMDL
MODEL 8
REMARK VINA RESULT:      -6.6      3.662     12.351
REMARK  Name = 5288670
REMARK  12 active torsions:
REMARK  status: ('A' for Active; 'I' for Inactive)
REMARK    1  A    between atoms: C_3  and  C_24
REMARK    2  A    between atoms: C_11  and  C_12
REMARK    3  A    between atoms: C_16  and  O_20
REMARK    4  A    between atoms: C_17  and  O_22
REMARK    5  A    between atoms: C_24  and  O_26
REMARK    6  A    between atoms: O_26  and  C_27
REMARK    7  A    between atoms: C_27  and  C_28
REMARK    8  A    between atoms: C_28  and  C_29
REMARK    9  A    between atoms: C_29  and  C_30
REMARK   10  A    between atoms: C_30  and  O_31
REMARK   11  A    between atoms: C_30  and  C_33
REMARK   12  A    between atoms: C_30  and  C_35
REMARK                            x       y       z     vdW  Elec       q    Type
REMARK                         _______ _______ _______ _____ _____    ______ ____
ROOT
ATOM      1  C   UNL     1      34.788 -21.869 -19.202  0.00  0.00    +0.006 C 
ATOM      2  C   UNL     1      35.900 -22.234 -18.189  0.00  0.00    +0.018 C 
ATOM      3  C   UNL     1      35.660 -21.288 -20.342  0.00  0.00    +0.028 C 
ATOM      4  C   UNL     1      36.773 -20.978 -18.157  0.00  0.00    +0.004 C 
ATOM      5  C   UNL     1      36.729 -20.449 -19.602  0.00  0.00    +0.003 C 
ATOM      6  C   UNL     1      34.027 -23.157 -19.577  0.00  0.00    +0.001 C 
ATOM      7  C   UNL     1      35.325 -22.849 -16.941  0.00  0.00    -0.045 C 
ATOM      8  C   UNL     1      33.789 -20.814 -18.660  0.00  0.00    +0.000 C 
ATOM      9  C   UNL     1      33.457 -23.864 -18.334  0.00  0.00    +0.004 C 
ATOM     10  C   UNL     1      34.502 -24.088 -17.228  0.00  0.00    +0.022 C 
ATOM     11  C   UNL     1      35.507 -22.384 -15.698  0.00  0.00    -0.009 C 
ENDROOT
BRANCH  11  12
ATOM     12  C   UNL     1      34.942 -23.012 -14.529  0.00  0.00    -0.005 C 
ATOM     13  C   UNL     1      35.674 -23.688 -13.629  0.00  0.00    -0.021 C 
ATOM     14  C   UNL     1      35.056 -24.295 -12.395  0.00  0.00    +0.055 C 
ATOM     15  C   UNL     1      37.122 -23.854 -13.745  0.00  0.00    +0.000 C 
ATOM     16  C   UNL     1      35.815 -23.914 -11.121  0.00  0.00    +0.118 C 
ATOM     17  C   UNL     1      37.917 -23.561 -12.493  0.00  0.00    +0.135 C 
ATOM     18  C   UNL     1      37.308 -24.231 -11.258  0.00  0.00    +0.063 C 
ATOM     19  C   UNL     1      37.713 -24.293 -14.869  0.00  0.00    -0.003 C 
BRANCH  16  20
ATOM     20  O   UNL     1      35.270 -24.651 -10.031  0.00  0.00    -0.384 OA
ATOM     21  H   UNL     1      34.474 -24.203  -9.704  0.00  0.00    +0.210 HD
ENDBRANCH  16  20
BRANCH  17  22
ATOM     22  O   UNL     1      37.945 -22.145 -12.305  0.00  0.00    -0.380 OA
ATOM     23  H   UNL     1      37.586 -21.707 -13.092  0.00  0.00    +0.211 HD
ENDBRANCH  17  22
ENDBRANCH  11  12
BRANCH   3  24
ATOM     24  C   UNL     1      34.932 -20.501 -21.420  0.00  0.00    +0.115 C 
ATOM     25  C   UNL     1      33.518 -20.134 -20.997  0.00  0.00    +0.032 C 
BRANCH  24  26
ATOM     26  O   UNL     1      35.659 -19.309 -21.703  0.00  0.00    -0.356 OA
BRANCH  26  27
ATOM     27  C   UNL     1      35.233 -18.718 -22.922  0.00  0.00    +0.142 C 
BRANCH  27  28
ATOM     28  C   UNL     1      35.270 -17.202 -22.773  0.00  0.00    +0.034 C 
BRANCH  28  29
ATOM     29  C   UNL     1      34.679 -16.756 -21.430  0.00  0.00    +0.029 C 
BRANCH  29  30
ATOM     30  C   UNL     1      34.217 -15.279 -21.388  0.00  0.00    +0.088 C 
BRANCH  30  31
ATOM     31  O   UNL     1      35.005 -14.620 -20.385  0.00  0.00    -0.387 OA
ATOM     32  H   UNL     1      35.770 -15.173 -20.160  0.00  0.00    +0.210 HD
ENDBRANCH  30  31
BRANCH  30  33
ATOM     33  C   UNL     1      32.736 -15.108 -20.973  0.00  0.00    +0.027 C 
ATOM     34  C   UNL     1      32.011 -16.388 -20.582  0.00  0.00    +0.002 C 
ENDBRANCH  30  33
BRANCH  30  35
ATOM     35  C   UNL     1      34.481 -14.575 -22.744  0.00  0.00    +0.027 C 
ATOM     36  C   UNL     1      33.231 -14.260 -23.561  0.00  0.00    +0.002 C 
ENDBRANCH  30  35
ENDBRANCH  29  30
ENDBRANCH  28  29
ENDBRANCH  27  28
ENDBRANCH  26  27
ENDBRANCH  24  26
ENDBRANCH   3  24
TORSDOF 12
ENDMDL
MODEL 9
REMARK VINA RESULT:      -6.5      2.077      3.524
REMARK  Name = 5288670
REMARK  12 active torsions:
REMARK  status: ('A' for Active; 'I' for Inactive)
REMARK    1  A    between atoms: C_3  and  C_24
REMARK    2  A    between atoms: C_11  and  C_12
REMARK    3  A    between atoms: C_16  and  O_20
REMARK    4  A    between atoms: C_17  and  O_22
REMARK    5  A    between atoms: C_24  and  O_26
REMARK    6  A    between atoms: O_26  and  C_27
REMARK    7  A    between atoms: C_27  and  C_28
REMARK    8  A    between atoms: C_28  and  C_29
REMARK    9  A    between atoms: C_29  and  C_30
REMARK   10  A    between atoms: C_30  and  O_31
REMARK   11  A    between atoms: C_30  and  C_33
REMARK   12  A    between atoms: C_30  and  C_35
REMARK                            x       y       z     vdW  Elec       q    Type
REMARK                         _______ _______ _______ _____ _____    ______ ____
ROOT
ATOM      1  C   UNL     1      33.090 -12.807 -22.783  0.00  0.00    +0.006 C 
ATOM      2  C   UNL     1      32.131 -11.594 -22.696  0.00  0.00    +0.018 C 
ATOM      3  C   UNL     1      32.307 -13.815 -21.907  0.00  0.00    +0.028 C 
ATOM      4  C   UNL     1      31.822 -11.497 -21.201  0.00  0.00    +0.004 C 
ATOM      5  C   UNL     1      31.794 -12.961 -20.724  0.00  0.00    +0.003 C 
ATOM      6  C   UNL     1      33.222 -13.219 -24.263  0.00  0.00    +0.001 C 
ATOM      7  C   UNL     1      32.650 -10.426 -23.490  0.00  0.00    -0.045 C 
ATOM      8  C   UNL     1      34.496 -12.519 -22.197  0.00  0.00    +0.000 C 
ATOM      9  C   UNL     1      33.701 -12.048 -25.141  0.00  0.00    +0.004 C 
ATOM     10  C   UNL     1      32.874 -10.766 -24.949  0.00  0.00    +0.022 C 
ATOM     11  C   UNL     1      32.892  -9.205 -22.996  0.00  0.00    -0.009 C 
ENDROOT
BRANCH  11  12
ATOM     12  C   UNL     1      33.384  -8.111 -23.797  0.00  0.00    -0.005 C 
ATOM     13  C   UNL     1      32.592  -7.146 -24.292  0.00  0.00    -0.021 C 
ATOM     14  C   UNL     1      33.146  -5.993 -25.090  0.00  0.00    +0.055 C 
ATOM     15  C   UNL     1      31.149  -7.108 -24.065  0.00  0.00    +0.000 C 
ATOM     16  C   UNL     1      32.648  -4.641 -24.575  0.00  0.00    +0.118 C 
ATOM     17  C   UNL     1      30.590  -5.774 -23.623  0.00  0.00    +0.135 C 
ATOM     18  C   UNL     1      31.119  -4.620 -24.480  0.00  0.00    +0.063 C 
ATOM     19  C   UNL     1      30.352  -8.167 -24.287  0.00  0.00    -0.003 C 
BRANCH  16  20
ATOM     20  O   UNL     1      33.083  -3.625 -25.473  0.00  0.00    -0.384 OA
ATOM     21  H   UNL     1      32.821  -2.756 -25.130  0.00  0.00    +0.210 HD
ENDBRANCH  16  20
BRANCH  17  22
ATOM     22  O   UNL     1      30.959  -5.566 -22.259  0.00  0.00    -0.380 OA
ATOM     23  H   UNL     1      30.187  -5.263 -21.758  0.00  0.00    +0.211 HD
ENDBRANCH  17  22
ENDBRANCH  11  12
BRANCH   3  24
ATOM     24  C   UNL     1      33.066 -15.055 -21.458  0.00  0.00    +0.115 C 
ATOM     25  C   UNL     1      32.216 -15.948 -20.568  0.00  0.00    +0.032 C 
BRANCH  24  26
ATOM     26  O   UNL     1      33.479 -15.793 -22.604  0.00  0.00    -0.356 OA
BRANCH  26  27
ATOM     27  C   UNL     1      34.819 -16.244 -22.476  0.00  0.00    +0.142 C 
BRANCH  27  28
ATOM     28  C   UNL     1      34.983 -16.924 -21.122  0.00  0.00    +0.034 C 
BRANCH  28  29
ATOM     29  C   UNL     1      35.783 -18.226 -21.242  0.00  0.00    +0.029 C 
BRANCH  29  30
ATOM     30  C   UNL     1      34.921 -19.497 -21.430  0.00  0.00    +0.088 C 
BRANCH  30  31
ATOM     31  O   UNL     1      34.833 -19.742 -22.841  0.00  0.00    -0.387 OA
ATOM     32  H   UNL     1      34.089 -19.242 -23.211  0.00  0.00    +0.210 HD
ENDBRANCH  30  31
BRANCH  30  33
ATOM     33  C   UNL     1      33.470 -19.339 -20.915  0.00  0.00    +0.027 C 
ATOM     34  C   UNL     1      32.939 -20.494 -20.078  0.00  0.00    +0.002 C 
ENDBRANCH  30  33
BRANCH  30  35
ATOM     35  C   UNL     1      35.593 -20.728 -20.770  0.00  0.00    +0.027 C 
ATOM     36  C   UNL     1      36.768 -20.406 -19.850  0.00  0.00    +0.002 C 
ENDBRANCH  30  35
ENDBRANCH  29  30
ENDBRANCH  28  29
ENDBRANCH  27  28
ENDBRANCH  26  27
ENDBRANCH  24  26
ENDBRANCH   3  24
TORSDOF 12
ENDMDL
