MODEL 1
REMARK VINA RESULT:      -5.4      0.000      0.000
REMARK  Name = 2734707
REMARK  2 active torsions:
REMARK  status: ('A' for Active; 'I' for Inactive)
REMARK    1  A    between atoms: C_3  and  C_7
REMARK    2  A    between atoms: C_7  and  O_8
REMARK                            x       y       z     vdW  Elec       q    Type
REMARK                         _______ _______ _______ _____ _____    ______ ____
ROOT
ATOM      1  O   UNL     1      38.734 -26.138 -13.027  0.00  0.00    -0.345 OA
ATOM      2  C   UNL     1      38.216 -24.773 -14.902  0.00  0.00    +0.044 C 
ATOM      3  C   UNL     1      39.318 -25.232 -13.967  0.00  0.00    +0.213 C 
ATOM      4  C   UNL     1      37.231 -25.915 -14.833  0.00  0.00    +0.035 C 
ATOM      5  C   UNL     1      37.366 -26.359 -13.395  0.00  0.00    +0.143 C 
ENDROOT
BRANCH   3   7
ATOM      6  O   UNL     1      41.199 -26.698 -14.091  0.00  0.00    -0.248 OA
ATOM      7  C   UNL     1      40.392 -25.993 -14.679  0.00  0.00    +0.341 C 
BRANCH   7   8
ATOM      8  O   UNL     1      40.355 -25.807 -16.019  0.00  0.00    -0.479 OA
ATOM      9  H   UNL     1      40.250 -24.944 -16.370  0.00  0.00    +0.295 HD
ENDBRANCH   7   8
ENDBRANCH   3   7
TORSDOF 2
ENDMDL
MODEL 2
REMARK VINA RESULT:      -5.2      1.312      1.575
REMARK  Name = 2734707
REMARK  2 active torsions:
REMARK  status: ('A' for Active; 'I' for Inactive)
REMARK    1  A    between atoms: C_3  and  C_7
REMARK    2  A    between atoms: C_7  and  O_8
REMARK                            x       y       z     vdW  Elec       q    Type
REMARK                         _______ _______ _______ _____ _____    ______ ____
ROOT
ATOM      1  O   UNL     1      38.463 -24.005 -13.756  0.00  0.00    -0.345 OA
ATOM      2  C   UNL     1      37.774 -26.127 -14.573  0.00  0.00    +0.044 C 
ATOM      3  C   UNL     1      38.618 -24.900 -14.861  0.00  0.00    +0.213 C 
ATOM      4  C   UNL     1      37.702 -26.130 -13.066  0.00  0.00    +0.035 C 
ATOM      5  C   UNL     1      37.671 -24.652 -12.751  0.00  0.00    +0.143 C 
ENDROOT
BRANCH   3   7
ATOM      6  O   UNL     1      40.884 -24.842 -14.110  0.00  0.00    -0.248 OA
ATOM      7  C   UNL     1      40.078 -25.217 -14.949  0.00  0.00    +0.341 C 
BRANCH   7   8
ATOM      8  O   UNL     1      40.381 -25.952 -16.044  0.00  0.00    -0.479 OA
ATOM      9  H   UNL     1      41.040 -26.616 -15.996  0.00  0.00    +0.295 HD
ENDBRANCH   7   8
ENDBRANCH   3   7
TORSDOF 2
ENDMDL
MODEL 3
REMARK VINA RESULT:      -5.0      9.555     10.803
REMARK  Name = 2734707
REMARK  2 active torsions:
REMARK  status: ('A' for Active; 'I' for Inactive)
REMARK    1  A    between atoms: C_3  and  C_7
REMARK    2  A    between atoms: C_7  and  O_8
REMARK                            x       y       z     vdW  Elec       q    Type
REMARK                         _______ _______ _______ _____ _____    ______ ____
ROOT
ATOM      1  O   UNL     1      29.374 -22.455 -14.981  0.00  0.00    -0.345 OA
ATOM      2  C   UNL     1      29.638 -24.700 -15.714  0.00  0.00    +0.044 C 
ATOM      3  C   UNL     1      28.661 -23.549 -15.563  0.00  0.00    +0.213 C 
ATOM      4  C   UNL     1      30.968 -23.992 -15.799  0.00  0.00    +0.035 C 
ATOM      5  C   UNL     1      30.757 -22.817 -14.872  0.00  0.00    +0.143 C 
ENDROOT
BRANCH   3   7
ATOM      6  O   UNL     1      28.151 -21.884 -17.196  0.00  0.00    -0.248 OA
ATOM      7  C   UNL     1      28.141 -23.064 -16.879  0.00  0.00    +0.341 C 
BRANCH   7   8
ATOM      8  O   UNL     1      27.672 -24.072 -17.652  0.00  0.00    -0.479 OA
ATOM      9  H   UNL     1      27.737 -24.959 -17.357  0.00  0.00    +0.295 HD
ENDBRANCH   7   8
ENDBRANCH   3   7
TORSDOF 2
ENDMDL
MODEL 4
REMARK VINA RESULT:      -4.9      3.270      4.419
REMARK  Name = 2734707
REMARK  2 active torsions:
REMARK  status: ('A' for Active; 'I' for Inactive)
REMARK    1  A    between atoms: C_3  and  C_7
REMARK    2  A    between atoms: C_7  and  O_8
REMARK                            x       y       z     vdW  Elec       q    Type
REMARK                         _______ _______ _______ _____ _____    ______ ____
ROOT
ATOM      1  O   UNL     1      36.334 -25.633 -12.030  0.00  0.00    -0.345 OA
ATOM      2  C   UNL     1      37.440 -23.971 -13.319  0.00  0.00    +0.044 C 
ATOM      3  C   UNL     1      36.351 -24.228 -12.295  0.00  0.00    +0.213 C 
ATOM      4  C   UNL     1      38.378 -25.132 -13.098  0.00  0.00    +0.035 C 
ATOM      5  C   UNL     1      37.421 -26.245 -12.737  0.00  0.00    +0.143 C 
ENDROOT
BRANCH   3   7
ATOM      6  O   UNL     1      36.260 -24.018  -9.918  0.00  0.00    -0.248 OA
ATOM      7  C   UNL     1      36.625 -23.553 -10.987  0.00  0.00    +0.341 C 
BRANCH   7   8
ATOM      8  O   UNL     1      37.312 -22.396 -11.138  0.00  0.00    -0.479 OA
ATOM      9  H   UNL     1      36.893 -21.648 -11.518  0.00  0.00    +0.295 HD
ENDBRANCH   7   8
ENDBRANCH   3   7
TORSDOF 2
ENDMDL
MODEL 5
REMARK VINA RESULT:      -4.9     10.998     11.882
REMARK  Name = 2734707
REMARK  2 active torsions:
REMARK  status: ('A' for Active; 'I' for Inactive)
REMARK    1  A    between atoms: C_3  and  C_7
REMARK    2  A    between atoms: C_7  and  O_8
REMARK                            x       y       z     vdW  Elec       q    Type
REMARK                         _______ _______ _______ _____ _____    ______ ____
ROOT
ATOM      1  O   UNL     1      43.010 -14.871 -16.149  0.00  0.00    -0.345 OA
ATOM      2  C   UNL     1      41.230 -14.496 -17.678  0.00  0.00    +0.044 C 
ATOM      3  C   UNL     1      41.763 -15.413 -16.594  0.00  0.00    +0.213 C 
ATOM      4  C   UNL     1      41.878 -13.176 -17.339  0.00  0.00    +0.035 C 
ATOM      5  C   UNL     1      43.223 -13.615 -16.806  0.00  0.00    +0.143 C 
ENDROOT
BRANCH   3   7
ATOM      6  O   UNL     1      40.965 -14.667 -14.471  0.00  0.00    -0.248 OA
ATOM      7  C   UNL     1      40.869 -15.461 -15.395  0.00  0.00    +0.341 C 
BRANCH   7   8
ATOM      8  O   UNL     1      39.966 -16.468 -15.464  0.00  0.00    -0.479 OA
ATOM      9  H   UNL     1      39.522 -16.754 -14.690  0.00  0.00    +0.295 HD
ENDBRANCH   7   8
ENDBRANCH   3   7
TORSDOF 2
ENDMDL
MODEL 6
REMARK VINA RESULT:      -4.8      2.408      3.153
REMARK  Name = 2734707
REMARK  2 active torsions:
REMARK  status: ('A' for Active; 'I' for Inactive)
REMARK    1  A    between atoms: C_3  and  C_7
REMARK    2  A    between atoms: C_7  and  O_8
REMARK                            x       y       z     vdW  Elec       q    Type
REMARK                         _______ _______ _______ _____ _____    ______ ____
ROOT
ATOM      1  O   UNL     1      35.711 -25.036 -15.470  0.00  0.00    -0.345 OA
ATOM      2  C   UNL     1      37.423 -24.503 -13.911  0.00  0.00    +0.044 C 
ATOM      3  C   UNL     1      36.533 -25.607 -14.449  0.00  0.00    +0.213 C 
ATOM      4  C   UNL     1      37.497 -23.545 -15.075  0.00  0.00    +0.035 C 
ATOM      5  C   UNL     1      36.118 -23.677 -15.678  0.00  0.00    +0.143 C 
ENDROOT
BRANCH   3   7
ATOM      6  O   UNL     1      38.358 -27.136 -14.631  0.00  0.00    -0.248 OA
ATOM      7  C   UNL     1      37.315 -26.705 -15.099  0.00  0.00    +0.341 C 
BRANCH   7   8
ATOM      8  O   UNL     1      36.732 -27.148 -16.238  0.00  0.00    -0.479 OA
ATOM      9  H   UNL     1      36.819 -28.047 -16.490  0.00  0.00    +0.295 HD
ENDBRANCH   7   8
ENDBRANCH   3   7
TORSDOF 2
ENDMDL
MODEL 7
REMARK VINA RESULT:      -4.8      2.303      3.698
REMARK  Name = 2734707
REMARK  2 active torsions:
REMARK  status: ('A' for Active; 'I' for Inactive)
REMARK    1  A    between atoms: C_3  and  C_7
REMARK    2  A    between atoms: C_7  and  O_8
REMARK                            x       y       z     vdW  Elec       q    Type
REMARK                         _______ _______ _______ _____ _____    ______ ____
ROOT
ATOM      1  O   UNL     1      38.706 -24.391 -13.788  0.00  0.00    -0.345 OA
ATOM      2  C   UNL     1      37.164 -25.967 -12.902  0.00  0.00    +0.044 C 
ATOM      3  C   UNL     1      38.299 -25.018 -12.569  0.00  0.00    +0.213 C 
ATOM      4  C   UNL     1      36.584 -25.357 -14.156  0.00  0.00    +0.035 C 
ATOM      5  C   UNL     1      37.817 -24.804 -14.834  0.00  0.00    +0.143 C 
ENDROOT
BRANCH   3   7
ATOM      6  O   UNL     1      38.369 -22.802 -11.684  0.00  0.00    -0.248 OA
ATOM      7  C   UNL     1      37.874 -23.918 -11.648  0.00  0.00    +0.341 C 
BRANCH   7   8
ATOM      8  O   UNL     1      36.897 -24.308 -10.795  0.00  0.00    -0.479 OA
ATOM      9  H   UNL     1      36.346 -25.034 -11.014  0.00  0.00    +0.295 HD
ENDBRANCH   7   8
ENDBRANCH   3   7
TORSDOF 2
ENDMDL
MODEL 8
REMARK VINA RESULT:      -4.7      3.541      4.813
REMARK  Name = 2734707
REMARK  2 active torsions:
REMARK  status: ('A' for Active; 'I' for Inactive)
REMARK    1  A    between atoms: C_3  and  C_7
REMARK    2  A    between atoms: C_7  and  O_8
REMARK                            x       y       z     vdW  Elec       q    Type
REMARK                         _______ _______ _______ _____ _____    ______ ____
ROOT
ATOM      1  O   UNL     1      36.263 -23.372 -13.391  0.00  0.00    -0.345 OA
ATOM      2  C   UNL     1      37.863 -24.151 -11.816  0.00  0.00    +0.044 C 
ATOM      3  C   UNL     1      36.471 -23.576 -11.990  0.00  0.00    +0.213 C 
ATOM      4  C   UNL     1      38.110 -24.821 -13.147  0.00  0.00    +0.035 C 
ATOM      5  C   UNL     1      37.393 -23.894 -14.102  0.00  0.00    +0.143 C 
ENDROOT
BRANCH   3   7
ATOM      6  O   UNL     1      35.420 -25.055 -10.438  0.00  0.00    -0.248 OA
ATOM      7  C   UNL     1      35.402 -24.519 -11.536  0.00  0.00    +0.341 C 
BRANCH   7   8
ATOM      8  O   UNL     1      34.438 -24.696 -12.470  0.00  0.00    -0.479 OA
ATOM      9  H   UNL     1      33.772 -25.342 -12.341  0.00  0.00    +0.295 HD
ENDBRANCH   7   8
ENDBRANCH   3   7
TORSDOF 2
ENDMDL
MODEL 9
REMARK VINA RESULT:      -4.6      9.248     10.407
REMARK  Name = 2734707
REMARK  2 active torsions:
REMARK  status: ('A' for Active; 'I' for Inactive)
REMARK    1  A    between atoms: C_3  and  C_7
REMARK    2  A    between atoms: C_7  and  O_8
REMARK                            x       y       z     vdW  Elec       q    Type
REMARK                         _______ _______ _______ _____ _____    ______ ____
ROOT
ATOM      1  O   UNL     1      29.938 -25.027 -16.128  0.00  0.00    -0.345 OA
ATOM      2  C   UNL     1      30.462 -22.901 -15.204  0.00  0.00    +0.044 C 
ATOM      3  C   UNL     1      29.981 -23.632 -16.443  0.00  0.00    +0.213 C 
ATOM      4  C   UNL     1      30.058 -23.839 -14.093  0.00  0.00    +0.035 C 
ATOM      5  C   UNL     1      30.250 -25.192 -14.739  0.00  0.00    +0.143 C 
ENDROOT
BRANCH   3   7
ATOM      6  O   UNL     1      27.797 -24.034 -17.322  0.00  0.00    -0.248 OA
ATOM      7  C   UNL     1      28.589 -23.243 -16.832  0.00  0.00    +0.341 C 
BRANCH   7   8
ATOM      8  O   UNL     1      28.328 -21.939 -16.578  0.00  0.00    -0.479 OA
ATOM      9  H   UNL     1      29.025 -21.358 -16.344  0.00  0.00    +0.295 HD
ENDBRANCH   7   8
ENDBRANCH   3   7
TORSDOF 2
ENDMDL
