MODEL 1
REMARK VINA RESULT:      -9.9      0.000      0.000
REMARK  Name = 60817
REMARK  2 active torsions:
REMARK  status: ('A' for Active; 'I' for Inactive)
REMARK    1  A    between atoms: C_6  and  C_16
REMARK    2  A    between atoms: C_16  and  C_18
REMARK                            x       y       z     vdW  Elec       q    Type
REMARK                         _______ _______ _______ _____ _____    ______ ____
ROOT
ATOM      1  O   UNL     1      33.167 -15.977 -26.558  0.00  0.00    -0.208 OA
ATOM      2  N   UNL     1      34.400 -18.262 -25.095  0.00  0.00    -0.301 N 
ATOM      3  N   UNL     1      34.796 -15.648 -22.832  0.00  0.00    -0.274 N 
ATOM      4  N   UNL     1      33.680 -14.661 -24.736  0.00  0.00    -0.301 NA
ATOM      5  N   UNL     1      34.248 -13.414 -22.835  0.00  0.00    -0.320 N 
ATOM      6  C   UNL     1      35.295 -18.086 -23.053  0.00  0.00    +0.012 C 
ATOM      7  C   UNL     1      34.800 -16.836 -23.460  0.00  0.00    +0.075 C 
ATOM      8  C   UNL     1      34.253 -16.954 -24.714  0.00  0.00    +0.158 C 
ATOM      9  C   UNL     1      35.032 -18.958 -24.091  0.00  0.00    +0.060 C 
ATOM     10  C   UNL     1      33.652 -15.862 -25.439  0.00  0.00    +0.222 C 
ATOM     11  C   UNL     1      34.215 -14.596 -23.536  0.00  0.00    +0.248 C 
ATOM     12  H   UNL     1      34.100 -18.643 -25.952  0.00  0.00    +0.153 HD
ATOM     13  H   UNL     1      35.179 -15.530 -21.933  0.00  0.00    +0.156 HD
ATOM     14  H   UNL     1      34.653 -13.385 -21.938  0.00  0.00    +0.146 HD
ATOM     15  H   UNL     1      33.867 -12.597 -23.231  0.00  0.00    +0.146 HD
ENDROOT
BRANCH   6  16
ATOM     16  C   UNL     1      35.961 -18.418 -21.779  0.00  0.00    +0.057 C 
BRANCH  16  18
ATOM     17  N   UNL     1      34.912 -21.401 -19.730  0.00  0.00    -0.243 NA
ATOM     18  C   UNL     1      35.079 -19.414 -21.053  0.00  0.00    +0.001 C 
ATOM     19  C   UNL     1      33.712 -19.252 -21.056  0.00  0.00    -0.001 C 
ATOM     20  C   UNL     1      35.641 -20.477 -20.394  0.00  0.00    +0.095 C 
ATOM     21  C   UNL     1      32.928 -20.183 -20.382  0.00  0.00    +0.020 C 
ATOM     22  C   UNL     1      33.571 -21.230 -19.740  0.00  0.00    +0.099 C 
ENDBRANCH  16  18
ENDBRANCH   6  16
TORSDOF 2
ENDMDL
MODEL 2
REMARK VINA RESULT:      -9.4      2.944      6.643
REMARK  Name = 60817
REMARK  2 active torsions:
REMARK  status: ('A' for Active; 'I' for Inactive)
REMARK    1  A    between atoms: C_6  and  C_16
REMARK    2  A    between atoms: C_16  and  C_18
REMARK                            x       y       z     vdW  Elec       q    Type
REMARK                         _______ _______ _______ _____ _____    ______ ____
ROOT
ATOM      1  O   UNL     1      32.550 -22.612 -18.496  0.00  0.00    -0.208 OA
ATOM      2  N   UNL     1      32.866 -20.553 -20.627  0.00  0.00    -0.301 N 
ATOM      3  N   UNL     1      36.119 -20.869 -19.429  0.00  0.00    -0.274 N 
ATOM      4  N   UNL     1      34.814 -22.417 -18.107  0.00  0.00    -0.301 NA
ATOM      5  N   UNL     1      37.119 -22.140 -17.794  0.00  0.00    -0.320 N 
ATOM      6  C   UNL     1      34.820 -19.594 -21.142  0.00  0.00    +0.012 C 
ATOM      7  C   UNL     1      35.008 -20.518 -20.099  0.00  0.00    +0.075 C 
ATOM      8  C   UNL     1      33.803 -21.101 -19.791  0.00  0.00    +0.158 C 
ATOM      9  C   UNL     1      33.475 -19.636 -21.452  0.00  0.00    +0.060 C 
ATOM     10  C   UNL     1      33.629 -22.098 -18.765  0.00  0.00    +0.222 C 
ATOM     11  C   UNL     1      35.945 -21.831 -18.438  0.00  0.00    +0.248 C 
ATOM     12  H   UNL     1      31.908 -20.781 -20.636  0.00  0.00    +0.153 HD
ATOM     13  H   UNL     1      36.997 -20.470 -19.626  0.00  0.00    +0.156 HD
ATOM     14  H   UNL     1      37.956 -21.691 -18.055  0.00  0.00    +0.146 HD
ATOM     15  H   UNL     1      37.123 -22.808 -17.072  0.00  0.00    +0.146 HD
ENDROOT
BRANCH   6  16
ATOM     16  C   UNL     1      35.841 -18.745 -21.785  0.00  0.00    +0.057 C 
BRANCH  16  18
ATOM     17  N   UNL     1      34.621 -15.489 -23.236  0.00  0.00    -0.243 NA
ATOM     18  C   UNL     1      35.274 -17.343 -21.870  0.00  0.00    +0.001 C 
ATOM     19  C   UNL     1      34.915 -16.675 -20.721  0.00  0.00    -0.001 C 
ATOM     20  C   UNL     1      35.119 -16.737 -23.091  0.00  0.00    +0.095 C 
ATOM     21  C   UNL     1      34.398 -15.388 -20.830  0.00  0.00    +0.020 C 
ATOM     22  C   UNL     1      34.272 -14.845 -22.099  0.00  0.00    +0.099 C 
ENDBRANCH  16  18
ENDBRANCH   6  16
TORSDOF 2
ENDMDL
MODEL 3
REMARK VINA RESULT:      -9.1      1.846      2.682
REMARK  Name = 60817
REMARK  2 active torsions:
REMARK  status: ('A' for Active; 'I' for Inactive)
REMARK    1  A    between atoms: C_6  and  C_16
REMARK    2  A    between atoms: C_16  and  C_18
REMARK                            x       y       z     vdW  Elec       q    Type
REMARK                         _______ _______ _______ _____ _____    ______ ____
ROOT
ATOM      1  O   UNL     1      32.361 -12.828 -22.320  0.00  0.00    -0.208 OA
ATOM      2  N   UNL     1      33.970 -14.927 -20.947  0.00  0.00    -0.301 N 
ATOM      3  N   UNL     1      34.113 -15.955 -24.269  0.00  0.00    -0.274 N 
ATOM      4  N   UNL     1      32.776 -13.940 -24.296  0.00  0.00    -0.301 NA
ATOM      5  N   UNL     1      33.257 -15.148 -26.245  0.00  0.00    -0.320 N 
ATOM      6  C   UNL     1      34.932 -16.643 -22.011  0.00  0.00    +0.012 C 
ATOM      7  C   UNL     1      34.249 -15.836 -22.937  0.00  0.00    +0.075 C 
ATOM      8  C   UNL     1      33.663 -14.786 -22.275  0.00  0.00    +0.158 C 
ATOM      9  C   UNL     1      34.742 -16.053 -20.777  0.00  0.00    +0.060 C 
ATOM     10  C   UNL     1      32.881 -13.761 -22.920  0.00  0.00    +0.222 C 
ATOM     11  C   UNL     1      33.356 -14.963 -24.887  0.00  0.00    +0.248 C 
ATOM     12  H   UNL     1      33.684 -14.317 -20.228  0.00  0.00    +0.153 HD
ATOM     13  H   UNL     1      34.521 -16.695 -24.773  0.00  0.00    +0.156 HD
ATOM     14  H   UNL     1      33.697 -15.920 -26.670  0.00  0.00    +0.146 HD
ATOM     15  H   UNL     1      32.745 -14.510 -26.793  0.00  0.00    +0.146 HD
ENDROOT
BRANCH   6  16
ATOM     16  C   UNL     1      35.700 -17.873 -22.284  0.00  0.00    +0.057 C 
BRANCH  16  18
ATOM     17  N   UNL     1      35.483 -20.713 -19.818  0.00  0.00    -0.243 NA
ATOM     18  C   UNL     1      35.118 -18.971 -21.418  0.00  0.00    +0.001 C 
ATOM     19  C   UNL     1      33.764 -19.220 -21.440  0.00  0.00    -0.001 C 
ATOM     20  C   UNL     1      35.938 -19.719 -20.612  0.00  0.00    +0.095 C 
ATOM     21  C   UNL     1      33.258 -20.235 -20.634  0.00  0.00    +0.020 C 
ATOM     22  C   UNL     1      34.152 -20.946 -19.849  0.00  0.00    +0.099 C 
ENDBRANCH  16  18
ENDBRANCH   6  16
TORSDOF 2
ENDMDL
MODEL 4
REMARK VINA RESULT:      -8.9      3.167      6.760
REMARK  Name = 60817
REMARK  2 active torsions:
REMARK  status: ('A' for Active; 'I' for Inactive)
REMARK    1  A    between atoms: C_6  and  C_16
REMARK    2  A    between atoms: C_16  and  C_18
REMARK                            x       y       z     vdW  Elec       q    Type
REMARK                         _______ _______ _______ _____ _____    ______ ____
ROOT
ATOM      1  O   UNL     1      37.189 -21.894 -17.707  0.00  0.00    -0.208 OA
ATOM      2  N   UNL     1      37.166 -19.983 -19.994  0.00  0.00    -0.301 N 
ATOM      3  N   UNL     1      33.898 -21.181 -20.010  0.00  0.00    -0.274 N 
ATOM      4  N   UNL     1      34.973 -22.327 -18.172  0.00  0.00    -0.301 NA
ATOM      5  N   UNL     1      32.727 -22.692 -18.732  0.00  0.00    -0.320 N 
ATOM      6  C   UNL     1      35.365 -19.589 -21.259  0.00  0.00    +0.012 C 
ATOM      7  C   UNL     1      35.049 -20.536 -20.271  0.00  0.00    +0.075 C 
ATOM      8  C   UNL     1      36.160 -20.771 -19.499  0.00  0.00    +0.158 C 
ATOM      9  C   UNL     1      36.691 -19.261 -21.064  0.00  0.00    +0.060 C 
ATOM     10  C   UNL     1      36.192 -21.691 -18.389  0.00  0.00    +0.222 C 
ATOM     11  C   UNL     1      33.935 -22.069 -18.938  0.00  0.00    +0.248 C 
ATOM     12  H   UNL     1      38.083 -19.941 -19.638  0.00  0.00    +0.153 HD
ATOM     13  H   UNL     1      33.084 -21.035 -20.544  0.00  0.00    +0.156 HD
ATOM     14  H   UNL     1      31.961 -22.487 -19.316  0.00  0.00    +0.146 HD
ATOM     15  H   UNL     1      32.629 -23.344 -18.001  0.00  0.00    +0.146 HD
ENDROOT
BRANCH   6  16
ATOM     16  C   UNL     1      34.473 -19.045 -22.301  0.00  0.00    +0.057 C 
BRANCH  16  18
ATOM     17  N   UNL     1      34.997 -15.425 -23.203  0.00  0.00    -0.243 NA
ATOM     18  C   UNL     1      34.510 -17.535 -22.185  0.00  0.00    +0.001 C 
ATOM     19  C   UNL     1      34.113 -16.925 -21.016  0.00  0.00    -0.001 C 
ATOM     20  C   UNL     1      34.938 -16.774 -23.242  0.00  0.00    +0.095 C 
ATOM     21  C   UNL     1      34.158 -15.537 -20.938  0.00  0.00    +0.020 C 
ATOM     22  C   UNL     1      34.604 -14.839 -22.049  0.00  0.00    +0.099 C 
ENDBRANCH  16  18
ENDBRANCH   6  16
TORSDOF 2
ENDMDL
MODEL 5
REMARK VINA RESULT:      -8.7      5.833      8.460
REMARK  Name = 60817
REMARK  2 active torsions:
REMARK  status: ('A' for Active; 'I' for Inactive)
REMARK    1  A    between atoms: C_6  and  C_16
REMARK    2  A    between atoms: C_16  and  C_18
REMARK                            x       y       z     vdW  Elec       q    Type
REMARK                         _______ _______ _______ _____ _____    ______ ____
ROOT
ATOM      1  O   UNL     1      33.069  -6.656 -19.482  0.00  0.00    -0.208 OA
ATOM      2  N   UNL     1      32.316  -9.505 -19.038  0.00  0.00    -0.301 N 
ATOM      3  N   UNL     1      31.639  -9.091 -22.427  0.00  0.00    -0.274 N 
ATOM      4  N   UNL     1      32.461  -6.940 -21.688  0.00  0.00    -0.301 NA
ATOM      5  N   UNL     1      31.815  -7.337 -23.905  0.00  0.00    -0.320 N 
ATOM      6  C   UNL     1      31.531 -10.843 -20.649  0.00  0.00    +0.012 C 
ATOM      7  C   UNL     1      31.790  -9.568 -21.180  0.00  0.00    +0.075 C 
ATOM      8  C   UNL     1      32.271  -8.754 -20.184  0.00  0.00    +0.158 C 
ATOM      9  C   UNL     1      31.868 -10.777 -19.312  0.00  0.00    +0.060 C 
ATOM     10  C   UNL     1      32.641  -7.375 -20.377  0.00  0.00    +0.222 C 
ATOM     11  C   UNL     1      31.997  -7.757 -22.609  0.00  0.00    +0.248 C 
ATOM     12  H   UNL     1      32.621  -9.184 -18.158  0.00  0.00    +0.153 HD
ATOM     13  H   UNL     1      31.297  -9.648 -23.163  0.00  0.00    +0.156 HD
ATOM     14  H   UNL     1      31.466  -7.963 -24.581  0.00  0.00    +0.146 HD
ATOM     15  H   UNL     1      32.033  -6.411 -24.157  0.00  0.00    +0.146 HD
ENDROOT
BRANCH   6  16
ATOM     16  C   UNL     1      31.007 -12.024 -21.362  0.00  0.00    +0.057 C 
BRANCH  16  18
ATOM     17  N   UNL     1      33.867 -13.504 -23.318  0.00  0.00    -0.243 NA
ATOM     18  C   UNL     1      32.191 -12.898 -21.720  0.00  0.00    +0.001 C 
ATOM     19  C   UNL     1      32.649 -13.838 -20.823  0.00  0.00    -0.001 C 
ATOM     20  C   UNL     1      32.808 -12.756 -22.936  0.00  0.00    +0.095 C 
ATOM     21  C   UNL     1      33.738 -14.627 -21.180  0.00  0.00    +0.020 C 
ATOM     22  C   UNL     1      34.306 -14.423 -22.428  0.00  0.00    +0.099 C 
ENDBRANCH  16  18
ENDBRANCH   6  16
TORSDOF 2
ENDMDL
MODEL 6
REMARK VINA RESULT:      -8.6      3.689      7.573
REMARK  Name = 60817
REMARK  2 active torsions:
REMARK  status: ('A' for Active; 'I' for Inactive)
REMARK    1  A    between atoms: C_6  and  C_16
REMARK    2  A    between atoms: C_16  and  C_18
REMARK                            x       y       z     vdW  Elec       q    Type
REMARK                         _______ _______ _______ _____ _____    ______ ____
ROOT
ATOM      1  O   UNL     1      35.854 -23.312 -16.539  0.00  0.00    -0.208 OA
ATOM      2  N   UNL     1      35.955 -21.590 -18.969  0.00  0.00    -0.301 N 
ATOM      3  N   UNL     1      32.530 -22.001 -18.507  0.00  0.00    -0.274 N 
ATOM      4  N   UNL     1      33.556 -23.250 -16.708  0.00  0.00    -0.301 NA
ATOM      5  N   UNL     1      31.232 -23.121 -16.974  0.00  0.00    -0.320 N 
ATOM      6  C   UNL     1      34.135 -20.869 -20.051  0.00  0.00    +0.012 C 
ATOM      7  C   UNL     1      33.750 -21.656 -18.952  0.00  0.00    +0.075 C 
ATOM      8  C   UNL     1      34.873 -22.093 -18.294  0.00  0.00    +0.158 C 
ATOM      9  C   UNL     1      35.515 -20.844 -20.038  0.00  0.00    +0.060 C 
ATOM     10  C   UNL     1      34.847 -22.926 -17.118  0.00  0.00    +0.222 C 
ATOM     11  C   UNL     1      32.509 -22.807 -17.371  0.00  0.00    +0.248 C 
ATOM     12  H   UNL     1      36.897 -21.738 -18.725  0.00  0.00    +0.153 HD
ATOM     13  H   UNL     1      31.705 -21.705 -18.955  0.00  0.00    +0.156 HD
ATOM     14  H   UNL     1      30.460 -22.782 -17.482  0.00  0.00    +0.146 HD
ATOM     15  H   UNL     1      31.089 -23.687 -16.181  0.00  0.00    +0.146 HD
ENDROOT
BRANCH   6  16
ATOM     16  C   UNL     1      33.256 -20.199 -21.029  0.00  0.00    +0.057 C 
BRANCH  16  18
ATOM     17  N   UNL     1      34.925 -16.875 -21.633  0.00  0.00    -0.243 NA
ATOM     18  C   UNL     1      34.071 -19.110 -21.697  0.00  0.00    +0.001 C 
ATOM     19  C   UNL     1      34.670 -19.347 -22.914  0.00  0.00    -0.001 C 
ATOM     20  C   UNL     1      34.214 -17.888 -21.091  0.00  0.00    +0.095 C 
ATOM     21  C   UNL     1      35.412 -18.329 -23.503  0.00  0.00    +0.020 C 
ATOM     22  C   UNL     1      35.508 -17.122 -22.828  0.00  0.00    +0.099 C 
ENDBRANCH  16  18
ENDBRANCH   6  16
TORSDOF 2
ENDMDL
MODEL 7
REMARK VINA RESULT:      -8.4      7.599     11.388
REMARK  Name = 60817
REMARK  2 active torsions:
REMARK  status: ('A' for Active; 'I' for Inactive)
REMARK    1  A    between atoms: C_6  and  C_16
REMARK    2  A    between atoms: C_16  and  C_18
REMARK                            x       y       z     vdW  Elec       q    Type
REMARK                         _______ _______ _______ _____ _____    ______ ____
ROOT
ATOM      1  O   UNL     1      36.828 -26.187 -12.011  0.00  0.00    -0.208 OA
ATOM      2  N   UNL     1      35.849 -23.823 -13.539  0.00  0.00    -0.301 N 
ATOM      3  N   UNL     1      38.865 -24.523 -15.130  0.00  0.00    -0.274 N 
ATOM      4  N   UNL     1      38.675 -26.192 -13.390  0.00  0.00    -0.301 NA
ATOM      5  N   UNL     1      40.509 -26.105 -14.845  0.00  0.00    -0.320 N 
ATOM      6  C   UNL     1      36.963 -22.907 -15.249  0.00  0.00    +0.012 C 
ATOM      7  C   UNL     1      37.687 -24.001 -14.746  0.00  0.00    +0.075 C 
ATOM      8  C   UNL     1      36.996 -24.556 -13.698  0.00  0.00    +0.158 C 
ATOM      9  C   UNL     1      35.820 -22.818 -14.479  0.00  0.00    +0.060 C 
ATOM     10  C   UNL     1      37.451 -25.699 -12.946  0.00  0.00    +0.222 C 
ATOM     11  C   UNL     1      39.301 -25.626 -14.400  0.00  0.00    +0.248 C 
ATOM     12  H   UNL     1      35.155 -23.990 -12.861  0.00  0.00    +0.153 HD
ATOM     13  H   UNL     1      39.385 -24.149 -15.877  0.00  0.00    +0.156 HD
ATOM     14  H   UNL     1      40.964 -25.668 -15.602  0.00  0.00    +0.146 HD
ATOM     15  H   UNL     1      40.921 -26.884 -14.406  0.00  0.00    +0.146 HD
ENDROOT
BRANCH   6  16
ATOM     16  C   UNL     1      37.332 -22.023 -16.372  0.00  0.00    +0.057 C 
BRANCH  16  18
ATOM     17  N   UNL     1      34.093 -22.996 -18.033  0.00  0.00    -0.243 NA
ATOM     18  C   UNL     1      36.243 -22.142 -17.418  0.00  0.00    +0.001 C 
ATOM     19  C   UNL     1      36.398 -21.537 -18.645  0.00  0.00    -0.001 C 
ATOM     20  C   UNL     1      35.101 -22.851 -17.144  0.00  0.00    +0.095 C 
ATOM     21  C   UNL     1      35.382 -21.664 -19.586  0.00  0.00    +0.020 C 
ATOM     22  C   UNL     1      34.259 -22.397 -19.234  0.00  0.00    +0.099 C 
ENDBRANCH  16  18
ENDBRANCH   6  16
TORSDOF 2
ENDMDL
MODEL 8
REMARK VINA RESULT:      -8.3      5.544      9.124
REMARK  Name = 60817
REMARK  2 active torsions:
REMARK  status: ('A' for Active; 'I' for Inactive)
REMARK    1  A    between atoms: C_6  and  C_16
REMARK    2  A    between atoms: C_16  and  C_18
REMARK                            x       y       z     vdW  Elec       q    Type
REMARK                         _______ _______ _______ _____ _____    ______ ____
ROOT
ATOM      1  O   UNL     1      31.798 -22.776 -13.257  0.00  0.00    -0.208 OA
ATOM      2  N   UNL     1      33.997 -23.139 -15.236  0.00  0.00    -0.301 N 
ATOM      3  N   UNL     1      31.178 -23.083 -17.278  0.00  0.00    -0.274 N 
ATOM      4  N   UNL     1      30.326 -22.811 -15.031  0.00  0.00    -0.301 NA
ATOM      5  N   UNL     1      28.920 -22.861 -16.904  0.00  0.00    -0.320 N 
ATOM      6  C   UNL     1      33.661 -23.307 -17.441  0.00  0.00    +0.012 C 
ATOM      7  C   UNL     1      32.428 -23.145 -16.788  0.00  0.00    +0.075 C 
ATOM      8  C   UNL     1      32.644 -23.042 -15.435  0.00  0.00    +0.158 C 
ATOM      9  C   UNL     1      34.623 -23.300 -16.451  0.00  0.00    +0.060 C 
ATOM     10  C   UNL     1      31.596 -22.866 -14.462  0.00  0.00    +0.222 C 
ATOM     11  C   UNL     1      30.169 -22.914 -16.333  0.00  0.00    +0.248 C 
ATOM     12  H   UNL     1      34.448 -23.098 -14.362  0.00  0.00    +0.153 HD
ATOM     13  H   UNL     1      30.989 -23.153 -18.241  0.00  0.00    +0.156 HD
ATOM     14  H   UNL     1      28.821 -22.941 -17.881  0.00  0.00    +0.146 HD
ATOM     15  H   UNL     1      28.124 -22.745 -16.336  0.00  0.00    +0.146 HD
ENDROOT
BRANCH   6  16
ATOM     16  C   UNL     1      33.898 -23.456 -18.890  0.00  0.00    +0.057 C 
BRANCH  16  18
ATOM     17  N   UNL     1      35.650 -20.322 -20.033  0.00  0.00    -0.243 NA
ATOM     18  C   UNL     1      34.118 -22.069 -19.457  0.00  0.00    +0.001 C 
ATOM     19  C   UNL     1      33.044 -21.325 -19.891  0.00  0.00    -0.001 C 
ATOM     20  C   UNL     1      35.386 -21.552 -19.540  0.00  0.00    +0.095 C 
ATOM     21  C   UNL     1      33.276 -20.054 -20.406  0.00  0.00    +0.020 C 
ATOM     22  C   UNL     1      34.585 -19.603 -20.456  0.00  0.00    +0.099 C 
ENDBRANCH  16  18
ENDBRANCH   6  16
TORSDOF 2
ENDMDL
MODEL 9
REMARK VINA RESULT:      -8.2      2.732      4.114
REMARK  Name = 60817
REMARK  2 active torsions:
REMARK  status: ('A' for Active; 'I' for Inactive)
REMARK    1  A    between atoms: C_6  and  C_16
REMARK    2  A    between atoms: C_16  and  C_18
REMARK                            x       y       z     vdW  Elec       q    Type
REMARK                         _______ _______ _______ _____ _____    ______ ____
ROOT
ATOM      1  O   UNL     1      31.080 -11.469 -21.618  0.00  0.00    -0.208 OA
ATOM      2  N   UNL     1      32.155 -14.248 -21.674  0.00  0.00    -0.301 N 
ATOM      3  N   UNL     1      34.217 -12.622 -23.958  0.00  0.00    -0.274 N 
ATOM      4  N   UNL     1      32.688 -10.919 -23.175  0.00  0.00    -0.301 NA
ATOM      5  N   UNL     1      34.358 -10.470 -24.756  0.00  0.00    -0.320 N 
ATOM      6  C   UNL     1      33.874 -14.885 -22.955  0.00  0.00    +0.012 C 
ATOM      7  C   UNL     1      33.615 -13.519 -23.159  0.00  0.00    +0.075 C 
ATOM      8  C   UNL     1      32.558 -13.137 -22.368  0.00  0.00    +0.158 C 
ATOM      9  C   UNL     1      32.950 -15.315 -22.024  0.00  0.00    +0.060 C 
ATOM     10  C   UNL     1      32.024 -11.799 -22.326  0.00  0.00    +0.222 C 
ATOM     11  C   UNL     1      33.696 -11.331 -23.915  0.00  0.00    +0.248 C 
ATOM     12  H   UNL     1      31.414 -14.277 -21.026  0.00  0.00    +0.153 HD
ATOM     13  H   UNL     1      34.976 -12.863 -24.536  0.00  0.00    +0.156 HD
ATOM     14  H   UNL     1      35.110 -10.795 -25.303  0.00  0.00    +0.146 HD
ATOM     15  H   UNL     1      34.080  -9.527 -24.814  0.00  0.00    +0.146 HD
ENDROOT
BRANCH   6  16
ATOM     16  C   UNL     1      34.918 -15.707 -23.597  0.00  0.00    +0.057 C 
BRANCH  16  18
ATOM     17  N   UNL     1      35.433 -18.142 -20.768  0.00  0.00    -0.243 NA
ATOM     18  C   UNL     1      34.998 -17.013 -22.833  0.00  0.00    +0.001 C 
ATOM     19  C   UNL     1      34.723 -18.201 -23.472  0.00  0.00    -0.001 C 
ATOM     20  C   UNL     1      35.343 -17.013 -21.506  0.00  0.00    +0.095 C 
ATOM     21  C   UNL     1      34.805 -19.385 -22.745  0.00  0.00    +0.020 C 
ATOM     22  C   UNL     1      35.161 -19.302 -21.408  0.00  0.00    +0.099 C 
ENDBRANCH  16  18
ENDBRANCH   6  16
TORSDOF 2
ENDMDL
