MODEL 1
REMARK VINA RESULT:     -10.8      0.000      0.000
REMARK  Name = 9797857
REMARK  4 active torsions:
REMARK  status: ('A' for Active; 'I' for Inactive)
REMARK    1  A    between atoms: C_3  and  N_9
REMARK    2  A    between atoms: C_8  and  C_19
REMARK    3  A    between atoms: C_13  and  O_17
REMARK    4  A    between atoms: C_24  and  C_26
REMARK                            x       y       z     vdW  Elec       q    Type
REMARK                         _______ _______ _______ _____ _____    ______ ____
ROOT
ATOM      1  O   UNL     1      33.560 -14.023 -25.755  0.00  0.00    -0.270 OA
ATOM      2  N   UNL     1      33.566 -15.152 -23.705  0.00  0.00    -0.276 N 
ATOM      3  C   UNL     1      35.113 -17.047 -22.136  0.00  0.00    +0.074 C 
ATOM      4  C   UNL     1      34.673 -15.692 -21.571  0.00  0.00    +0.041 C 
ATOM      5  C   UNL     1      35.165 -17.026 -23.667  0.00  0.00    +0.041 C 
ATOM      6  C   UNL     1      33.408 -15.159 -22.246  0.00  0.00    +0.095 C 
ATOM      7  C   UNL     1      33.895 -16.450 -24.293  0.00  0.00    +0.095 C 
ATOM      8  C   UNL     1      33.430 -14.035 -24.532  0.00  0.00    +0.249 C 
ENDROOT
BRANCH   3   9
ATOM      9  N   UNL     1      34.216 -18.089 -21.675  0.00  0.00    -0.320 N 
ATOM     10  N   UNL     1      35.959 -19.346 -20.645  0.00  0.00    -0.229 NA
ATOM     11  C   UNL     1      34.635 -19.194 -20.956  0.00  0.00    +0.132 C 
ATOM     12  C   UNL     1      33.676 -20.138 -20.562  0.00  0.00    +0.071 C 
ATOM     13  C   UNL     1      34.082 -21.254 -19.838  0.00  0.00    +0.143 C 
ATOM     14  C   UNL     1      36.316 -20.443 -19.941  0.00  0.00    +0.103 C 
ATOM     15  C   UNL     1      35.425 -21.417 -19.518  0.00  0.00    +0.058 C 
ATOM     16  H   UNL     1      33.258 -18.006 -21.886  0.00  0.00    +0.148 HD
BRANCH  13  17
ATOM     17  O   UNL     1      33.169 -22.183 -19.446  0.00  0.00    -0.471 OA
ATOM     18  C   UNL     1      33.356 -22.776 -18.162  0.00  0.00    +0.252 C 
ENDBRANCH  13  17
ENDBRANCH   3   9
BRANCH   8  19
ATOM     19  C   UNL     1      33.104 -12.750 -23.904  0.00  0.00    +0.054 C 
ATOM     20  C   UNL     1      32.152 -12.695 -22.890  0.00  0.00    +0.005 C 
ATOM     21  C   UNL     1      33.749 -11.590 -24.326  0.00  0.00    +0.005 C 
ATOM     22  C   UNL     1      31.842 -11.473 -22.294  0.00  0.00    +0.010 C 
ATOM     23  C   UNL     1      33.439 -10.367 -23.730  0.00  0.00    +0.010 C 
ATOM     24  C   UNL     1      32.486 -10.309 -22.714  0.00  0.00    +0.068 C 
BRANCH  24  26
ATOM     25  N   UNL     1      31.910  -8.038 -21.607  0.00  0.00    -0.191 NA
ATOM     26  C   UNL     1      32.168  -9.056 -22.103  0.00  0.00    +0.100 C 
ENDBRANCH  24  26
ENDBRANCH   8  19
TORSDOF 4
ENDMDL
MODEL 2
REMARK VINA RESULT:     -10.5      2.426      9.256
REMARK  Name = 9797857
REMARK  4 active torsions:
REMARK  status: ('A' for Active; 'I' for Inactive)
REMARK    1  A    between atoms: C_3  and  N_9
REMARK    2  A    between atoms: C_8  and  C_19
REMARK    3  A    between atoms: C_13  and  O_17
REMARK    4  A    between atoms: C_24  and  C_26
REMARK                            x       y       z     vdW  Elec       q    Type
REMARK                         _______ _______ _______ _____ _____    ______ ____
ROOT
ATOM      1  O   UNL     1      34.413 -18.201 -25.459  0.00  0.00    -0.270 OA
ATOM      2  N   UNL     1      34.438 -16.138 -24.358  0.00  0.00    -0.276 N 
ATOM      3  C   UNL     1      32.863 -13.725 -23.973  0.00  0.00    +0.074 C 
ATOM      4  C   UNL     1      33.399 -14.543 -22.792  0.00  0.00    +0.041 C 
ATOM      5  C   UNL     1      32.744 -14.580 -25.239  0.00  0.00    +0.041 C 
ATOM      6  C   UNL     1      34.659 -15.332 -23.151  0.00  0.00    +0.095 C 
ATOM      7  C   UNL     1      34.014 -15.377 -25.534  0.00  0.00    +0.095 C 
ATOM      8  C   UNL     1      34.597 -17.521 -24.452  0.00  0.00    +0.249 C 
ENDROOT
BRANCH   3   9
ATOM      9  N   UNL     1      33.721 -12.583 -24.213  0.00  0.00    -0.320 N 
ATOM     10  N   UNL     1      32.307 -11.075 -23.027  0.00  0.00    -0.229 NA
ATOM     11  C   UNL     1      33.444 -11.308 -23.752  0.00  0.00    +0.132 C 
ATOM     12  C   UNL     1      34.350 -10.279 -24.045  0.00  0.00    +0.071 C 
ATOM     13  C   UNL     1      34.085  -8.993 -23.588  0.00  0.00    +0.143 C 
ATOM     14  C   UNL     1      32.083  -9.813 -22.599  0.00  0.00    +0.103 C 
ATOM     15  C   UNL     1      32.932  -8.747 -22.851  0.00  0.00    +0.058 C 
ATOM     16  H   UNL     1      34.546 -12.721 -24.733  0.00  0.00    +0.148 HD
BRANCH  13  17
ATOM     17  O   UNL     1      34.949  -7.979 -23.861  0.00  0.00    -0.471 OA
ATOM     18  C   UNL     1      34.411  -6.818 -24.491  0.00  0.00    +0.252 C 
ENDBRANCH  13  17
ENDBRANCH   3   9
BRANCH   8  19
ATOM     19  C   UNL     1      35.018 -18.248 -23.249  0.00  0.00    +0.054 C 
ATOM     20  C   UNL     1      36.344 -18.184 -22.829  0.00  0.00    +0.005 C 
ATOM     21  C   UNL     1      34.090 -19.000 -22.534  0.00  0.00    +0.005 C 
ATOM     22  C   UNL     1      36.744 -18.876 -21.686  0.00  0.00    +0.010 C 
ATOM     23  C   UNL     1      34.490 -19.692 -21.391  0.00  0.00    +0.010 C 
ATOM     24  C   UNL     1      35.818 -19.630 -20.967  0.00  0.00    +0.068 C 
BRANCH  24  26
ATOM     25  N   UNL     1      36.561 -20.917 -18.844  0.00  0.00    -0.191 NA
ATOM     26  C   UNL     1      36.228 -20.340 -19.796  0.00  0.00    +0.100 C 
ENDBRANCH  24  26
ENDBRANCH   8  19
TORSDOF 4
ENDMDL
MODEL 3
REMARK VINA RESULT:     -10.3      0.972      1.079
REMARK  Name = 9797857
REMARK  4 active torsions:
REMARK  status: ('A' for Active; 'I' for Inactive)
REMARK    1  A    between atoms: C_3  and  N_9
REMARK    2  A    between atoms: C_8  and  C_19
REMARK    3  A    between atoms: C_13  and  O_17
REMARK    4  A    between atoms: C_24  and  C_26
REMARK                            x       y       z     vdW  Elec       q    Type
REMARK                         _______ _______ _______ _____ _____    ______ ____
ROOT
ATOM      1  O   UNL     1      34.014 -15.281 -25.678  0.00  0.00    -0.270 OA
ATOM      2  N   UNL     1      33.889 -16.219 -23.538  0.00  0.00    -0.276 N 
ATOM      3  C   UNL     1      35.340 -17.941 -21.701  0.00  0.00    +0.074 C 
ATOM      4  C   UNL     1      34.852 -16.546 -21.294  0.00  0.00    +0.041 C 
ATOM      5  C   UNL     1      35.497 -18.059 -23.221  0.00  0.00    +0.041 C 
ATOM      6  C   UNL     1      33.632 -16.095 -22.098  0.00  0.00    +0.095 C 
ATOM      7  C   UNL     1      34.268 -17.560 -23.981  0.00  0.00    +0.095 C 
ATOM      8  C   UNL     1      33.800 -15.184 -24.471  0.00  0.00    +0.249 C 
ENDROOT
BRANCH   3   9
ATOM      9  N   UNL     1      34.423 -18.950 -21.208  0.00  0.00    -0.320 N 
ATOM     10  N   UNL     1      36.118 -20.136 -20.027  0.00  0.00    -0.229 NA
ATOM     11  C   UNL     1      34.809 -20.004 -20.401  0.00  0.00    +0.132 C 
ATOM     12  C   UNL     1      33.832 -20.919 -19.983  0.00  0.00    +0.071 C 
ATOM     13  C   UNL     1      34.205 -21.984 -19.171  0.00  0.00    +0.143 C 
ATOM     14  C   UNL     1      36.444 -21.183 -19.237  0.00  0.00    +0.103 C 
ATOM     15  C   UNL     1      35.534 -22.126 -18.787  0.00  0.00    +0.058 C 
ATOM     16  H   UNL     1      33.474 -18.881 -21.463  0.00  0.00    +0.148 HD
BRANCH  13  17
ATOM     17  O   UNL     1      33.275 -22.885 -18.755  0.00  0.00    -0.471 OA
ATOM     18  C   UNL     1      33.239 -23.186 -17.360  0.00  0.00    +0.252 C 
ENDBRANCH  13  17
ENDBRANCH   3   9
BRANCH   8  19
ATOM     19  C   UNL     1      33.422 -13.852 -23.987  0.00  0.00    +0.054 C 
ATOM     20  C   UNL     1      32.425 -13.721 -23.025  0.00  0.00    +0.005 C 
ATOM     21  C   UNL     1      34.062 -12.723 -24.493  0.00  0.00    +0.005 C 
ATOM     22  C   UNL     1      32.065 -12.454 -22.565  0.00  0.00    +0.010 C 
ATOM     23  C   UNL     1      33.703 -11.456 -24.034  0.00  0.00    +0.010 C 
ATOM     24  C   UNL     1      32.704 -11.322 -23.069  0.00  0.00    +0.068 C 
BRANCH  24  26
ATOM     25  N   UNL     1      32.035  -8.968 -22.218  0.00  0.00    -0.191 NA
ATOM     26  C   UNL     1      32.335 -10.023 -22.599  0.00  0.00    +0.100 C 
ENDBRANCH  24  26
ENDBRANCH   8  19
TORSDOF 4
ENDMDL
MODEL 4
REMARK VINA RESULT:      -9.9      2.689      9.263
REMARK  Name = 9797857
REMARK  4 active torsions:
REMARK  status: ('A' for Active; 'I' for Inactive)
REMARK    1  A    between atoms: C_3  and  N_9
REMARK    2  A    between atoms: C_8  and  C_19
REMARK    3  A    between atoms: C_13  and  O_17
REMARK    4  A    between atoms: C_24  and  C_26
REMARK                            x       y       z     vdW  Elec       q    Type
REMARK                         _______ _______ _______ _____ _____    ______ ____
ROOT
ATOM      1  O   UNL     1      35.998 -17.063 -23.075  0.00  0.00    -0.270 OA
ATOM      2  N   UNL     1      34.459 -15.990 -21.676  0.00  0.00    -0.276 N 
ATOM      3  C   UNL     1      32.132 -14.249 -21.737  0.00  0.00    +0.074 C 
ATOM      4  C   UNL     1      32.128 -15.584 -20.985  0.00  0.00    +0.041 C 
ATOM      5  C   UNL     1      33.188 -14.234 -22.848  0.00  0.00    +0.041 C 
ATOM      6  C   UNL     1      33.529 -16.010 -20.541  0.00  0.00    +0.095 C 
ATOM      7  C   UNL     1      34.559 -14.703 -22.365  0.00  0.00    +0.095 C 
ATOM      8  C   UNL     1      35.218 -17.073 -22.124  0.00  0.00    +0.249 C 
ENDROOT
BRANCH   3   9
ATOM      9  N   UNL     1      32.360 -13.159 -20.809  0.00  0.00    -0.320 N 
ATOM     10  N   UNL     1      31.570 -11.498 -22.324  0.00  0.00    -0.229 NA
ATOM     11  C   UNL     1      32.085 -11.836 -21.102  0.00  0.00    +0.132 C 
ATOM     12  C   UNL     1      32.346 -10.866 -20.124  0.00  0.00    +0.071 C 
ATOM     13  C   UNL     1      32.074  -9.531 -20.404  0.00  0.00    +0.143 C 
ATOM     14  C   UNL     1      31.318 -10.192 -22.561  0.00  0.00    +0.103 C 
ATOM     15  C   UNL     1      31.551  -9.180 -21.643  0.00  0.00    +0.058 C 
ATOM     16  H   UNL     1      32.732 -13.372 -19.922  0.00  0.00    +0.148 HD
BRANCH  13  17
ATOM     17  O   UNL     1      32.320  -8.573 -19.470  0.00  0.00    -0.471 OA
ATOM     18  C   UNL     1      32.471  -7.233 -19.938  0.00  0.00    +0.252 C 
ENDBRANCH  13  17
ENDBRANCH   3   9
BRANCH   8  19
ATOM     19  C   UNL     1      35.084 -18.348 -21.411  0.00  0.00    +0.054 C 
ATOM     20  C   UNL     1      36.216 -18.980 -20.903  0.00  0.00    +0.005 C 
ATOM     21  C   UNL     1      33.826 -18.922 -21.248  0.00  0.00    +0.005 C 
ATOM     22  C   UNL     1      36.089 -20.193 -20.226  0.00  0.00    +0.010 C 
ATOM     23  C   UNL     1      33.699 -20.135 -20.570  0.00  0.00    +0.010 C 
ATOM     24  C   UNL     1      34.831 -20.770 -20.060  0.00  0.00    +0.068 C 
BRANCH  24  26
ATOM     25  N   UNL     1      34.594 -23.024 -18.803  0.00  0.00    -0.191 NA
ATOM     26  C   UNL     1      34.700 -22.013 -19.366  0.00  0.00    +0.100 C 
ENDBRANCH  24  26
ENDBRANCH   8  19
TORSDOF 4
ENDMDL
MODEL 5
REMARK VINA RESULT:      -9.6      3.682      6.759
REMARK  Name = 9797857
REMARK  4 active torsions:
REMARK  status: ('A' for Active; 'I' for Inactive)
REMARK    1  A    between atoms: C_3  and  N_9
REMARK    2  A    between atoms: C_8  and  C_19
REMARK    3  A    between atoms: C_13  and  O_17
REMARK    4  A    between atoms: C_24  and  C_26
REMARK                            x       y       z     vdW  Elec       q    Type
REMARK                         _______ _______ _______ _____ _____    ______ ____
ROOT
ATOM      1  O   UNL     1      32.136  -6.774 -20.247  0.00  0.00    -0.270 OA
ATOM      2  N   UNL     1      32.311  -8.961 -21.059  0.00  0.00    -0.276 N 
ATOM      3  C   UNL     1      30.991 -11.550 -20.976  0.00  0.00    +0.074 C 
ATOM      4  C   UNL     1      31.344 -10.860 -22.299  0.00  0.00    +0.041 C 
ATOM      5  C   UNL     1      30.870 -10.539 -19.831  0.00  0.00    +0.041 C 
ATOM      6  C   UNL     1      32.532  -9.905 -22.161  0.00  0.00    +0.095 C 
ATOM      7  C   UNL     1      32.061  -9.584 -19.759  0.00  0.00    +0.095 C 
ATOM      8  C   UNL     1      32.320  -7.569 -21.166  0.00  0.00    +0.249 C 
ENDROOT
BRANCH   3   9
ATOM      9  N   UNL     1      31.987 -12.554 -20.661  0.00  0.00    -0.320 N 
ATOM     10  N   UNL     1      32.138 -13.332 -22.908  0.00  0.00    -0.229 NA
ATOM     11  C   UNL     1      32.534 -13.409 -21.601  0.00  0.00    +0.132 C 
ATOM     12  C   UNL     1      33.493 -14.341 -21.179  0.00  0.00    +0.071 C 
ATOM     13  C   UNL     1      34.052 -15.207 -22.113  0.00  0.00    +0.143 C 
ATOM     14  C   UNL     1      32.703 -14.189 -23.787  0.00  0.00    +0.103 C 
ATOM     15  C   UNL     1      33.655 -15.136 -23.443  0.00  0.00    +0.058 C 
ATOM     16  H   UNL     1      32.290 -12.633 -19.727  0.00  0.00    +0.148 HD
BRANCH  13  17
ATOM     17  O   UNL     1      34.983 -16.120 -21.726  0.00  0.00    -0.471 OA
ATOM     18  C   UNL     1      35.343 -17.123 -22.675  0.00  0.00    +0.252 C 
ENDBRANCH  13  17
ENDBRANCH   3   9
BRANCH   8  19
ATOM     19  C   UNL     1      32.569  -6.983 -22.488  0.00  0.00    +0.054 C 
ATOM     20  C   UNL     1      33.779  -7.220 -23.135  0.00  0.00    +0.005 C 
ATOM     21  C   UNL     1      31.594  -6.192 -23.089  0.00  0.00    +0.005 C 
ATOM     22  C   UNL     1      34.015  -6.662 -24.391  0.00  0.00    +0.010 C 
ATOM     23  C   UNL     1      31.830  -5.634 -24.345  0.00  0.00    +0.010 C 
ATOM     24  C   UNL     1      33.041  -5.869 -24.996  0.00  0.00    +0.068 C 
BRANCH  24  26
ATOM     25  N   UNL     1      33.479  -4.831 -27.329  0.00  0.00    -0.191 NA
ATOM     26  C   UNL     1      33.283  -5.296 -26.283  0.00  0.00    +0.100 C 
ENDBRANCH  24  26
ENDBRANCH   8  19
TORSDOF 4
ENDMDL
MODEL 6
REMARK VINA RESULT:      -9.2      2.646      9.538
REMARK  Name = 9797857
REMARK  4 active torsions:
REMARK  status: ('A' for Active; 'I' for Inactive)
REMARK    1  A    between atoms: C_3  and  N_9
REMARK    2  A    between atoms: C_8  and  C_19
REMARK    3  A    between atoms: C_13  and  O_17
REMARK    4  A    between atoms: C_24  and  C_26
REMARK                            x       y       z     vdW  Elec       q    Type
REMARK                         _______ _______ _______ _____ _____    ______ ____
ROOT
ATOM      1  O   UNL     1      37.529 -21.090 -20.364  0.00  0.00    -0.270 OA
ATOM      2  N   UNL     1      35.887 -19.506 -20.881  0.00  0.00    -0.276 N 
ATOM      3  C   UNL     1      34.649 -18.137 -23.127  0.00  0.00    +0.074 C 
ATOM      4  C   UNL     1      33.822 -18.887 -22.076  0.00  0.00    +0.041 C 
ATOM      5  C   UNL     1      36.087 -18.662 -23.187  0.00  0.00    +0.041 C 
ATOM      6  C   UNL     1      34.531 -18.968 -20.722  0.00  0.00    +0.095 C 
ATOM      7  C   UNL     1      36.738 -18.760 -21.808  0.00  0.00    +0.095 C 
ATOM      8  C   UNL     1      36.394 -20.635 -20.235  0.00  0.00    +0.249 C 
ENDROOT
BRANCH   3   9
ATOM      9  N   UNL     1      34.641 -16.716 -22.840  0.00  0.00    -0.320 N 
ATOM     10  N   UNL     1      33.709 -16.137 -24.955  0.00  0.00    -0.229 NA
ATOM     11  C   UNL     1      34.185 -15.760 -23.729  0.00  0.00    +0.132 C 
ATOM     12  C   UNL     1      34.224 -14.413 -23.341  0.00  0.00    +0.071 C 
ATOM     13  C   UNL     1      33.769 -13.441 -24.225  0.00  0.00    +0.143 C 
ATOM     14  C   UNL     1      33.274 -15.165 -25.787  0.00  0.00    +0.103 C 
ATOM     15  C   UNL     1      33.284 -13.815 -25.473  0.00  0.00    +0.058 C 
ATOM     16  H   UNL     1      34.979 -16.415 -21.965  0.00  0.00    +0.148 HD
BRANCH  13  17
ATOM     17  O   UNL     1      33.799 -12.128 -23.870  0.00  0.00    -0.471 OA
ATOM     18  C   UNL     1      34.104 -11.184 -24.896  0.00  0.00    +0.252 C 
ENDBRANCH  13  17
ENDBRANCH   3   9
BRANCH   8  19
ATOM     19  C   UNL     1      35.508 -21.358 -19.317  0.00  0.00    +0.054 C 
ATOM     20  C   UNL     1      34.168 -21.542 -19.648  0.00  0.00    +0.005 C 
ATOM     21  C   UNL     1      36.010 -21.856 -18.117  0.00  0.00    +0.005 C 
ATOM     22  C   UNL     1      33.325 -22.229 -18.775  0.00  0.00    +0.010 C 
ATOM     23  C   UNL     1      35.167 -22.544 -17.244  0.00  0.00    +0.010 C 
ATOM     24  C   UNL     1      33.824 -22.730 -17.573  0.00  0.00    +0.068 C 
BRANCH  24  26
ATOM     25  N   UNL     1      32.259 -24.005 -15.949  0.00  0.00    -0.191 NA
ATOM     26  C   UNL     1      32.961 -23.434 -16.677  0.00  0.00    +0.100 C 
ENDBRANCH  24  26
ENDBRANCH   8  19
TORSDOF 4
ENDMDL
MODEL 7
REMARK VINA RESULT:      -9.1      1.337      1.974
REMARK  Name = 9797857
REMARK  4 active torsions:
REMARK  status: ('A' for Active; 'I' for Inactive)
REMARK    1  A    between atoms: C_3  and  N_9
REMARK    2  A    between atoms: C_8  and  C_19
REMARK    3  A    between atoms: C_13  and  O_17
REMARK    4  A    between atoms: C_24  and  C_26
REMARK                            x       y       z     vdW  Elec       q    Type
REMARK                         _______ _______ _______ _____ _____    ______ ____
ROOT
ATOM      1  O   UNL     1      33.089 -12.107 -25.368  0.00  0.00    -0.270 OA
ATOM      2  N   UNL     1      33.230 -13.394 -23.419  0.00  0.00    -0.276 N 
ATOM      3  C   UNL     1      34.791 -15.507 -22.175  0.00  0.00    +0.074 C 
ATOM      4  C   UNL     1      34.517 -14.175 -21.468  0.00  0.00    +0.041 C 
ATOM      5  C   UNL     1      34.681 -15.366 -23.697  0.00  0.00    +0.041 C 
ATOM      6  C   UNL     1      33.229 -13.508 -21.956  0.00  0.00    +0.095 C 
ATOM      7  C   UNL     1      33.398 -14.661 -24.133  0.00  0.00    +0.095 C 
ATOM      8  C   UNL     1      33.089 -12.208 -24.142  0.00  0.00    +0.249 C 
ENDROOT
BRANCH   3   9
ATOM      9  N   UNL     1      33.875 -16.521 -21.693  0.00  0.00    -0.320 N 
ATOM     10  N   UNL     1      35.594 -18.140 -21.369  0.00  0.00    -0.229 NA
ATOM     11  C   UNL     1      34.273 -17.788 -21.306  0.00  0.00    +0.132 C 
ATOM     12  C   UNL     1      33.296 -18.687 -20.855  0.00  0.00    +0.071 C 
ATOM     13  C   UNL     1      33.681 -19.964 -20.462  0.00  0.00    +0.143 C 
ATOM     14  C   UNL     1      35.930 -19.389 -20.979  0.00  0.00    +0.103 C 
ATOM     15  C   UNL     1      35.021 -20.330 -20.523  0.00  0.00    +0.058 C 
ATOM     16  H   UNL     1      32.918 -16.296 -21.639  0.00  0.00    +0.148 HD
BRANCH  13  17
ATOM     17  O   UNL     1      32.750 -20.853 -20.022  0.00  0.00    -0.471 OA
ATOM     18  C   UNL     1      33.232 -22.050 -19.412  0.00  0.00    +0.252 C 
ENDBRANCH  13  17
ENDBRANCH   3   9
BRANCH   8  19
ATOM     19  C   UNL     1      32.929 -10.959 -23.390  0.00  0.00    +0.054 C 
ATOM     20  C   UNL     1      33.775  -9.884 -23.645  0.00  0.00    +0.005 C 
ATOM     21  C   UNL     1      31.932 -10.856 -22.424  0.00  0.00    +0.005 C 
ATOM     22  C   UNL     1      33.623  -8.696 -22.929  0.00  0.00    +0.010 C 
ATOM     23  C   UNL     1      31.780  -9.668 -21.708  0.00  0.00    +0.010 C 
ATOM     24  C   UNL     1      32.625  -8.589 -21.960  0.00  0.00    +0.068 C 
BRANCH  24  26
ATOM     25  N   UNL     1      32.343  -6.384 -20.628  0.00  0.00    -0.191 NA
ATOM     26  C   UNL     1      32.469  -7.372 -21.226  0.00  0.00    +0.100 C 
ENDBRANCH  24  26
ENDBRANCH   8  19
TORSDOF 4
ENDMDL
MODEL 8
REMARK VINA RESULT:      -8.6      2.612      9.104
REMARK  Name = 9797857
REMARK  4 active torsions:
REMARK  status: ('A' for Active; 'I' for Inactive)
REMARK    1  A    between atoms: C_3  and  N_9
REMARK    2  A    between atoms: C_8  and  C_19
REMARK    3  A    between atoms: C_13  and  O_17
REMARK    4  A    between atoms: C_24  and  C_26
REMARK                            x       y       z     vdW  Elec       q    Type
REMARK                         _______ _______ _______ _____ _____    ______ ____
ROOT
ATOM      1  O   UNL     1      35.661 -18.642 -24.285  0.00  0.00    -0.270 OA
ATOM      2  N   UNL     1      34.913 -16.830 -23.008  0.00  0.00    -0.276 N 
ATOM      3  C   UNL     1      32.859 -14.774 -22.927  0.00  0.00    +0.074 C 
ATOM      4  C   UNL     1      33.120 -15.710 -21.741  0.00  0.00    +0.041 C 
ATOM      5  C   UNL     1      33.340 -15.392 -24.245  0.00  0.00    +0.041 C 
ATOM      6  C   UNL     1      34.557 -16.234 -21.714  0.00  0.00    +0.095 C 
ATOM      7  C   UNL     1      34.765 -15.936 -24.156  0.00  0.00    +0.095 C 
ATOM      8  C   UNL     1      35.362 -18.137 -23.204  0.00  0.00    +0.249 C 
ENDROOT
BRANCH   3   9
ATOM      9  N   UNL     1      33.508 -13.498 -22.702  0.00  0.00    -0.320 N 
ATOM     10  N   UNL     1      33.419 -12.873 -25.000  0.00  0.00    -0.229 NA
ATOM     11  C   UNL     1      33.773 -12.587 -23.709  0.00  0.00    +0.132 C 
ATOM     12  C   UNL     1      34.404 -11.382 -23.372  0.00  0.00    +0.071 C 
ATOM     13  C   UNL     1      34.677 -10.457 -24.374  0.00  0.00    +0.143 C 
ATOM     14  C   UNL     1      33.699 -11.950 -25.947  0.00  0.00    +0.103 C 
ATOM     15  C   UNL     1      34.321 -10.739 -25.688  0.00  0.00    +0.058 C 
ATOM     16  H   UNL     1      33.774 -13.266 -21.783  0.00  0.00    +0.148 HD
BRANCH  13  17
ATOM     17  O   UNL     1      35.290  -9.282 -24.070  0.00  0.00    -0.471 OA
ATOM     18  C   UNL     1      34.454  -8.201 -23.657  0.00  0.00    +0.252 C 
ENDBRANCH  13  17
ENDBRANCH   3   9
BRANCH   8  19
ATOM     19  C   UNL     1      35.491 -19.004 -22.028  0.00  0.00    +0.054 C 
ATOM     20  C   UNL     1      34.386 -19.713 -21.564  0.00  0.00    +0.005 C 
ATOM     21  C   UNL     1      36.719 -19.113 -21.379  0.00  0.00    +0.005 C 
ATOM     22  C   UNL     1      34.510 -20.537 -20.445  0.00  0.00    +0.010 C 
ATOM     23  C   UNL     1      36.842 -19.936 -20.260  0.00  0.00    +0.010 C 
ATOM     24  C   UNL     1      35.737 -20.648 -19.793  0.00  0.00    +0.068 C 
BRANCH  24  26
ATOM     25  N   UNL     1      35.967 -22.176 -17.714  0.00  0.00    -0.191 NA
ATOM     26  C   UNL     1      35.864 -21.492 -18.646  0.00  0.00    +0.100 C 
ENDBRANCH  24  26
ENDBRANCH   8  19
TORSDOF 4
ENDMDL
MODEL 9
REMARK VINA RESULT:      -8.5      3.696     10.540
REMARK  Name = 9797857
REMARK  4 active torsions:
REMARK  status: ('A' for Active; 'I' for Inactive)
REMARK    1  A    between atoms: C_3  and  N_9
REMARK    2  A    between atoms: C_8  and  C_19
REMARK    3  A    between atoms: C_13  and  O_17
REMARK    4  A    between atoms: C_24  and  C_26
REMARK                            x       y       z     vdW  Elec       q    Type
REMARK                         _______ _______ _______ _____ _____    ______ ____
ROOT
ATOM      1  O   UNL     1      36.145 -23.396 -16.286  0.00  0.00    -0.270 OA
ATOM      2  N   UNL     1      35.213 -21.927 -17.849  0.00  0.00    -0.276 N 
ATOM      3  C   UNL     1      35.404 -21.120 -20.636  0.00  0.00    +0.074 C 
ATOM      4  C   UNL     1      34.074 -21.545 -20.002  0.00  0.00    +0.041 C 
ATOM      5  C   UNL     1      36.599 -21.704 -19.874  0.00  0.00    +0.041 C 
ATOM      6  C   UNL     1      34.045 -21.309 -18.490  0.00  0.00    +0.095 C 
ATOM      7  C   UNL     1      36.505 -21.477 -18.366  0.00  0.00    +0.095 C 
ATOM      8  C   UNL     1      35.171 -22.875 -16.826  0.00  0.00    +0.249 C 
ENDROOT
BRANCH   3   9
ATOM      9  N   UNL     1      35.491 -19.674 -20.682  0.00  0.00    -0.320 N 
ATOM     10  N   UNL     1      34.901 -19.558 -22.988  0.00  0.00    -0.229 NA
ATOM     11  C   UNL     1      35.246 -18.930 -21.822  0.00  0.00    +0.132 C 
ATOM     12  C   UNL     1      35.359 -17.535 -21.747  0.00  0.00    +0.071 C 
ATOM     13  C   UNL     1      35.116 -16.774 -22.885  0.00  0.00    +0.143 C 
ATOM     14  C   UNL     1      34.672 -18.786 -24.073  0.00  0.00    +0.103 C 
ATOM     15  C   UNL     1      34.766 -17.404 -24.074  0.00  0.00    +0.058 C 
ATOM     16  H   UNL     1      35.738 -19.196 -19.858  0.00  0.00    +0.148 HD
BRANCH  13  17
ATOM     17  O   UNL     1      35.221 -15.418 -22.835  0.00  0.00    -0.471 OA
ATOM     18  C   UNL     1      34.185 -14.663 -23.461  0.00  0.00    +0.252 C 
ENDBRANCH  13  17
ENDBRANCH   3   9
BRANCH   8  19
ATOM     19  C   UNL     1      33.856 -23.305 -16.339  0.00  0.00    +0.054 C 
ATOM     20  C   UNL     1      32.743 -23.204 -17.169  0.00  0.00    +0.005 C 
ATOM     21  C   UNL     1      33.726 -23.809 -15.048  0.00  0.00    +0.005 C 
ATOM     22  C   UNL     1      31.492 -23.612 -16.706  0.00  0.00    +0.010 C 
ATOM     23  C   UNL     1      32.475 -24.217 -14.584  0.00  0.00    +0.010 C 
ATOM     24  C   UNL     1      31.358 -24.118 -15.413  0.00  0.00    +0.068 C 
BRANCH  24  26
ATOM     25  N   UNL     1      29.034 -24.874 -14.552  0.00  0.00    -0.191 NA
ATOM     26  C   UNL     1      30.076 -24.535 -14.938  0.00  0.00    +0.100 C 
ENDBRANCH  24  26
ENDBRANCH   8  19
TORSDOF 4
ENDMDL
