MODEL 1
REMARK VINA RESULT:      -7.4      0.000      0.000
REMARK  Name = 60613
REMARK  9 active torsions:
REMARK  status: ('A' for Active; 'I' for Inactive)
REMARK    1  A    between atoms: C_1  and  O_2
REMARK    2  A    between atoms: C_1  and  C_10
REMARK    3  A    between atoms: C_1  and  C_21
REMARK    4  A    between atoms: O_2  and  C_3
REMARK    5  A    between atoms: C_3  and  P_4
REMARK    6  A    between atoms: P_4  and  O_6
REMARK    7  A    between atoms: P_4  and  O_8
REMARK    8  A    between atoms: C_10  and  N_12
REMARK    9  A    between atoms: C_21  and  O_22
REMARK                            x       y       z     vdW  Elec       q    Type
REMARK                         _______ _______ _______ _____ _____    ______ ____
ROOT
ATOM      1  C   UNL     1      36.413 -24.687 -14.667  0.00  0.00    +0.166 C 
ENDROOT
BRANCH   1   2
ATOM      2  O   UNL     1      36.156 -25.013 -13.300  0.00  0.00    -0.340 OA
BRANCH   2   3
ATOM      3  C   UNL     1      35.668 -23.889 -12.586  0.00  0.00    +0.258 C 
BRANCH   3   4
ATOM      4  P   UNL     1      36.691 -23.803 -11.132  0.00  0.00    +0.367 P 
ATOM      5  O   UNL     1      35.989 -24.130  -9.848  0.00  0.00    -0.256 OA
BRANCH   4   6
ATOM      6  O   UNL     1      37.338 -22.324 -11.206  0.00  0.00    -0.322 OA
ATOM      7  H   UNL     1      37.664 -22.158 -12.105  0.00  0.00    +0.220 HD
ENDBRANCH   4   6
BRANCH   4   8
ATOM      8  O   UNL     1      37.933 -24.771 -11.497  0.00  0.00    -0.322 OA
ATOM      9  H   UNL     1      38.364 -25.068 -10.680  0.00  0.00    +0.220 HD
ENDBRANCH   4   8
ENDBRANCH   3   4
ENDBRANCH   2   3
ENDBRANCH   1   2
BRANCH   1  10
ATOM     10  C   UNL     1      36.094 -23.214 -14.910  0.00  0.00    +0.141 C 
BRANCH  10  12
ATOM     11  O   UNL     1      37.107 -22.009 -17.247  0.00  0.00    -0.193 OA
ATOM     12  N   UNL     1      35.340 -22.992 -16.138  0.00  0.00    -0.202 N 
ATOM     13  N   UNL     1      35.156 -22.203 -18.391  0.00  0.00    -0.306 NA
ATOM     14  N   UNL     1      33.154 -22.403 -19.557  0.00  0.00    -0.332 N 
ATOM     15  C   UNL     1      34.025 -23.399 -16.169  0.00  0.00    +0.081 C 
ATOM     16  C   UNL     1      35.932 -22.381 -17.258  0.00  0.00    +0.274 C 
ATOM     17  C   UNL     1      33.263 -23.236 -17.248  0.00  0.00    +0.065 C 
ATOM     18  C   UNL     1      33.908 -22.590 -18.421  0.00  0.00    +0.193 C 
ATOM     19  H   UNL     1      33.555 -21.978 -20.350  0.00  0.00    +0.145 HD
ATOM     20  H   UNL     1      32.214 -22.696 -19.577  0.00  0.00    +0.145 HD
ENDBRANCH  10  12
ENDBRANCH   1  10
BRANCH   1  21
ATOM     21  C   UNL     1      37.862 -25.047 -14.981  0.00  0.00    +0.168 C 
BRANCH  21  22
ATOM     22  O   UNL     1      38.548 -23.872 -15.399  0.00  0.00    -0.379 OA
ATOM     23  H   UNL     1      38.722 -23.920 -16.352  0.00  0.00    +0.211 HD
ENDBRANCH  21  22
ENDBRANCH   1  21
TORSDOF 9
ENDMDL
MODEL 2
REMARK VINA RESULT:      -7.3      2.292      3.756
REMARK  Name = 60613
REMARK  9 active torsions:
REMARK  status: ('A' for Active; 'I' for Inactive)
REMARK    1  A    between atoms: C_1  and  O_2
REMARK    2  A    between atoms: C_1  and  C_10
REMARK    3  A    between atoms: C_1  and  C_21
REMARK    4  A    between atoms: O_2  and  C_3
REMARK    5  A    between atoms: C_3  and  P_4
REMARK    6  A    between atoms: P_4  and  O_6
REMARK    7  A    between atoms: P_4  and  O_8
REMARK    8  A    between atoms: C_10  and  N_12
REMARK    9  A    between atoms: C_21  and  O_22
REMARK                            x       y       z     vdW  Elec       q    Type
REMARK                         _______ _______ _______ _____ _____    ______ ____
ROOT
ATOM      1  C   UNL     1      37.079 -23.478 -12.756  0.00  0.00    +0.166 C 
ENDROOT
BRANCH   1   2
ATOM      2  O   UNL     1      38.411 -23.809 -13.149  0.00  0.00    -0.340 OA
BRANCH   2   3
ATOM      3  C   UNL     1      38.642 -25.206 -13.063  0.00  0.00    +0.258 C 
BRANCH   3   4
ATOM      4  P   UNL     1      39.483 -25.614 -14.578  0.00  0.00    +0.367 P 
ATOM      5  O   UNL     1      40.832 -26.243 -14.399  0.00  0.00    -0.256 OA
BRANCH   4   6
ATOM      6  O   UNL     1      39.474 -24.227 -15.407  0.00  0.00    -0.322 OA
ATOM      7  H   UNL     1      38.942 -24.334 -16.211  0.00  0.00    +0.220 HD
ENDBRANCH   4   6
BRANCH   4   8
ATOM      8  O   UNL     1      38.404 -26.525 -15.365  0.00  0.00    -0.322 OA
ATOM      9  H   UNL     1      37.721 -25.955 -15.754  0.00  0.00    +0.220 HD
ENDBRANCH   4   8
ENDBRANCH   3   4
ENDBRANCH   2   3
ENDBRANCH   1   2
BRANCH   1  10
ATOM     10  C   UNL     1      36.143 -24.636 -13.097  0.00  0.00    +0.141 C 
BRANCH  10  12
ATOM     11  O   UNL     1      36.478 -24.258 -15.869  0.00  0.00    -0.193 OA
ATOM     12  N   UNL     1      35.087 -24.257 -14.029  0.00  0.00    -0.202 N 
ATOM     13  N   UNL     1      34.300 -23.731 -16.228  0.00  0.00    -0.306 NA
ATOM     14  N   UNL     1      32.067 -23.190 -16.588  0.00  0.00    -0.332 N 
ATOM     15  C   UNL     1      33.822 -24.065 -13.525  0.00  0.00    +0.081 C 
ATOM     16  C   UNL     1      35.351 -24.091 -15.401  0.00  0.00    +0.274 C 
ATOM     17  C   UNL     1      32.799 -23.718 -14.304  0.00  0.00    +0.065 C 
ATOM     18  C   UNL     1      33.097 -23.548 -15.749  0.00  0.00    +0.193 C 
ATOM     19  H   UNL     1      32.235 -23.071 -17.551  0.00  0.00    +0.145 HD
ATOM     20  H   UNL     1      31.162 -23.053 -16.226  0.00  0.00    +0.145 HD
ENDBRANCH  10  12
ENDBRANCH   1  10
BRANCH   1  21
ATOM     21  C   UNL     1      37.089 -23.133 -11.270  0.00  0.00    +0.168 C 
BRANCH  21  22
ATOM     22  O   UNL     1      36.412 -24.160 -10.554  0.00  0.00    -0.379 OA
ATOM     23  H   UNL     1      37.016 -24.904 -10.408  0.00  0.00    +0.211 HD
ENDBRANCH  21  22
ENDBRANCH   1  21
TORSDOF 9
ENDMDL
MODEL 3
REMARK VINA RESULT:      -7.2      2.845      4.299
REMARK  Name = 60613
REMARK  9 active torsions:
REMARK  status: ('A' for Active; 'I' for Inactive)
REMARK    1  A    between atoms: C_1  and  O_2
REMARK    2  A    between atoms: C_1  and  C_10
REMARK    3  A    between atoms: C_1  and  C_21
REMARK    4  A    between atoms: O_2  and  C_3
REMARK    5  A    between atoms: C_3  and  P_4
REMARK    6  A    between atoms: P_4  and  O_6
REMARK    7  A    between atoms: P_4  and  O_8
REMARK    8  A    between atoms: C_10  and  N_12
REMARK    9  A    between atoms: C_21  and  O_22
REMARK                            x       y       z     vdW  Elec       q    Type
REMARK                         _______ _______ _______ _____ _____    ______ ____
ROOT
ATOM      1  C   UNL     1      35.705 -23.257 -16.025  0.00  0.00    +0.166 C 
ENDROOT
BRANCH   1   2
ATOM      2  O   UNL     1      36.133 -24.602 -15.809  0.00  0.00    -0.340 OA
BRANCH   2   3
ATOM      3  C   UNL     1      37.147 -24.667 -14.820  0.00  0.00    +0.258 C 
BRANCH   3   4
ATOM      4  P   UNL     1      37.207 -26.385 -14.354  0.00  0.00    +0.367 P 
ATOM      5  O   UNL     1      38.532 -27.051 -14.577  0.00  0.00    -0.256 OA
BRANCH   4   6
ATOM      6  O   UNL     1      35.963 -27.041 -15.149  0.00  0.00    -0.322 OA
ATOM      7  H   UNL     1      35.602 -27.779 -14.633  0.00  0.00    +0.220 HD
ENDBRANCH   4   6
BRANCH   4   8
ATOM      8  O   UNL     1      36.701 -26.368 -12.819  0.00  0.00    -0.322 OA
ATOM      9  H   UNL     1      36.422 -25.470 -12.579  0.00  0.00    +0.220 HD
ENDBRANCH   4   8
ENDBRANCH   3   4
ENDBRANCH   2   3
ENDBRANCH   1   2
BRANCH   1  10
ATOM     10  C   UNL     1      34.936 -22.763 -14.802  0.00  0.00    +0.141 C 
BRANCH  10  12
ATOM     11  O   UNL     1      34.320 -24.463 -12.641  0.00  0.00    -0.193 OA
ATOM     12  N   UNL     1      33.668 -23.456 -14.610  0.00  0.00    -0.202 N 
ATOM     13  N   UNL     1      32.222 -24.913 -13.379  0.00  0.00    -0.306 NA
ATOM     14  N   UNL     1      30.073 -25.373 -14.142  0.00  0.00    -0.332 N 
ATOM     15  C   UNL     1      32.685 -23.274 -15.557  0.00  0.00    +0.081 C 
ATOM     16  C   UNL     1      33.451 -24.286 -13.496  0.00  0.00    +0.274 C 
ATOM     17  C   UNL     1      31.497 -23.868 -15.462  0.00  0.00    +0.065 C 
ATOM     18  C   UNL     1      31.288 -24.740 -14.277  0.00  0.00    +0.193 C 
ATOM     19  H   UNL     1      29.906 -25.957 -13.367  0.00  0.00    +0.145 HD
ATOM     20  H   UNL     1      29.372 -25.240 -14.819  0.00  0.00    +0.145 HD
ENDBRANCH  10  12
ENDBRANCH   1  10
BRANCH   1  21
ATOM     21  C   UNL     1      36.931 -22.409 -16.346  0.00  0.00    +0.168 C 
BRANCH  21  22
ATOM     22  O   UNL     1      36.806 -21.902 -17.671  0.00  0.00    -0.379 OA
ATOM     23  H   UNL     1      36.551 -20.967 -17.636  0.00  0.00    +0.211 HD
ENDBRANCH  21  22
ENDBRANCH   1  21
TORSDOF 9
ENDMDL
MODEL 4
REMARK VINA RESULT:      -7.2      1.997      2.638
REMARK  Name = 60613
REMARK  9 active torsions:
REMARK  status: ('A' for Active; 'I' for Inactive)
REMARK    1  A    between atoms: C_1  and  O_2
REMARK    2  A    between atoms: C_1  and  C_10
REMARK    3  A    between atoms: C_1  and  C_21
REMARK    4  A    between atoms: O_2  and  C_3
REMARK    5  A    between atoms: C_3  and  P_4
REMARK    6  A    between atoms: P_4  and  O_6
REMARK    7  A    between atoms: P_4  and  O_8
REMARK    8  A    between atoms: C_10  and  N_12
REMARK    9  A    between atoms: C_21  and  O_22
REMARK                            x       y       z     vdW  Elec       q    Type
REMARK                         _______ _______ _______ _____ _____    ______ ____
ROOT
ATOM      1  C   UNL     1      35.136 -24.887 -14.501  0.00  0.00    +0.166 C 
ENDROOT
BRANCH   1   2
ATOM      2  O   UNL     1      35.481 -24.649 -13.135  0.00  0.00    -0.340 OA
BRANCH   2   3
ATOM      3  C   UNL     1      36.230 -23.453 -12.994  0.00  0.00    +0.258 C 
BRANCH   3   4
ATOM      4  P   UNL     1      37.414 -23.814 -11.715  0.00  0.00    +0.367 P 
ATOM      5  O   UNL     1      38.564 -22.855 -11.632  0.00  0.00    -0.256 OA
BRANCH   4   6
ATOM      6  O   UNL     1      37.819 -25.353 -11.992  0.00  0.00    -0.322 OA
ATOM      7  H   UNL     1      37.400 -25.655 -12.814  0.00  0.00    +0.220 HD
ENDBRANCH   4   6
BRANCH   4   8
ATOM      8  O   UNL     1      36.502 -23.903 -10.383  0.00  0.00    -0.322 OA
ATOM      9  H   UNL     1      35.604 -23.594 -10.583  0.00  0.00    +0.220 HD
ENDBRANCH   4   8
ENDBRANCH   3   4
ENDBRANCH   2   3
ENDBRANCH   1   2
BRANCH   1  10
ATOM     10  C   UNL     1      34.970 -23.553 -15.225  0.00  0.00    +0.141 C 
BRANCH  10  12
ATOM     11  O   UNL     1      34.165 -23.337 -17.917  0.00  0.00    -0.193 OA
ATOM     12  N   UNL     1      33.603 -23.321 -15.681  0.00  0.00    -0.202 N 
ATOM     13  N   UNL     1      31.978 -23.008 -17.410  0.00  0.00    -0.306 NA
ATOM     14  N   UNL     1      29.738 -22.670 -16.882  0.00  0.00    -0.332 N 
ATOM     15  C   UNL     1      32.619 -23.195 -14.727  0.00  0.00    +0.081 C 
ATOM     16  C   UNL     1      33.297 -23.228 -17.050  0.00  0.00    +0.274 C 
ATOM     17  C   UNL     1      31.346 -22.983 -15.052  0.00  0.00    +0.065 C 
ATOM     18  C   UNL     1      31.043 -22.888 -16.504  0.00  0.00    +0.193 C 
ATOM     19  H   UNL     1      29.507 -22.603 -17.837  0.00  0.00    +0.145 HD
ATOM     20  H   UNL     1      29.036 -22.581 -16.198  0.00  0.00    +0.145 HD
ENDBRANCH  10  12
ENDBRANCH   1  10
BRANCH   1  21
ATOM     21  C   UNL     1      36.210 -25.776 -15.119  0.00  0.00    +0.168 C 
BRANCH  21  22
ATOM     22  O   UNL     1      36.554 -26.797 -14.188  0.00  0.00    -0.379 OA
ATOM     23  H   UNL     1      36.112 -26.626 -13.342  0.00  0.00    +0.211 HD
ENDBRANCH  21  22
ENDBRANCH   1  21
TORSDOF 9
ENDMDL
MODEL 5
REMARK VINA RESULT:      -7.2      2.372      3.928
REMARK  Name = 60613
REMARK  9 active torsions:
REMARK  status: ('A' for Active; 'I' for Inactive)
REMARK    1  A    between atoms: C_1  and  O_2
REMARK    2  A    between atoms: C_1  and  C_10
REMARK    3  A    between atoms: C_1  and  C_21
REMARK    4  A    between atoms: O_2  and  C_3
REMARK    5  A    between atoms: C_3  and  P_4
REMARK    6  A    between atoms: P_4  and  O_6
REMARK    7  A    between atoms: P_4  and  O_8
REMARK    8  A    between atoms: C_10  and  N_12
REMARK    9  A    between atoms: C_21  and  O_22
REMARK                            x       y       z     vdW  Elec       q    Type
REMARK                         _______ _______ _______ _____ _____    ______ ____
ROOT
ATOM      1  C   UNL     1      36.023 -23.584 -13.342  0.00  0.00    +0.166 C 
ENDROOT
BRANCH   1   2
ATOM      2  O   UNL     1      37.398 -23.470 -13.712  0.00  0.00    -0.340 OA
BRANCH   2   3
ATOM      3  C   UNL     1      38.139 -24.605 -13.294  0.00  0.00    +0.258 C 
BRANCH   3   4
ATOM      4  P   UNL     1      39.250 -24.936 -14.646  0.00  0.00    +0.367 P 
ATOM      5  O   UNL     1      40.696 -25.036 -14.263  0.00  0.00    -0.256 OA
BRANCH   4   6
ATOM      6  O   UNL     1      38.900 -23.781 -15.720  0.00  0.00    -0.322 OA
ATOM      7  H   UNL     1      38.101 -23.308 -15.438  0.00  0.00    +0.220 HD
ENDBRANCH   4   6
BRANCH   4   8
ATOM      8  O   UNL     1      38.627 -26.269 -15.317  0.00  0.00    -0.322 OA
ATOM      9  H   UNL     1      37.680 -26.321 -15.115  0.00  0.00    +0.220 HD
ENDBRANCH   4   8
ENDBRANCH   3   4
ENDBRANCH   2   3
ENDBRANCH   1   2
BRANCH   1  10
ATOM     10  C   UNL     1      35.348 -24.648 -14.204  0.00  0.00    +0.141 C 
BRANCH  10  12
ATOM     11  O   UNL     1      32.714 -24.657 -13.203  0.00  0.00    -0.193 OA
ATOM     12  N   UNL     1      34.176 -24.145 -14.912  0.00  0.00    -0.202 N 
ATOM     13  N   UNL     1      31.829 -23.695 -15.059  0.00  0.00    -0.306 NA
ATOM     14  N   UNL     1      30.929 -22.711 -16.964  0.00  0.00    -0.332 N 
ATOM     15  C   UNL     1      34.360 -23.623 -16.172  0.00  0.00    +0.081 C 
ATOM     16  C   UNL     1      32.897 -24.191 -14.329  0.00  0.00    +0.274 C 
ATOM     17  C   UNL     1      33.347 -23.141 -16.889  0.00  0.00    +0.065 C 
ATOM     18  C   UNL     1      32.004 -23.198 -16.256  0.00  0.00    +0.193 C 
ATOM     19  H   UNL     1      30.027 -22.735 -16.570  0.00  0.00    +0.145 HD
ATOM     20  H   UNL     1      31.063 -22.337 -17.865  0.00  0.00    +0.145 HD
ENDBRANCH  10  12
ENDBRANCH   1  10
BRANCH   1  21
ATOM     21  C   UNL     1      35.953 -23.888 -11.849  0.00  0.00    +0.168 C 
BRANCH  21  22
ATOM     22  O   UNL     1      35.066 -24.982 -11.643  0.00  0.00    -0.379 OA
ATOM     23  H   UNL     1      35.556 -25.815 -11.726  0.00  0.00    +0.211 HD
ENDBRANCH  21  22
ENDBRANCH   1  21
TORSDOF 9
ENDMDL
MODEL 6
REMARK VINA RESULT:      -7.1      3.388      4.934
REMARK  Name = 60613
REMARK  9 active torsions:
REMARK  status: ('A' for Active; 'I' for Inactive)
REMARK    1  A    between atoms: C_1  and  O_2
REMARK    2  A    between atoms: C_1  and  C_10
REMARK    3  A    between atoms: C_1  and  C_21
REMARK    4  A    between atoms: O_2  and  C_3
REMARK    5  A    between atoms: C_3  and  P_4
REMARK    6  A    between atoms: P_4  and  O_6
REMARK    7  A    between atoms: P_4  and  O_8
REMARK    8  A    between atoms: C_10  and  N_12
REMARK    9  A    between atoms: C_21  and  O_22
REMARK                            x       y       z     vdW  Elec       q    Type
REMARK                         _______ _______ _______ _____ _____    ______ ____
ROOT
ATOM      1  C   UNL     1      34.687 -22.278 -17.852  0.00  0.00    +0.166 C 
ENDROOT
BRANCH   1   2
ATOM      2  O   UNL     1      35.860 -22.757 -17.192  0.00  0.00    -0.340 OA
BRANCH   2   3
ATOM      3  C   UNL     1      35.696 -22.752 -15.783  0.00  0.00    +0.258 C 
BRANCH   3   4
ATOM      4  P   UNL     1      37.180 -23.511 -15.157  0.00  0.00    +0.367 P 
ATOM      5  O   UNL     1      37.464 -23.239 -13.710  0.00  0.00    -0.256 OA
BRANCH   4   6
ATOM      6  O   UNL     1      38.324 -23.021 -16.188  0.00  0.00    -0.322 OA
ATOM      7  H   UNL     1      38.406 -22.055 -16.145  0.00  0.00    +0.220 HD
ENDBRANCH   4   6
BRANCH   4   8
ATOM      8  O   UNL     1      36.984 -25.071 -15.533  0.00  0.00    -0.322 OA
ATOM      9  H   UNL     1      37.636 -25.327 -16.205  0.00  0.00    +0.220 HD
ENDBRANCH   4   8
ENDBRANCH   3   4
ENDBRANCH   2   3
ENDBRANCH   1   2
BRANCH   1  10
ATOM     10  C   UNL     1      34.883 -22.360 -19.364  0.00  0.00    +0.141 C 
BRANCH  10  12
ATOM     11  O   UNL     1      32.681 -20.845 -20.256  0.00  0.00    -0.193 OA
ATOM     12  N   UNL     1      34.963 -21.048 -19.997  0.00  0.00    -0.202 N 
ATOM     13  N   UNL     1      33.957 -19.123 -21.004  0.00  0.00    -0.306 NA
ATOM     14  N   UNL     1      35.271 -17.364 -21.770  0.00  0.00    -0.332 N 
ATOM     15  C   UNL     1      36.211 -20.497 -20.180  0.00  0.00    +0.081 C 
ATOM     16  C   UNL     1      33.806 -20.366 -20.410  0.00  0.00    +0.274 C 
ATOM     17  C   UNL     1      36.378 -19.305 -20.749  0.00  0.00    +0.065 C 
ATOM     18  C   UNL     1      35.143 -18.600 -21.178  0.00  0.00    +0.193 C 
ATOM     19  H   UNL     1      34.470 -16.873 -22.064  0.00  0.00    +0.145 HD
ATOM     20  H   UNL     1      36.165 -16.972 -21.899  0.00  0.00    +0.145 HD
ENDBRANCH  10  12
ENDBRANCH   1  10
BRANCH   1  21
ATOM     21  C   UNL     1      33.494 -23.088 -17.356  0.00  0.00    +0.168 C 
BRANCH  21  22
ATOM     22  O   UNL     1      32.318 -22.623 -18.011  0.00  0.00    -0.379 OA
ATOM     23  H   UNL     1      32.556 -21.937 -18.654  0.00  0.00    +0.211 HD
ENDBRANCH  21  22
ENDBRANCH   1  21
TORSDOF 9
ENDMDL
MODEL 7
REMARK VINA RESULT:      -7.0      7.658     10.652
REMARK  Name = 60613
REMARK  9 active torsions:
REMARK  status: ('A' for Active; 'I' for Inactive)
REMARK    1  A    between atoms: C_1  and  O_2
REMARK    2  A    between atoms: C_1  and  C_10
REMARK    3  A    between atoms: C_1  and  C_21
REMARK    4  A    between atoms: O_2  and  C_3
REMARK    5  A    between atoms: C_3  and  P_4
REMARK    6  A    between atoms: P_4  and  O_6
REMARK    7  A    between atoms: P_4  and  O_8
REMARK    8  A    between atoms: C_10  and  N_12
REMARK    9  A    between atoms: C_21  and  O_22
REMARK                            x       y       z     vdW  Elec       q    Type
REMARK                         _______ _______ _______ _____ _____    ______ ____
ROOT
ATOM      1  C   UNL     1      34.694 -16.753 -21.726  0.00  0.00    +0.166 C 
ENDROOT
BRANCH   1   2
ATOM      2  O   UNL     1      35.157 -15.872 -22.750  0.00  0.00    -0.340 OA
BRANCH   2   3
ATOM      3  C   UNL     1      34.337 -15.949 -23.904  0.00  0.00    +0.258 C 
BRANCH   3   4
ATOM      4  P   UNL     1      33.410 -14.428 -23.897  0.00  0.00    +0.367 P 
ATOM      5  O   UNL     1      32.767 -14.077 -25.205  0.00  0.00    -0.256 OA
BRANCH   4   6
ATOM      6  O   UNL     1      34.464 -13.341 -23.333  0.00  0.00    -0.322 OA
ATOM      7  H   UNL     1      34.750 -12.761 -24.057  0.00  0.00    +0.220 HD
ENDBRANCH   4   6
BRANCH   4   8
ATOM      8  O   UNL     1      32.385 -14.627 -22.663  0.00  0.00    -0.322 OA
ATOM      9  H   UNL     1      32.811 -14.344 -21.839  0.00  0.00    +0.220 HD
ENDBRANCH   4   8
ENDBRANCH   3   4
ENDBRANCH   2   3
ENDBRANCH   1   2
BRANCH   1  10
ATOM     10  C   UNL     1      35.570 -18.004 -21.694  0.00  0.00    +0.141 C 
BRANCH  10  12
ATOM     11  O   UNL     1      36.900 -19.952 -20.152  0.00  0.00    -0.193 OA
ATOM     12  N   UNL     1      34.930 -19.129 -21.022  0.00  0.00    -0.202 N 
ATOM     13  N   UNL     1      35.003 -21.096 -19.660  0.00  0.00    -0.306 NA
ATOM     14  N   UNL     1      33.056 -22.265 -19.161  0.00  0.00    -0.332 N 
ATOM     15  C   UNL     1      33.565 -19.260 -21.145  0.00  0.00    +0.081 C 
ATOM     16  C   UNL     1      35.678 -20.053 -20.272  0.00  0.00    +0.274 C 
ATOM     17  C   UNL     1      32.898 -20.255 -20.565  0.00  0.00    +0.065 C 
ATOM     18  C   UNL     1      33.707 -21.220 -19.776  0.00  0.00    +0.193 C 
ATOM     19  H   UNL     1      33.565 -22.920 -18.631  0.00  0.00    +0.145 HD
ATOM     20  H   UNL     1      32.079 -22.356 -19.249  0.00  0.00    +0.145 HD
ENDBRANCH  10  12
ENDBRANCH   1  10
BRANCH   1  21
ATOM     21  C   UNL     1      34.688 -15.992 -20.404  0.00  0.00    +0.168 C 
BRANCH  21  22
ATOM     22  O   UNL     1      34.920 -14.612 -20.667  0.00  0.00    -0.379 OA
ATOM     23  H   UNL     1      35.798 -14.502 -21.065  0.00  0.00    +0.211 HD
ENDBRANCH  21  22
ENDBRANCH   1  21
TORSDOF 9
ENDMDL
MODEL 8
REMARK VINA RESULT:      -7.0      2.689      3.875
REMARK  Name = 60613
REMARK  9 active torsions:
REMARK  status: ('A' for Active; 'I' for Inactive)
REMARK    1  A    between atoms: C_1  and  O_2
REMARK    2  A    between atoms: C_1  and  C_10
REMARK    3  A    between atoms: C_1  and  C_21
REMARK    4  A    between atoms: O_2  and  C_3
REMARK    5  A    between atoms: C_3  and  P_4
REMARK    6  A    between atoms: P_4  and  O_6
REMARK    7  A    between atoms: P_4  and  O_8
REMARK    8  A    between atoms: C_10  and  N_12
REMARK    9  A    between atoms: C_21  and  O_22
REMARK                            x       y       z     vdW  Elec       q    Type
REMARK                         _______ _______ _______ _____ _____    ______ ____
ROOT
ATOM      1  C   UNL     1      34.829 -23.773 -15.344  0.00  0.00    +0.166 C 
ENDROOT
BRANCH   1   2
ATOM      2  O   UNL     1      35.593 -24.971 -15.497  0.00  0.00    -0.340 OA
BRANCH   2   3
ATOM      3  C   UNL     1      36.851 -24.865 -14.851  0.00  0.00    +0.258 C 
BRANCH   3   4
ATOM      4  P   UNL     1      37.470 -26.534 -14.801  0.00  0.00    +0.367 P 
ATOM      5  O   UNL     1      38.962 -26.649 -14.710  0.00  0.00    -0.256 OA
BRANCH   4   6
ATOM      6  O   UNL     1      36.802 -27.228 -16.098  0.00  0.00    -0.322 OA
ATOM      7  H   UNL     1      37.502 -27.565 -16.681  0.00  0.00    +0.220 HD
ENDBRANCH   4   6
BRANCH   4   8
ATOM      8  O   UNL     1      36.658 -27.192 -13.568  0.00  0.00    -0.322 OA
ATOM      9  H   UNL     1      37.018 -26.861 -12.729  0.00  0.00    +0.220 HD
ENDBRANCH   4   8
ENDBRANCH   3   4
ENDBRANCH   2   3
ENDBRANCH   1   2
BRANCH   1  10
ATOM     10  C   UNL     1      33.999 -23.533 -16.603  0.00  0.00    +0.141 C 
BRANCH  10  12
ATOM     11  O   UNL     1      32.820 -22.484 -18.938  0.00  0.00    -0.193 OA
ATOM     12  N   UNL     1      34.664 -22.660 -17.564  0.00  0.00    -0.202 N 
ATOM     13  N   UNL     1      34.686 -21.358 -19.573  0.00  0.00    -0.306 NA
ATOM     14  N   UNL     1      36.601 -20.208 -20.218  0.00  0.00    -0.332 N 
ATOM     15  C   UNL     1      35.974 -22.315 -17.321  0.00  0.00    +0.081 C 
ATOM     16  C   UNL     1      33.992 -22.184 -18.704  0.00  0.00    +0.274 C 
ATOM     17  C   UNL     1      36.657 -21.523 -18.144  0.00  0.00    +0.065 C 
ATOM     18  C   UNL     1      35.930 -21.030 -19.342  0.00  0.00    +0.193 C 
ATOM     19  H   UNL     1      36.145 -19.866 -21.021  0.00  0.00    +0.145 HD
ATOM     20  H   UNL     1      37.538 -19.962 -20.042  0.00  0.00    +0.145 HD
ENDBRANCH  10  12
ENDBRANCH   1  10
BRANCH   1  21
ATOM     21  C   UNL     1      33.983 -23.901 -14.082  0.00  0.00    +0.168 C 
BRANCH  21  22
ATOM     22  O   UNL     1      33.337 -25.170 -14.088  0.00  0.00    -0.379 OA
ATOM     23  H   UNL     1      33.564 -25.653 -13.278  0.00  0.00    +0.211 HD
ENDBRANCH  21  22
ENDBRANCH   1  21
TORSDOF 9
ENDMDL
MODEL 9
REMARK VINA RESULT:      -7.0      8.234     11.282
REMARK  Name = 60613
REMARK  9 active torsions:
REMARK  status: ('A' for Active; 'I' for Inactive)
REMARK    1  A    between atoms: C_1  and  O_2
REMARK    2  A    between atoms: C_1  and  C_10
REMARK    3  A    between atoms: C_1  and  C_21
REMARK    4  A    between atoms: O_2  and  C_3
REMARK    5  A    between atoms: C_3  and  P_4
REMARK    6  A    between atoms: P_4  and  O_6
REMARK    7  A    between atoms: P_4  and  O_8
REMARK    8  A    between atoms: C_10  and  N_12
REMARK    9  A    between atoms: C_21  and  O_22
REMARK                            x       y       z     vdW  Elec       q    Type
REMARK                         _______ _______ _______ _____ _____    ______ ____
ROOT
ATOM      1  C   UNL     1      35.163 -17.171 -23.407  0.00  0.00    +0.166 C 
ENDROOT
BRANCH   1   2
ATOM      2  O   UNL     1      35.243 -15.751 -23.540  0.00  0.00    -0.340 OA
BRANCH   2   3
ATOM      3  C   UNL     1      34.342 -15.100 -22.658  0.00  0.00    +0.258 C 
BRANCH   3   4
ATOM      4  P   UNL     1      33.382 -14.030 -23.709  0.00  0.00    +0.367 P 
ATOM      5  O   UNL     1      33.049 -14.602 -25.054  0.00  0.00    -0.256 OA
BRANCH   4   6
ATOM      6  O   UNL     1      34.234 -12.657 -23.737  0.00  0.00    -0.322 OA
ATOM      7  H   UNL     1      35.082 -12.793 -23.285  0.00  0.00    +0.220 HD
ENDBRANCH   4   6
BRANCH   4   8
ATOM      8  O   UNL     1      32.106 -13.658 -22.790  0.00  0.00    -0.322 OA
ATOM      9  H   UNL     1      32.040 -14.290 -22.056  0.00  0.00    +0.220 HD
ENDBRANCH   4   8
ENDBRANCH   3   4
ENDBRANCH   2   3
ENDBRANCH   1   2
BRANCH   1  10
ATOM     10  C   UNL     1      34.312 -17.522 -22.188  0.00  0.00    +0.141 C 
BRANCH  10  12
ATOM     11  O   UNL     1      32.808 -19.583 -20.991  0.00  0.00    -0.193 OA
ATOM     12  N   UNL     1      34.864 -18.625 -21.410  0.00  0.00    -0.202 N 
ATOM     13  N   UNL     1      34.625 -20.630 -20.122  0.00  0.00    -0.306 NA
ATOM     14  N   UNL     1      36.491 -21.695 -19.233  0.00  0.00    -0.332 N 
ATOM     15  C   UNL     1      36.229 -18.673 -21.238  0.00  0.00    +0.081 C 
ATOM     16  C   UNL     1      34.032 -19.611 -20.849  0.00  0.00    +0.274 C 
ATOM     17  C   UNL     1      36.818 -19.643 -20.543  0.00  0.00    +0.065 C 
ATOM     18  C   UNL     1      35.922 -20.675 -19.960  0.00  0.00    +0.193 C 
ATOM     19  H   UNL     1      35.923 -22.394 -18.835  0.00  0.00    +0.145 HD
ATOM     20  H   UNL     1      37.468 -21.728 -19.113  0.00  0.00    +0.145 HD
ENDBRANCH  10  12
ENDBRANCH   1  10
BRANCH   1  21
ATOM     21  C   UNL     1      34.614 -17.745 -24.708  0.00  0.00    +0.168 C 
BRANCH  21  22
ATOM     22  O   UNL     1      34.867 -16.821 -25.762  0.00  0.00    -0.379 OA
ATOM     23  H   UNL     1      34.857 -17.289 -26.611  0.00  0.00    +0.211 HD
ENDBRANCH  21  22
ENDBRANCH   1  21
TORSDOF 9
ENDMDL
