MODEL 1
REMARK VINA RESULT:      -8.9      0.000      0.000
REMARK  Name = 5904
REMARK  5 active torsions:
REMARK  status: ('A' for Active; 'I' for Inactive)
REMARK    1  A    between atoms: CA_6  and  C_23
REMARK    2  A    between atoms: CA_7  and  N_12
REMARK    3  A    between atoms: C_13  and  C_15
REMARK    4  A    between atoms: C_15  and  C_16
REMARK    5  A    between atoms: C_23  and  O_24
REMARK                            x       y       z     vdW  Elec       q    Type
REMARK                         _______ _______ _______ _____ _____    ______ ____
ROOT
ATOM      1  S   UNL     1      35.654 -25.482 -15.027  0.00  0.00    -0.118 S 
ATOM      2  O   UNL     1      37.976 -21.789 -15.644  0.00  0.00    -0.273 OA
ATOM      3  N   UNL     1      37.221 -23.557 -14.274  0.00  0.00    -0.260 N 
ATOM      4  C   UNL     1      35.780 -23.827 -14.255  0.00  0.00    +0.151 C 
ATOM      5  C   UNL     1      37.320 -25.968 -14.351  0.00  0.00    +0.068 C 
ATOM      6  CA  UNL     1      38.142 -24.664 -14.436  0.00  0.00    +0.184 C 
ATOM      7  CA  UNL     1      35.606 -22.617 -15.183  0.00  0.00    +0.178 C 
ATOM      8  C   UNL     1      37.139 -22.474 -15.102  0.00  0.00    +0.247 C 
ATOM      9  C   UNL     1      37.114 -26.498 -12.926  0.00  0.00    +0.013 C 
ATOM     10  C   UNL     1      37.917 -27.062 -15.237  0.00  0.00    +0.013 C 
ENDROOT
BRANCH   7  12
ATOM     11  O   UNL     1      32.854 -23.033 -15.978  0.00  0.00    -0.275 OA
ATOM     12  N   UNL     1      35.100 -22.868 -16.540  0.00  0.00    -0.296 N 
ATOM     13  C   UNL     1      33.746 -23.057 -16.823  0.00  0.00    +0.227 C 
ATOM     14  H   UNL     1      35.746 -22.904 -17.282  0.00  0.00    +0.150 HD
BRANCH  13  15
ATOM     15  C   UNL     1      33.500 -23.299 -18.299  0.00  0.00    +0.111 C 
BRANCH  15  16
ATOM     16  C   UNL     1      33.885 -22.131 -19.168  0.00  0.00    -0.013 C 
ATOM     17  C   UNL     1      35.213 -21.961 -19.534  0.00  0.00    -0.004 C 
ATOM     18  C   UNL     1      32.908 -21.241 -19.589  0.00  0.00    -0.004 C 
ATOM     19  C   UNL     1      35.571 -20.879 -20.339  0.00  0.00    -0.000 C 
ATOM     20  C   UNL     1      33.265 -20.159 -20.395  0.00  0.00    -0.000 C 
ATOM     21  C   UNL     1      34.597 -19.978 -20.770  0.00  0.00    -0.000 C 
ENDBRANCH  15  16
ENDBRANCH  13  15
ENDBRANCH   7  12
BRANCH   6  23
ATOM     22  OXT UNL     1      39.049 -23.976 -12.307  0.00  0.00    -0.248 OA
ATOM     23  C   UNL     1      39.206 -24.509 -13.396  0.00  0.00    +0.333 C 
BRANCH  23  24
ATOM     24  O   UNL     1      40.376 -25.040 -13.825  0.00  0.00    -0.479 OA
ATOM     25  H   UNL     1      40.371 -25.768 -14.415  0.00  0.00    +0.295 HD
ENDBRANCH  23  24
ENDBRANCH   6  23
TORSDOF 5
ENDMDL
MODEL 2
REMARK VINA RESULT:      -8.9      7.312     11.619
REMARK  Name = 5904
REMARK  5 active torsions:
REMARK  status: ('A' for Active; 'I' for Inactive)
REMARK    1  A    between atoms: CA_6  and  C_23
REMARK    2  A    between atoms: CA_7  and  N_12
REMARK    3  A    between atoms: C_13  and  C_15
REMARK    4  A    between atoms: C_15  and  C_16
REMARK    5  A    between atoms: C_23  and  O_24
REMARK                            x       y       z     vdW  Elec       q    Type
REMARK                         _______ _______ _______ _____ _____    ______ ____
ROOT
ATOM      1  S   UNL     1      34.360 -15.078 -23.781  0.00  0.00    -0.118 S 
ATOM      2  O   UNL     1      31.928 -14.921 -20.109  0.00  0.00    -0.273 OA
ATOM      3  N   UNL     1      33.301 -13.892 -21.731  0.00  0.00    -0.260 N 
ATOM      4  C   UNL     1      34.577 -14.540 -22.044  0.00  0.00    +0.151 C 
ATOM      5  C   UNL     1      33.243 -13.629 -24.130  0.00  0.00    +0.068 C 
ATOM      6  CA  UNL     1      32.447 -13.458 -22.818  0.00  0.00    +0.184 C 
ATOM      7  CA  UNL     1      34.248 -15.571 -20.955  0.00  0.00    +0.178 C 
ATOM      8  C   UNL     1      32.942 -14.776 -20.754  0.00  0.00    +0.247 C 
ATOM      9  C   UNL     1      34.127 -12.430 -24.499  0.00  0.00    +0.013 C 
ATOM     10  C   UNL     1      32.322 -13.982 -25.299  0.00  0.00    +0.013 C 
ENDROOT
BRANCH   7  12
ATOM     11  O   UNL     1      36.046 -17.805 -20.569  0.00  0.00    -0.275 OA
ATOM     12  N   UNL     1      34.040 -16.963 -21.378  0.00  0.00    -0.296 N 
ATOM     13  C   UNL     1      34.973 -17.975 -21.143  0.00  0.00    +0.227 C 
ATOM     14  H   UNL     1      33.206 -17.192 -21.847  0.00  0.00    +0.150 HD
BRANCH  13  15
ATOM     15  C   UNL     1      34.512 -19.314 -21.683  0.00  0.00    +0.111 C 
BRANCH  15  16
ATOM     16  C   UNL     1      34.402 -20.379 -20.623  0.00  0.00    -0.013 C 
ATOM     17  C   UNL     1      33.157 -20.695 -20.099  0.00  0.00    -0.004 C 
ATOM     18  C   UNL     1      35.549 -21.027 -20.185  0.00  0.00    -0.004 C 
ATOM     19  C   UNL     1      33.055 -21.682 -19.118  0.00  0.00    -0.000 C 
ATOM     20  C   UNL     1      35.447 -22.013 -19.203  0.00  0.00    -0.000 C 
ATOM     21  C   UNL     1      34.200 -22.341 -18.670  0.00  0.00    -0.000 C 
ENDBRANCH  15  16
ENDBRANCH  13  15
ENDBRANCH   7  12
BRANCH   6  23
ATOM     22  OXT UNL     1      32.607 -11.049 -22.863  0.00  0.00    -0.248 OA
ATOM     23  C   UNL     1      32.016 -12.059 -22.510  0.00  0.00    +0.333 C 
BRANCH  23  24
ATOM     24  O   UNL     1      30.874 -12.060 -21.780  0.00  0.00    -0.479 OA
ATOM     25  H   UNL     1      30.089 -12.421 -22.140  0.00  0.00    +0.295 HD
ENDBRANCH  23  24
ENDBRANCH   6  23
TORSDOF 5
ENDMDL
MODEL 3
REMARK VINA RESULT:      -8.6      2.067      2.824
REMARK  Name = 5904
REMARK  5 active torsions:
REMARK  status: ('A' for Active; 'I' for Inactive)
REMARK    1  A    between atoms: CA_6  and  C_23
REMARK    2  A    between atoms: CA_7  and  N_12
REMARK    3  A    between atoms: C_13  and  C_15
REMARK    4  A    between atoms: C_15  and  C_16
REMARK    5  A    between atoms: C_23  and  O_24
REMARK                            x       y       z     vdW  Elec       q    Type
REMARK                         _______ _______ _______ _____ _____    ______ ____
ROOT
ATOM      1  S   UNL     1      34.843 -23.064 -15.251  0.00  0.00    -0.118 S 
ATOM      2  O   UNL     1      39.062 -24.281 -15.612  0.00  0.00    -0.273 OA
ATOM      3  N   UNL     1      37.203 -23.608 -14.323  0.00  0.00    -0.260 N 
ATOM      4  C   UNL     1      36.479 -22.410 -14.756  0.00  0.00    +0.151 C 
ATOM      5  C   UNL     1      34.955 -24.417 -13.976  0.00  0.00    +0.068 C 
ATOM      6  CA  UNL     1      36.451 -24.798 -13.980  0.00  0.00    +0.184 C 
ATOM      7  CA  UNL     1      37.527 -22.257 -15.867  0.00  0.00    +0.178 C 
ATOM      8  C   UNL     1      38.165 -23.536 -15.289  0.00  0.00    +0.247 C 
ATOM      9  C   UNL     1      34.446 -23.852 -12.643  0.00  0.00    +0.013 C 
ATOM     10  C   UNL     1      34.079 -25.590 -14.418  0.00  0.00    +0.013 C 
ENDROOT
BRANCH   7  12
ATOM     11  O   UNL     1      37.317 -20.166 -17.857  0.00  0.00    -0.275 OA
ATOM     12  N   UNL     1      37.069 -22.394 -17.257  0.00  0.00    -0.296 N 
ATOM     13  C   UNL     1      37.003 -21.318 -18.145  0.00  0.00    +0.227 C 
ATOM     14  H   UNL     1      36.796 -23.285 -17.576  0.00  0.00    +0.150 HD
BRANCH  13  15
ATOM     15  C   UNL     1      36.495 -21.735 -19.511  0.00  0.00    +0.111 C 
BRANCH  15  16
ATOM     16  C   UNL     1      35.219 -21.042 -19.910  0.00  0.00    -0.013 C 
ATOM     17  C   UNL     1      34.010 -21.488 -19.394  0.00  0.00    -0.004 C 
ATOM     18  C   UNL     1      35.270 -19.969 -20.789  0.00  0.00    -0.004 C 
ATOM     19  C   UNL     1      32.828 -20.846 -19.764  0.00  0.00    -0.000 C 
ATOM     20  C   UNL     1      34.087 -19.327 -21.158  0.00  0.00    -0.000 C 
ATOM     21  C   UNL     1      32.866 -19.766 -20.646  0.00  0.00    -0.000 C 
ENDBRANCH  15  16
ENDBRANCH  13  15
ENDBRANCH   7  12
BRANCH   6  23
ATOM     22  OXT UNL     1      37.521 -24.605 -11.824  0.00  0.00    -0.248 OA
ATOM     23  C   UNL     1      36.986 -25.300 -12.677  0.00  0.00    +0.333 C 
BRANCH  23  24
ATOM     24  O   UNL     1      36.802 -26.638 -12.566  0.00  0.00    -0.479 OA
ATOM     25  H   UNL     1      37.423 -27.228 -12.944  0.00  0.00    +0.295 HD
ENDBRANCH  23  24
ENDBRANCH   6  23
TORSDOF 5
ENDMDL
MODEL 4
REMARK VINA RESULT:      -8.6      2.386      3.141
REMARK  Name = 5904
REMARK  5 active torsions:
REMARK  status: ('A' for Active; 'I' for Inactive)
REMARK    1  A    between atoms: CA_6  and  C_23
REMARK    2  A    between atoms: CA_7  and  N_12
REMARK    3  A    between atoms: C_13  and  C_15
REMARK    4  A    between atoms: C_15  and  C_16
REMARK    5  A    between atoms: C_23  and  O_24
REMARK                            x       y       z     vdW  Elec       q    Type
REMARK                         _______ _______ _______ _____ _____    ______ ____
ROOT
ATOM      1  S   UNL     1      37.444 -24.073 -14.999  0.00  0.00    -0.118 S 
ATOM      2  O   UNL     1      33.269 -22.742 -14.532  0.00  0.00    -0.273 OA
ATOM      3  N   UNL     1      35.015 -24.274 -14.111  0.00  0.00    -0.260 N 
ATOM      4  C   UNL     1      35.772 -24.769 -15.264  0.00  0.00    +0.151 C 
ATOM      5  C   UNL     1      37.227 -24.154 -13.151  0.00  0.00    +0.068 C 
ATOM      6  CA  UNL     1      35.737 -23.809 -12.944  0.00  0.00    +0.184 C 
ATOM      7  CA  UNL     1      34.819 -23.960 -16.155  0.00  0.00    +0.178 C 
ATOM      8  C   UNL     1      34.136 -23.528 -14.841  0.00  0.00    +0.247 C 
ATOM      9  C   UNL     1      37.624 -25.563 -12.692  0.00  0.00    +0.013 C 
ATOM     10  C   UNL     1      38.137 -23.114 -12.498  0.00  0.00    +0.013 C 
ENDROOT
BRANCH   7  12
ATOM     11  O   UNL     1      34.332 -23.321 -18.936  0.00  0.00    -0.275 OA
ATOM     12  N   UNL     1      35.390 -22.846 -16.925  0.00  0.00    -0.296 N 
ATOM     13  C   UNL     1      35.091 -22.620 -18.270  0.00  0.00    +0.227 C 
ATOM     14  H   UNL     1      36.012 -22.232 -16.472  0.00  0.00    +0.150 HD
BRANCH  13  15
ATOM     15  C   UNL     1      35.816 -21.409 -18.822  0.00  0.00    +0.111 C 
BRANCH  15  16
ATOM     16  C   UNL     1      35.030 -20.670 -19.873  0.00  0.00    -0.013 C 
ATOM     17  C   UNL     1      33.646 -20.765 -19.882  0.00  0.00    -0.004 C 
ATOM     18  C   UNL     1      35.702 -19.907 -20.818  0.00  0.00    -0.004 C 
ATOM     19  C   UNL     1      32.917 -20.081 -20.856  0.00  0.00    -0.000 C 
ATOM     20  C   UNL     1      34.974 -19.223 -21.792  0.00  0.00    -0.000 C 
ATOM     21  C   UNL     1      33.581 -19.310 -21.811  0.00  0.00    -0.000 C 
ENDBRANCH  15  16
ENDBRANCH  13  15
ENDBRANCH   7  12
BRANCH   6  23
ATOM     22  OXT UNL     1      35.497 -24.330 -10.598  0.00  0.00    -0.248 OA
ATOM     23  C   UNL     1      35.095 -24.438 -11.747  0.00  0.00    +0.333 C 
BRANCH  23  24
ATOM     24  O   UNL     1      34.001 -25.151 -12.109  0.00  0.00    -0.479 OA
ATOM     25  H   UNL     1      33.244 -24.710 -12.440  0.00  0.00    +0.295 HD
ENDBRANCH  23  24
ENDBRANCH   6  23
TORSDOF 5
ENDMDL
MODEL 5
REMARK VINA RESULT:      -8.4      8.540     11.728
REMARK  Name = 5904
REMARK  5 active torsions:
REMARK  status: ('A' for Active; 'I' for Inactive)
REMARK    1  A    between atoms: CA_6  and  C_23
REMARK    2  A    between atoms: CA_7  and  N_12
REMARK    3  A    between atoms: C_13  and  C_15
REMARK    4  A    between atoms: C_15  and  C_16
REMARK    5  A    between atoms: C_23  and  O_24
REMARK                            x       y       z     vdW  Elec       q    Type
REMARK                         _______ _______ _______ _____ _____    ______ ____
ROOT
ATOM      1  S   UNL     1      34.148 -16.261 -20.894  0.00  0.00    -0.118 S 
ATOM      2  O   UNL     1      33.627 -15.833 -25.248  0.00  0.00    -0.273 OA
ATOM      3  N   UNL     1      34.842 -16.591 -23.371  0.00  0.00    -0.260 N 
ATOM      4  C   UNL     1      35.117 -15.620 -22.308  0.00  0.00    +0.151 C 
ATOM      5  C   UNL     1      34.384 -18.014 -21.476  0.00  0.00    +0.068 C 
ATOM      6  CA  UNL     1      34.328 -17.898 -23.014  0.00  0.00    +0.184 C 
ATOM      7  CA  UNL     1      34.439 -14.561 -23.188  0.00  0.00    +0.178 C 
ATOM      8  C   UNL     1      34.222 -15.703 -24.202  0.00  0.00    +0.247 C 
ATOM      9  C   UNL     1      35.725 -18.518 -20.924  0.00  0.00    +0.013 C 
ATOM     10  C   UNL     1      33.240 -18.875 -20.939  0.00  0.00    +0.013 C 
ENDROOT
BRANCH   7  12
ATOM     11  O   UNL     1      33.446 -11.895 -23.718  0.00  0.00    -0.275 OA
ATOM     12  N   UNL     1      33.193 -13.960 -22.690  0.00  0.00    -0.296 N 
ATOM     13  C   UNL     1      32.800 -12.658 -23.004  0.00  0.00    +0.227 C 
ATOM     14  H   UNL     1      32.611 -14.500 -22.109  0.00  0.00    +0.150 HD
BRANCH  13  15
ATOM     15  C   UNL     1      31.479 -12.289 -22.359  0.00  0.00    +0.111 C 
BRANCH  15  16
ATOM     16  C   UNL     1      31.605 -11.208 -21.317  0.00  0.00    -0.013 C 
ATOM     17  C   UNL     1      31.829  -9.898 -21.717  0.00  0.00    -0.004 C 
ATOM     18  C   UNL     1      31.497 -11.538 -19.974  0.00  0.00    -0.004 C 
ATOM     19  C   UNL     1      31.946  -8.897 -20.752  0.00  0.00    -0.000 C 
ATOM     20  C   UNL     1      31.614 -10.537 -19.009  0.00  0.00    -0.000 C 
ATOM     21  C   UNL     1      31.839  -9.216 -19.398  0.00  0.00    -0.000 C 
ENDBRANCH  15  16
ENDBRANCH  13  15
ENDBRANCH   7  12
BRANCH   6  23
ATOM     22  OXT UNL     1      34.674 -19.832 -24.418  0.00  0.00    -0.248 OA
ATOM     23  C   UNL     1      35.137 -18.911 -23.762  0.00  0.00    +0.333 C 
BRANCH  23  24
ATOM     24  O   UNL     1      36.462 -18.670 -23.612  0.00  0.00    -0.479 OA
ATOM     25  H   UNL     1      37.089 -19.234 -24.021  0.00  0.00    +0.295 HD
ENDBRANCH  23  24
ENDBRANCH   6  23
TORSDOF 5
ENDMDL
MODEL 6
REMARK VINA RESULT:      -8.4      8.532     11.717
REMARK  Name = 5904
REMARK  5 active torsions:
REMARK  status: ('A' for Active; 'I' for Inactive)
REMARK    1  A    between atoms: CA_6  and  C_23
REMARK    2  A    between atoms: CA_7  and  N_12
REMARK    3  A    between atoms: C_13  and  C_15
REMARK    4  A    between atoms: C_15  and  C_16
REMARK    5  A    between atoms: C_23  and  O_24
REMARK                            x       y       z     vdW  Elec       q    Type
REMARK                         _______ _______ _______ _____ _____    ______ ____
ROOT
ATOM      1  S   UNL     1      34.146 -16.287 -20.901  0.00  0.00    -0.118 S 
ATOM      2  O   UNL     1      33.623 -15.840 -25.252  0.00  0.00    -0.273 OA
ATOM      3  N   UNL     1      34.838 -16.607 -23.380  0.00  0.00    -0.260 N 
ATOM      4  C   UNL     1      35.115 -15.641 -22.313  0.00  0.00    +0.151 C 
ATOM      5  C   UNL     1      34.381 -18.038 -21.490  0.00  0.00    +0.068 C 
ATOM      6  CA  UNL     1      34.324 -17.915 -23.028  0.00  0.00    +0.184 C 
ATOM      7  CA  UNL     1      34.437 -14.578 -23.188  0.00  0.00    +0.178 C 
ATOM      8  C   UNL     1      34.218 -15.715 -24.206  0.00  0.00    +0.247 C 
ATOM      9  C   UNL     1      35.722 -18.545 -20.941  0.00  0.00    +0.013 C 
ATOM     10  C   UNL     1      33.237 -18.900 -20.957  0.00  0.00    +0.013 C 
ENDROOT
BRANCH   7  12
ATOM     11  O   UNL     1      33.436 -11.915 -23.722  0.00  0.00    -0.275 OA
ATOM     12  N   UNL     1      33.192 -13.978 -22.686  0.00  0.00    -0.296 N 
ATOM     13  C   UNL     1      32.794 -12.678 -23.003  0.00  0.00    +0.227 C 
ATOM     14  H   UNL     1      32.614 -14.518 -22.101  0.00  0.00    +0.150 HD
BRANCH  13  15
ATOM     15  C   UNL     1      31.475 -12.310 -22.353  0.00  0.00    +0.111 C 
BRANCH  15  16
ATOM     16  C   UNL     1      31.603 -11.225 -21.317  0.00  0.00    -0.013 C 
ATOM     17  C   UNL     1      31.495 -11.549 -19.972  0.00  0.00    -0.004 C 
ATOM     18  C   UNL     1      31.825  -9.916 -21.721  0.00  0.00    -0.004 C 
ATOM     19  C   UNL     1      31.613 -10.544 -19.011  0.00  0.00    -0.000 C 
ATOM     20  C   UNL     1      31.944  -8.911 -20.761  0.00  0.00    -0.000 C 
ATOM     21  C   UNL     1      31.838  -9.225 -19.406  0.00  0.00    -0.000 C 
ENDBRANCH  15  16
ENDBRANCH  13  15
ENDBRANCH   7  12
BRANCH   6  23
ATOM     22  OXT UNL     1      34.668 -19.827 -24.462  0.00  0.00    -0.248 OA
ATOM     23  C   UNL     1      35.132 -18.925 -23.780  0.00  0.00    +0.333 C 
BRANCH  23  24
ATOM     24  O   UNL     1      36.458 -18.706 -23.603  0.00  0.00    -0.479 OA
ATOM     25  H   UNL     1      36.824 -17.867 -23.799  0.00  0.00    +0.295 HD
ENDBRANCH  23  24
ENDBRANCH   6  23
TORSDOF 5
ENDMDL
MODEL 7
REMARK VINA RESULT:      -8.2      2.509      3.750
REMARK  Name = 5904
REMARK  5 active torsions:
REMARK  status: ('A' for Active; 'I' for Inactive)
REMARK    1  A    between atoms: CA_6  and  C_23
REMARK    2  A    between atoms: CA_7  and  N_12
REMARK    3  A    between atoms: C_13  and  C_15
REMARK    4  A    between atoms: C_15  and  C_16
REMARK    5  A    between atoms: C_23  and  O_24
REMARK                            x       y       z     vdW  Elec       q    Type
REMARK                         _______ _______ _______ _____ _____    ______ ____
ROOT
ATOM      1  S   UNL     1      35.418 -25.362 -14.285  0.00  0.00    -0.118 S 
ATOM      2  O   UNL     1      37.697 -22.503 -16.744  0.00  0.00    -0.273 OA
ATOM      3  N   UNL     1      37.420 -23.790 -14.785  0.00  0.00    -0.260 N 
ATOM      4  C   UNL     1      36.135 -23.689 -14.087  0.00  0.00    +0.151 C 
ATOM      5  C   UNL     1      37.114 -26.132 -14.284  0.00  0.00    +0.068 C 
ATOM      6  CA  UNL     1      37.982 -25.102 -15.038  0.00  0.00    +0.184 C 
ATOM      7  CA  UNL     1      35.728 -22.634 -15.125  0.00  0.00    +0.178 C 
ATOM      8  C   UNL     1      37.121 -22.865 -15.743  0.00  0.00    +0.247 C 
ATOM      9  C   UNL     1      37.525 -26.364 -12.824  0.00  0.00    +0.013 C 
ATOM     10  C   UNL     1      37.055 -27.465 -15.031  0.00  0.00    +0.013 C 
ENDROOT
BRANCH   7  12
ATOM     11  O   UNL     1      32.915 -22.768 -14.455  0.00  0.00    -0.275 OA
ATOM     12  N   UNL     1      34.613 -22.963 -16.025  0.00  0.00    -0.296 N 
ATOM     13  C   UNL     1      33.282 -23.001 -15.604  0.00  0.00    +0.227 C 
ATOM     14  H   UNL     1      34.814 -23.165 -16.967  0.00  0.00    +0.150 HD
BRANCH  13  15
ATOM     15  C   UNL     1      32.337 -23.368 -16.730  0.00  0.00    +0.111 C 
BRANCH  15  16
ATOM     16  C   UNL     1      30.900 -23.476 -16.292  0.00  0.00    -0.013 C 
ATOM     17  C   UNL     1      30.042 -22.404 -16.495  0.00  0.00    -0.004 C 
ATOM     18  C   UNL     1      30.455 -24.644 -15.689  0.00  0.00    -0.004 C 
ATOM     19  C   UNL     1      28.711 -22.504 -16.089  0.00  0.00    -0.000 C 
ATOM     20  C   UNL     1      29.124 -24.744 -15.283  0.00  0.00    -0.000 C 
ATOM     21  C   UNL     1      28.252 -23.674 -15.483  0.00  0.00    -0.000 C 
ENDBRANCH  15  16
ENDBRANCH  13  15
ENDBRANCH   7  12
BRANCH   6  23
ATOM     22  OXT UNL     1      39.836 -24.559 -13.588  0.00  0.00    -0.248 OA
ATOM     23  C   UNL     1      39.419 -25.054 -14.626  0.00  0.00    +0.333 C 
BRANCH  23  24
ATOM     24  O   UNL     1      40.206 -25.634 -15.564  0.00  0.00    -0.479 OA
ATOM     25  H   UNL     1      40.282 -26.567 -15.599  0.00  0.00    +0.295 HD
ENDBRANCH  23  24
ENDBRANCH   6  23
TORSDOF 5
ENDMDL
MODEL 8
REMARK VINA RESULT:      -8.1      2.361      2.981
REMARK  Name = 5904
REMARK  5 active torsions:
REMARK  status: ('A' for Active; 'I' for Inactive)
REMARK    1  A    between atoms: CA_6  and  C_23
REMARK    2  A    between atoms: CA_7  and  N_12
REMARK    3  A    between atoms: C_13  and  C_15
REMARK    4  A    between atoms: C_15  and  C_16
REMARK    5  A    between atoms: C_23  and  O_24
REMARK                            x       y       z     vdW  Elec       q    Type
REMARK                         _______ _______ _______ _____ _____    ______ ____
ROOT
ATOM      1  S   UNL     1      36.644 -23.439 -15.245  0.00  0.00    -0.118 S 
ATOM      2  O   UNL     1      32.725 -24.334 -13.441  0.00  0.00    -0.273 OA
ATOM      3  N   UNL     1      35.023 -24.787 -13.733  0.00  0.00    -0.260 N 
ATOM      4  C   UNL     1      35.524 -24.880 -15.108  0.00  0.00    +0.151 C 
ATOM      5  C   UNL     1      37.079 -23.557 -13.437  0.00  0.00    +0.068 C 
ATOM      6  CA  UNL     1      35.755 -23.988 -12.771  0.00  0.00    +0.184 C 
ATOM      7  CA  UNL     1      34.077 -24.678 -15.579  0.00  0.00    +0.178 C 
ATOM      8  C   UNL     1      33.717 -24.597 -14.082  0.00  0.00    +0.247 C 
ATOM      9  C   UNL     1      38.223 -24.569 -13.293  0.00  0.00    +0.013 C 
ATOM     10  C   UNL     1      37.530 -22.181 -12.944  0.00  0.00    +0.013 C 
ENDROOT
BRANCH   7  12
ATOM     11  O   UNL     1      33.576 -24.447 -18.421  0.00  0.00    -0.275 OA
ATOM     12  N   UNL     1      33.773 -23.452 -16.333  0.00  0.00    -0.296 N 
ATOM     13  C   UNL     1      33.545 -23.445 -17.710  0.00  0.00    +0.227 C 
ATOM     14  H   UNL     1      33.728 -22.599 -15.844  0.00  0.00    +0.150 HD
BRANCH  13  15
ATOM     15  C   UNL     1      33.257 -22.052 -18.234  0.00  0.00    +0.111 C 
BRANCH  15  16
ATOM     16  C   UNL     1      34.391 -21.470 -19.036  0.00  0.00    -0.013 C 
ATOM     17  C   UNL     1      35.699 -21.793 -18.704  0.00  0.00    -0.004 C 
ATOM     18  C   UNL     1      34.111 -20.616 -20.095  0.00  0.00    -0.004 C 
ATOM     19  C   UNL     1      36.749 -21.254 -19.447  0.00  0.00    -0.000 C 
ATOM     20  C   UNL     1      35.162 -20.077 -20.838  0.00  0.00    -0.000 C 
ATOM     21  C   UNL     1      36.481 -20.395 -20.514  0.00  0.00    -0.000 C 
ENDBRANCH  15  16
ENDBRANCH  13  15
ENDBRANCH   7  12
BRANCH   6  23
ATOM     22  OXT UNL     1      35.602 -24.444 -10.405  0.00  0.00    -0.248 OA
ATOM     23  C   UNL     1      35.901 -24.812 -11.532  0.00  0.00    +0.333 C 
BRANCH  23  24
ATOM     24  O   UNL     1      36.416 -26.031 -11.825  0.00  0.00    -0.479 OA
ATOM     25  H   UNL     1      37.286 -26.249 -11.553  0.00  0.00    +0.295 HD
ENDBRANCH  23  24
ENDBRANCH   6  23
TORSDOF 5
ENDMDL
MODEL 9
REMARK VINA RESULT:      -8.1      9.755     13.664
REMARK  Name = 5904
REMARK  5 active torsions:
REMARK  status: ('A' for Active; 'I' for Inactive)
REMARK    1  A    between atoms: CA_6  and  C_23
REMARK    2  A    between atoms: CA_7  and  N_12
REMARK    3  A    between atoms: C_13  and  C_15
REMARK    4  A    between atoms: C_15  and  C_16
REMARK    5  A    between atoms: C_23  and  O_24
REMARK                            x       y       z     vdW  Elec       q    Type
REMARK                         _______ _______ _______ _____ _____    ______ ____
ROOT
ATOM      1  S   UNL     1      32.011 -12.970 -21.499  0.00  0.00    -0.118 S 
ATOM      2  O   UNL     1      34.606 -10.530 -24.092  0.00  0.00    -0.273 OA
ATOM      3  N   UNL     1      32.503 -11.021 -23.138  0.00  0.00    -0.260 N 
ATOM      4  C   UNL     1      32.022 -12.402 -23.239  0.00  0.00    +0.151 C 
ATOM      5  C   UNL     1      31.631 -11.248 -20.899  0.00  0.00    +0.068 C 
ATOM      6  CA  UNL     1      32.431 -10.343 -21.860  0.00  0.00    +0.184 C 
ATOM      7  CA  UNL     1      33.282 -12.712 -24.060  0.00  0.00    +0.178 C 
ATOM      8  C   UNL     1      33.646 -11.228 -23.855  0.00  0.00    +0.247 C 
ATOM      9  C   UNL     1      30.110 -11.053 -20.958  0.00  0.00    +0.013 C 
ATOM     10  C   UNL     1      32.123 -11.104 -19.458  0.00  0.00    +0.013 C 
ENDROOT
BRANCH   7  12
ATOM     11  O   UNL     1      33.465 -15.561 -24.537  0.00  0.00    -0.275 OA
ATOM     12  N   UNL     1      34.255 -13.651 -23.482  0.00  0.00    -0.296 N 
ATOM     13  C   UNL     1      34.261 -15.016 -23.776  0.00  0.00    +0.227 C 
ATOM     14  H   UNL     1      34.932 -13.301 -22.859  0.00  0.00    +0.150 HD
BRANCH  13  15
ATOM     15  C   UNL     1      35.365 -15.753 -23.045  0.00  0.00    +0.111 C 
BRANCH  15  16
ATOM     16  C   UNL     1      34.959 -17.129 -22.584  0.00  0.00    -0.013 C 
ATOM     17  C   UNL     1      35.306 -18.235 -23.347  0.00  0.00    -0.004 C 
ATOM     18  C   UNL     1      34.244 -17.269 -21.403  0.00  0.00    -0.004 C 
ATOM     19  C   UNL     1      34.930 -19.509 -22.919  0.00  0.00    -0.000 C 
ATOM     20  C   UNL     1      33.868 -18.543 -20.975  0.00  0.00    -0.000 C 
ATOM     21  C   UNL     1      34.211 -19.663 -21.733  0.00  0.00    -0.000 C 
ENDBRANCH  15  16
ENDBRANCH  13  15
ENDBRANCH   7  12
BRANCH   6  23
ATOM     22  OXT UNL     1      31.221  -8.672 -23.114  0.00  0.00    -0.248 OA
ATOM     23  C   UNL     1      31.837  -8.992 -22.109  0.00  0.00    +0.333 C 
BRANCH  23  24
ATOM     24  O   UNL     1      32.077  -8.163 -21.064  0.00  0.00    -0.479 OA
ATOM     25  H   UNL     1      31.933  -7.242 -21.155  0.00  0.00    +0.295 HD
ENDBRANCH  23  24
ENDBRANCH   6  23
TORSDOF 5
ENDMDL
