MODEL 1
REMARK VINA RESULT:      -9.8      0.000      0.000
REMARK  Name = 5388928
REMARK  7 active torsions:
REMARK  status: ('A' for Active; 'I' for Inactive)
REMARK    1  A    between atoms: CA_1  and  C_9
REMARK    2  A    between atoms: CA_1  and  N_15
REMARK    3  A    between atoms: CA_5  and  C_11
REMARK    4  A    between atoms: C_11  and  O_12
REMARK    5  A    between atoms: C_16  and  O_18
REMARK    6  A    between atoms: O_18  and  C_19
REMARK    7  A    between atoms: C_19  and  C_20
REMARK                            x       y       z     vdW  Elec       q    Type
REMARK                         _______ _______ _______ _____ _____    ______ ____
ROOT
ATOM      1  CA  UNL     1      35.104 -23.121 -15.194  0.00  0.00    +0.151 C 
ATOM      2  CB  UNL     1      33.655 -23.494 -14.984  0.00  0.00    +0.031 C 
ENDROOT
BRANCH   1   9
ATOM      3  O   UNL     1      35.962 -25.287 -15.684  0.00  0.00    -0.273 OA
ATOM      4  N   UNL     1      36.833 -24.199 -13.837  0.00  0.00    -0.270 N 
ATOM      5  CA  UNL     1      37.873 -25.178 -13.542  0.00  0.00    +0.175 C 
ATOM      6  CB  UNL     1      38.810 -24.466 -12.573  0.00  0.00    +0.033 C 
ATOM      7  CG  UNL     1      37.892 -23.485 -11.848  0.00  0.00    +0.024 C 
ATOM      8  CD  UNL     1      36.913 -23.056 -12.930  0.00  0.00    +0.094 C 
ATOM      9  C   UNL     1      36.002 -24.306 -14.941  0.00  0.00    +0.244 C 
BRANCH   5  11
ATOM     10  OXT UNL     1      36.866 -26.423 -11.732  0.00  0.00    -0.248 OA
ATOM     11  C   UNL     1      37.202 -26.357 -12.904  0.00  0.00    +0.332 C 
BRANCH  11  12
ATOM     12  O   UNL     1      37.018 -27.349 -13.809  0.00  0.00    -0.479 OA
ATOM     13  H   UNL     1      36.856 -27.140 -14.708  0.00  0.00    +0.295 HD
ENDBRANCH  11  12
ENDBRANCH   5  11
ENDBRANCH   1   9
BRANCH   1  15
ATOM     14  O   UNL     1      37.354 -21.580 -16.193  0.00  0.00    -0.226 OA
ATOM     15  N   UNL     1      35.380 -22.749 -16.549  0.00  0.00    -0.264 N 
ATOM     16  C   ACE A   0      36.482 -22.008 -16.943  0.00  0.00    +0.402 C 
ATOM     17  H   UNL     1      34.746 -23.038 -17.245  0.00  0.00    +0.153 HD
BRANCH  16  18
ATOM     18  O   UNL     1      36.463 -21.818 -18.296  0.00  0.00    -0.430 OA
BRANCH  18  19
ATOM     19  C   UNL     1      35.275 -22.248 -18.971  0.00  0.00    +0.237 C 
BRANCH  19  20
ATOM     20  C   UNL     1      34.732 -21.106 -19.780  0.00  0.00    +0.021 C 
ATOM     21  C   UNL     1      33.358 -20.900 -19.843  0.00  0.00    -0.001 C 
ATOM     22  C   UNL     1      35.606 -20.265 -20.458  0.00  0.00    -0.001 C 
ATOM     23  C   UNL     1      32.853 -19.840 -20.596  0.00  0.00    -0.000 C 
ATOM     24  C   UNL     1      35.101 -19.205 -21.211  0.00  0.00    -0.000 C 
ATOM     25  C   UNL     1      33.724 -18.993 -21.279  0.00  0.00    -0.000 C 
ENDBRANCH  19  20
ENDBRANCH  18  19
ENDBRANCH  16  18
ENDBRANCH   1  15
TORSDOF 7
ENDMDL
MODEL 2
REMARK VINA RESULT:      -9.6      1.672      2.212
REMARK  Name = 5388928
REMARK  7 active torsions:
REMARK  status: ('A' for Active; 'I' for Inactive)
REMARK    1  A    between atoms: CA_1  and  C_9
REMARK    2  A    between atoms: CA_1  and  N_15
REMARK    3  A    between atoms: CA_5  and  C_11
REMARK    4  A    between atoms: C_11  and  O_12
REMARK    5  A    between atoms: C_16  and  O_18
REMARK    6  A    between atoms: O_18  and  C_19
REMARK    7  A    between atoms: C_19  and  C_20
REMARK                            x       y       z     vdW  Elec       q    Type
REMARK                         _______ _______ _______ _____ _____    ______ ____
ROOT
ATOM      1  CA  UNL     1      33.892 -23.857 -14.730  0.00  0.00    +0.151 C 
ATOM      2  CB  UNL     1      32.806 -24.745 -14.169  0.00  0.00    +0.031 C 
ENDROOT
BRANCH   1   9
ATOM      3  O   UNL     1      35.587 -25.286 -15.598  0.00  0.00    -0.273 OA
ATOM      4  N   UNL     1      35.984 -24.306 -13.540  0.00  0.00    -0.270 N 
ATOM      5  CA  UNL     1      37.360 -24.764 -13.399  0.00  0.00    +0.175 C 
ATOM      6  CB  UNL     1      37.937 -23.916 -12.272  0.00  0.00    +0.033 C 
ATOM      7  CG  UNL     1      36.720 -23.598 -11.407  0.00  0.00    +0.024 C 
ATOM      8  CD  UNL     1      35.600 -23.443 -12.424  0.00  0.00    +0.094 C 
ATOM      9  C   UNL     1      35.229 -24.551 -14.676  0.00  0.00    +0.244 C 
BRANCH   5  11
ATOM     10  OXT UNL     1      36.996 -26.652 -11.933  0.00  0.00    -0.248 OA
ATOM     11  C   UNL     1      37.307 -26.217 -13.032  0.00  0.00    +0.332 C 
BRANCH  11  12
ATOM     12  O   UNL     1      37.655 -26.990 -14.089  0.00  0.00    -0.479 OA
ATOM     13  H   UNL     1      38.550 -27.239 -14.213  0.00  0.00    +0.295 HD
ENDBRANCH  11  12
ENDBRANCH   5  11
ENDBRANCH   1   9
BRANCH   1  15
ATOM     14  O   UNL     1      31.497 -22.827 -16.013  0.00  0.00    -0.226 OA
ATOM     15  N   UNL     1      33.696 -23.569 -16.118  0.00  0.00    -0.264 N 
ATOM     16  C   ACE A   0      32.515 -23.076 -16.652  0.00  0.00    +0.402 C 
ATOM     17  H   UNL     1      34.448 -23.729 -16.734  0.00  0.00    +0.153 HD
BRANCH  16  18
ATOM     18  O   UNL     1      32.644 -22.905 -18.002  0.00  0.00    -0.430 OA
BRANCH  18  19
ATOM     19  C   UNL     1      33.983 -22.776 -18.491  0.00  0.00    +0.237 C 
BRANCH  19  20
ATOM     20  C   UNL     1      34.057 -21.592 -19.410  0.00  0.00    +0.021 C 
ATOM     21  C   UNL     1      35.294 -21.161 -19.879  0.00  0.00    -0.001 C 
ATOM     22  C   UNL     1      32.891 -20.936 -19.784  0.00  0.00    -0.001 C 
ATOM     23  C   UNL     1      35.363 -20.061 -20.733  0.00  0.00    -0.000 C 
ATOM     24  C   UNL     1      32.960 -19.836 -20.638  0.00  0.00    -0.000 C 
ATOM     25  C   UNL     1      34.196 -19.398 -21.112  0.00  0.00    -0.000 C 
ENDBRANCH  19  20
ENDBRANCH  18  19
ENDBRANCH  16  18
ENDBRANCH   1  15
TORSDOF 7
ENDMDL
MODEL 3
REMARK VINA RESULT:      -8.5      3.033      4.831
REMARK  Name = 5388928
REMARK  7 active torsions:
REMARK  status: ('A' for Active; 'I' for Inactive)
REMARK    1  A    between atoms: CA_1  and  C_9
REMARK    2  A    between atoms: CA_1  and  N_15
REMARK    3  A    between atoms: CA_5  and  C_11
REMARK    4  A    between atoms: C_11  and  O_12
REMARK    5  A    between atoms: C_16  and  O_18
REMARK    6  A    between atoms: O_18  and  C_19
REMARK    7  A    between atoms: C_19  and  C_20
REMARK                            x       y       z     vdW  Elec       q    Type
REMARK                         _______ _______ _______ _____ _____    ______ ____
ROOT
ATOM      1  CA  UNL     1      36.152 -23.259 -15.748  0.00  0.00    +0.151 C 
ATOM      2  CB  UNL     1      36.864 -21.979 -16.115  0.00  0.00    +0.031 C 
ENDROOT
BRANCH   1   9
ATOM      3  O   UNL     1      35.429 -23.105 -13.485  0.00  0.00    -0.273 OA
ATOM      4  N   UNL     1      37.385 -24.273 -13.892  0.00  0.00    -0.270 N 
ATOM      5  CA  UNL     1      37.572 -24.763 -12.532  0.00  0.00    +0.175 C 
ATOM      6  CB  UNL     1      38.614 -25.868 -12.660  0.00  0.00    +0.033 C 
ATOM      7  CG  UNL     1      39.442 -25.439 -13.869  0.00  0.00    +0.024 C 
ATOM      8  CD  UNL     1      38.411 -24.801 -14.788  0.00  0.00    +0.094 C 
ATOM      9  C   UNL     1      36.275 -23.534 -14.271  0.00  0.00    +0.244 C 
BRANCH   5  11
ATOM     10  OXT UNL     1      39.233 -23.218 -11.695  0.00  0.00    -0.248 OA
ATOM     11  C   UNL     1      38.077 -23.613 -11.713  0.00  0.00    +0.332 C 
BRANCH  11  12
ATOM     12  O   UNL     1      37.072 -23.066 -10.987  0.00  0.00    -0.479 OA
ATOM     13  H   UNL     1      36.408 -22.560 -11.412  0.00  0.00    +0.295 HD
ENDBRANCH  11  12
ENDBRANCH   5  11
ENDBRANCH   1   9
BRANCH   1  15
ATOM     14  O   UNL     1      34.776 -23.031 -18.297  0.00  0.00    -0.226 OA
ATOM     15  N   UNL     1      34.741 -23.183 -15.980  0.00  0.00    -0.264 N 
ATOM     16  C   ACE A   0      34.163 -23.075 -17.235  0.00  0.00    +0.402 C 
ATOM     17  H   UNL     1      34.143 -23.210 -15.198  0.00  0.00    +0.153 HD
BRANCH  16  18
ATOM     18  O   UNL     1      32.802 -23.024 -17.124  0.00  0.00    -0.430 OA
BRANCH  18  19
ATOM     19  C   UNL     1      32.287 -22.922 -15.791  0.00  0.00    +0.237 C 
BRANCH  19  20
ATOM     20  C   UNL     1      30.875 -23.433 -15.771  0.00  0.00    +0.021 C 
ATOM     21  C   UNL     1      29.897 -22.781 -16.516  0.00  0.00    -0.001 C 
ATOM     22  C   UNL     1      30.558 -24.551 -15.010  0.00  0.00    -0.001 C 
ATOM     23  C   UNL     1      28.586 -23.255 -16.497  0.00  0.00    -0.000 C 
ATOM     24  C   UNL     1      29.246 -25.025 -14.992  0.00  0.00    -0.000 C 
ATOM     25  C   UNL     1      28.261 -24.376 -15.735  0.00  0.00    -0.000 C 
ENDBRANCH  19  20
ENDBRANCH  18  19
ENDBRANCH  16  18
ENDBRANCH   1  15
TORSDOF 7
ENDMDL
MODEL 4
REMARK VINA RESULT:      -8.5      3.105      5.015
REMARK  Name = 5388928
REMARK  7 active torsions:
REMARK  status: ('A' for Active; 'I' for Inactive)
REMARK    1  A    between atoms: CA_1  and  C_9
REMARK    2  A    between atoms: CA_1  and  N_15
REMARK    3  A    between atoms: CA_5  and  C_11
REMARK    4  A    between atoms: C_11  and  O_12
REMARK    5  A    between atoms: C_16  and  O_18
REMARK    6  A    between atoms: O_18  and  C_19
REMARK    7  A    between atoms: C_19  and  C_20
REMARK                            x       y       z     vdW  Elec       q    Type
REMARK                         _______ _______ _______ _____ _____    ______ ____
ROOT
ATOM      1  CA  UNL     1      34.006 -23.404 -16.247  0.00  0.00    +0.151 C 
ATOM      2  CB  UNL     1      34.183 -22.824 -14.864  0.00  0.00    +0.031 C 
ENDROOT
BRANCH   1   9
ATOM      3  O   UNL     1      32.212 -22.879 -17.721  0.00  0.00    -0.273 OA
ATOM      4  N   UNL     1      31.675 -23.959 -15.746  0.00  0.00    -0.270 N 
ATOM      5  CA  UNL     1      30.265 -24.169 -16.050  0.00  0.00    +0.175 C 
ATOM      6  CB  UNL     1      29.800 -25.201 -15.029  0.00  0.00    +0.033 C 
ATOM      7  CG  UNL     1      30.709 -24.948 -13.829  0.00  0.00    +0.024 C 
ATOM      8  CD  UNL     1      32.036 -24.571 -14.470  0.00  0.00    +0.094 C 
ATOM      9  C   UNL     1      32.554 -23.386 -16.652  0.00  0.00    +0.244 C 
BRANCH   5  11
ATOM     10  OXT UNL     1      29.341 -22.325 -14.790  0.00  0.00    -0.248 OA
ATOM     11  C   UNL     1      29.572 -22.853 -15.868  0.00  0.00    +0.332 C 
BRANCH  11  12
ATOM     12  O   UNL     1      29.231 -22.322 -17.067  0.00  0.00    -0.479 OA
ATOM     13  H   UNL     1      28.423 -21.857 -17.161  0.00  0.00    +0.295 HD
ENDBRANCH  11  12
ENDBRANCH   5  11
ENDBRANCH   1   9
BRANCH   1  15
ATOM     14  O   UNL     1      36.846 -22.835 -16.479  0.00  0.00    -0.226 OA
ATOM     15  N   UNL     1      34.666 -22.626 -17.252  0.00  0.00    -0.264 N 
ATOM     16  C   ACE A   0      36.033 -22.402 -17.290  0.00  0.00    +0.402 C 
ATOM     17  H   UNL     1      34.114 -22.225 -17.962  0.00  0.00    +0.153 HD
BRANCH  16  18
ATOM     18  O   UNL     1      36.353 -21.625 -18.367  0.00  0.00    -0.430 OA
BRANCH  18  19
ATOM     19  C   UNL     1      35.675 -21.939 -19.589  0.00  0.00    +0.237 C 
BRANCH  19  20
ATOM     20  C   UNL     1      35.159 -20.670 -20.203  0.00  0.00    +0.021 C 
ATOM     21  C   UNL     1      33.788 -20.470 -20.319  0.00  0.00    -0.001 C 
ATOM     22  C   UNL     1      36.056 -19.708 -20.650  0.00  0.00    -0.001 C 
ATOM     23  C   UNL     1      33.309 -19.291 -20.891  0.00  0.00    -0.000 C 
ATOM     24  C   UNL     1      35.577 -18.529 -21.221  0.00  0.00    -0.000 C 
ATOM     25  C   UNL     1      34.204 -18.321 -21.341  0.00  0.00    -0.000 C 
ENDBRANCH  19  20
ENDBRANCH  18  19
ENDBRANCH  16  18
ENDBRANCH   1  15
TORSDOF 7
ENDMDL
MODEL 5
REMARK VINA RESULT:      -8.3      8.116     13.494
REMARK  Name = 5388928
REMARK  7 active torsions:
REMARK  status: ('A' for Active; 'I' for Inactive)
REMARK    1  A    between atoms: CA_1  and  C_9
REMARK    2  A    between atoms: CA_1  and  N_15
REMARK    3  A    between atoms: CA_5  and  C_11
REMARK    4  A    between atoms: C_11  and  O_12
REMARK    5  A    between atoms: C_16  and  O_18
REMARK    6  A    between atoms: O_18  and  C_19
REMARK    7  A    between atoms: C_19  and  C_20
REMARK                            x       y       z     vdW  Elec       q    Type
REMARK                         _______ _______ _______ _____ _____    ______ ____
ROOT
ATOM      1  CA  UNL     1      33.747 -14.124 -25.011  0.00  0.00    +0.151 C 
ATOM      2  CB  UNL     1      32.606 -14.189 -25.998  0.00  0.00    +0.031 C 
ENDROOT
BRANCH   1   9
ATOM      3  O   UNL     1      32.974 -13.256 -22.933  0.00  0.00    -0.273 OA
ATOM      4  N   UNL     1      33.966 -11.764 -24.397  0.00  0.00    -0.270 N 
ATOM      5  CA  UNL     1      33.974 -10.622 -23.491  0.00  0.00    +0.175 C 
ATOM      6  CB  UNL     1      34.929  -9.624 -24.136  0.00  0.00    +0.033 C 
ATOM      7  CG  UNL     1      34.807  -9.928 -25.627  0.00  0.00    +0.024 C 
ATOM      8  CD  UNL     1      34.622 -11.437 -25.661  0.00  0.00    +0.094 C 
ATOM      9  C   UNL     1      33.524 -13.019 -24.009  0.00  0.00    +0.244 C 
BRANCH   5  11
ATOM     10  OXT UNL     1      32.137  -9.182 -24.116  0.00  0.00    -0.248 OA
ATOM     11  C   UNL     1      32.573 -10.094 -23.431  0.00  0.00    +0.332 C 
BRANCH  11  12
ATOM     12  O   UNL     1      31.847 -10.768 -22.505  0.00  0.00    -0.479 OA
ATOM     13  H   UNL     1      31.143 -11.323 -22.775  0.00  0.00    +0.295 HD
ENDBRANCH  11  12
ENDBRANCH   5  11
ENDBRANCH   1   9
BRANCH   1  15
ATOM     14  O   UNL     1      34.880 -16.688 -25.775  0.00  0.00    -0.226 OA
ATOM     15  N   UNL     1      33.849 -15.310 -24.216  0.00  0.00    -0.264 N 
ATOM     16  C   ACE A   0      34.407 -16.499 -24.659  0.00  0.00    +0.402 C 
ATOM     17  H   UNL     1      33.500 -15.280 -23.295  0.00  0.00    +0.153 HD
BRANCH  16  18
ATOM     18  O   UNL     1      34.356 -17.441 -23.670  0.00  0.00    -0.430 OA
BRANCH  18  19
ATOM     19  C   UNL     1      35.206 -17.208 -22.542  0.00  0.00    +0.237 C 
BRANCH  19  20
ATOM     20  C   UNL     1      35.209 -18.431 -21.671  0.00  0.00    +0.021 C 
ATOM     21  C   UNL     1      36.413 -18.914 -21.168  0.00  0.00    -0.001 C 
ATOM     22  C   UNL     1      34.011 -19.069 -21.375  0.00  0.00    -0.001 C 
ATOM     23  C   UNL     1      36.416 -20.051 -20.359  0.00  0.00    -0.000 C 
ATOM     24  C   UNL     1      34.014 -20.205 -20.567  0.00  0.00    -0.000 C 
ATOM     25  C   UNL     1      35.216 -20.696 -20.059  0.00  0.00    -0.000 C 
ENDBRANCH  19  20
ENDBRANCH  18  19
ENDBRANCH  16  18
ENDBRANCH   1  15
TORSDOF 7
ENDMDL
MODEL 6
REMARK VINA RESULT:      -8.3      4.675     10.133
REMARK  Name = 5388928
REMARK  7 active torsions:
REMARK  status: ('A' for Active; 'I' for Inactive)
REMARK    1  A    between atoms: CA_1  and  C_9
REMARK    2  A    between atoms: CA_1  and  N_15
REMARK    3  A    between atoms: CA_5  and  C_11
REMARK    4  A    between atoms: C_11  and  O_12
REMARK    5  A    between atoms: C_16  and  O_18
REMARK    6  A    between atoms: O_18  and  C_19
REMARK    7  A    between atoms: C_19  and  C_20
REMARK                            x       y       z     vdW  Elec       q    Type
REMARK                         _______ _______ _______ _____ _____    ______ ____
ROOT
ATOM      1  CA  UNL     1      35.501 -17.956 -22.198  0.00  0.00    +0.151 C 
ATOM      2  CB  UNL     1      34.510 -18.460 -23.220  0.00  0.00    +0.031 C 
ENDROOT
BRANCH   1   9
ATOM      3  O   UNL     1      35.101 -16.520 -20.342  0.00  0.00    -0.273 OA
ATOM      4  N   UNL     1      34.457 -15.753 -22.428  0.00  0.00    -0.270 N 
ATOM      5  CA  UNL     1      34.081 -14.411 -22.004  0.00  0.00    +0.175 C 
ATOM      6  CB  UNL     1      33.975 -13.612 -23.298  0.00  0.00    +0.033 C 
ATOM      7  CG  UNL     1      33.577 -14.663 -24.332  0.00  0.00    +0.024 C 
ATOM      8  CD  UNL     1      34.329 -15.904 -23.876  0.00  0.00    +0.094 C 
ATOM      9  C   UNL     1      35.009 -16.682 -21.559  0.00  0.00    +0.244 C 
BRANCH   5  11
ATOM     10  OXT UNL     1      32.060 -15.523 -21.284  0.00  0.00    -0.248 OA
ATOM     11  C   UNL     1      32.759 -14.521 -21.307  0.00  0.00    +0.332 C 
BRANCH  11  12
ATOM     12  O   UNL     1      32.438 -13.352 -20.702  0.00  0.00    -0.479 OA
ATOM     13  H   UNL     1      32.199 -13.343 -19.796  0.00  0.00    +0.295 HD
ENDBRANCH  11  12
ENDBRANCH   5  11
ENDBRANCH   1   9
BRANCH   1  15
ATOM     14  O   UNL     1      37.968 -19.124 -21.202  0.00  0.00    -0.226 OA
ATOM     15  N   UNL     1      35.663 -18.864 -21.102  0.00  0.00    -0.264 N 
ATOM     16  C   ACE A   0      36.883 -19.377 -20.690  0.00  0.00    +0.402 C 
ATOM     17  H   UNL     1      34.856 -19.141 -20.610  0.00  0.00    +0.153 HD
BRANCH  16  18
ATOM     18  O   UNL     1      36.706 -20.212 -19.622  0.00  0.00    -0.430 OA
BRANCH  18  19
ATOM     19  C   UNL     1      35.819 -21.316 -19.832  0.00  0.00    +0.237 C 
BRANCH  19  20
ATOM     20  C   UNL     1      35.507 -21.952 -18.509  0.00  0.00    +0.021 C 
ATOM     21  C   UNL     1      34.258 -22.529 -18.301  0.00  0.00    -0.001 C 
ATOM     22  C   UNL     1      36.467 -21.959 -17.505  0.00  0.00    -0.001 C 
ATOM     23  C   UNL     1      33.968 -23.119 -17.071  0.00  0.00    -0.000 C 
ATOM     24  C   UNL     1      36.176 -22.549 -16.275  0.00  0.00    -0.000 C 
ATOM     25  C   UNL     1      34.927 -23.130 -16.058  0.00  0.00    -0.000 C 
ENDBRANCH  19  20
ENDBRANCH  18  19
ENDBRANCH  16  18
ENDBRANCH   1  15
TORSDOF 7
ENDMDL
MODEL 7
REMARK VINA RESULT:      -8.3      2.052      2.972
REMARK  Name = 5388928
REMARK  7 active torsions:
REMARK  status: ('A' for Active; 'I' for Inactive)
REMARK    1  A    between atoms: CA_1  and  C_9
REMARK    2  A    between atoms: CA_1  and  N_15
REMARK    3  A    between atoms: CA_5  and  C_11
REMARK    4  A    between atoms: C_11  and  O_12
REMARK    5  A    between atoms: C_16  and  O_18
REMARK    6  A    between atoms: O_18  and  C_19
REMARK    7  A    between atoms: C_19  and  C_20
REMARK                            x       y       z     vdW  Elec       q    Type
REMARK                         _______ _______ _______ _____ _____    ______ ____
ROOT
ATOM      1  CA  UNL     1      33.495 -23.871 -13.825  0.00  0.00    +0.151 C 
ATOM      2  CB  UNL     1      32.514 -25.019 -13.799  0.00  0.00    +0.031 C 
ENDROOT
BRANCH   1   9
ATOM      3  O   UNL     1      34.769 -23.729 -11.819  0.00  0.00    -0.273 OA
ATOM      4  N   UNL     1      35.672 -24.959 -13.558  0.00  0.00    -0.270 N 
ATOM      5  CA  UNL     1      36.816 -25.478 -12.819  0.00  0.00    +0.175 C 
ATOM      6  CB  UNL     1      37.348 -26.618 -13.680  0.00  0.00    +0.033 C 
ATOM      7  CG  UNL     1      36.969 -26.199 -15.098  0.00  0.00    +0.024 C 
ATOM      8  CD  UNL     1      35.626 -25.509 -14.911  0.00  0.00    +0.094 C 
ATOM      9  C   UNL     1      34.696 -24.175 -12.965  0.00  0.00    +0.244 C 
BRANCH   5  11
ATOM     10  OXT UNL     1      38.421 -23.864 -13.630  0.00  0.00    -0.248 OA
ATOM     11  C   UNL     1      37.808 -24.361 -12.698  0.00  0.00    +0.332 C 
BRANCH  11  12
ATOM     12  O   UNL     1      37.938 -23.975 -11.405  0.00  0.00    -0.479 OA
ATOM     13  H   UNL     1      38.682 -23.472 -11.139  0.00  0.00    +0.295 HD
ENDBRANCH  11  12
ENDBRANCH   5  11
ENDBRANCH   1   9
BRANCH   1  15
ATOM     14  O   UNL     1      32.075 -23.098 -16.239  0.00  0.00    -0.226 OA
ATOM     15  N   UNL     1      34.040 -23.650 -15.131  0.00  0.00    -0.264 N 
ATOM     16  C   ACE A   0      33.288 -23.281 -16.236  0.00  0.00    +0.402 C 
ATOM     17  H   UNL     1      35.010 -23.767 -15.252  0.00  0.00    +0.153 HD
BRANCH  16  18
ATOM     18  O   UNL     1      34.095 -23.147 -17.331  0.00  0.00    -0.430 OA
BRANCH  18  19
ATOM     19  C   UNL     1      33.433 -22.828 -18.560  0.00  0.00    +0.237 C 
BRANCH  19  20
ATOM     20  C   UNL     1      34.239 -21.798 -19.297  0.00  0.00    +0.021 C 
ATOM     21  C   UNL     1      35.628 -21.825 -19.216  0.00  0.00    -0.001 C 
ATOM     22  C   UNL     1      33.592 -20.828 -20.052  0.00  0.00    -0.001 C 
ATOM     23  C   UNL     1      36.377 -20.868 -19.900  0.00  0.00    -0.000 C 
ATOM     24  C   UNL     1      34.342 -19.871 -20.737  0.00  0.00    -0.000 C 
ATOM     25  C   UNL     1      35.734 -19.892 -20.660  0.00  0.00    -0.000 C 
ENDBRANCH  19  20
ENDBRANCH  18  19
ENDBRANCH  16  18
ENDBRANCH   1  15
TORSDOF 7
ENDMDL
MODEL 8
REMARK VINA RESULT:      -8.2      8.919     12.788
REMARK  Name = 5388928
REMARK  7 active torsions:
REMARK  status: ('A' for Active; 'I' for Inactive)
REMARK    1  A    between atoms: CA_1  and  C_9
REMARK    2  A    between atoms: CA_1  and  N_15
REMARK    3  A    between atoms: CA_5  and  C_11
REMARK    4  A    between atoms: C_11  and  O_12
REMARK    5  A    between atoms: C_16  and  O_18
REMARK    6  A    between atoms: O_18  and  C_19
REMARK    7  A    between atoms: C_19  and  C_20
REMARK                            x       y       z     vdW  Elec       q    Type
REMARK                         _______ _______ _______ _____ _____    ______ ____
ROOT
ATOM      1  CA  UNL     1      33.088 -14.793 -24.908  0.00  0.00    +0.151 C 
ATOM      2  CB  UNL     1      33.064 -15.378 -26.300  0.00  0.00    +0.031 C 
ENDROOT
BRANCH   1   9
ATOM      3  O   UNL     1      35.050 -16.094 -24.554  0.00  0.00    -0.273 OA
ATOM      4  N   UNL     1      33.842 -15.475 -22.680  0.00  0.00    -0.270 N 
ATOM      5  CA  UNL     1      34.791 -15.979 -21.696  0.00  0.00    +0.175 C 
ATOM      6  CB  UNL     1      34.360 -15.340 -20.381  0.00  0.00    +0.033 C 
ATOM      7  CG  UNL     1      32.856 -15.144 -20.557  0.00  0.00    +0.024 C 
ATOM      8  CD  UNL     1      32.719 -14.800 -22.032  0.00  0.00    +0.094 C 
ATOM      9  C   UNL     1      34.091 -15.514 -24.043  0.00  0.00    +0.244 C 
BRANCH   5  11
ATOM     10  OXT UNL     1      33.729 -18.075 -21.128  0.00  0.00    -0.248 OA
ATOM     11  C   UNL     1      34.645 -17.471 -21.664  0.00  0.00    +0.332 C 
BRANCH  11  12
ATOM     12  O   UNL     1      35.675 -18.065 -22.314  0.00  0.00    -0.479 OA
ATOM     13  H   UNL     1      35.670 -18.992 -22.450  0.00  0.00    +0.295 HD
ENDBRANCH  11  12
ENDBRANCH   5  11
ENDBRANCH   1   9
BRANCH   1  15
ATOM     14  O   UNL     1      33.154 -12.929 -27.135  0.00  0.00    -0.226 OA
ATOM     15  N   UNL     1      33.523 -13.430 -24.898  0.00  0.00    -0.264 N 
ATOM     16  C   ACE A   0      33.523 -12.604 -26.011  0.00  0.00    +0.402 C 
ATOM     17  H   UNL     1      33.843 -13.053 -24.045  0.00  0.00    +0.153 HD
BRANCH  16  18
ATOM     18  O   UNL     1      33.994 -11.365 -25.678  0.00  0.00    -0.430 OA
BRANCH  18  19
ATOM     19  C   UNL     1      34.241 -11.143 -24.285  0.00  0.00    +0.237 C 
BRANCH  19  20
ATOM     20  C   UNL     1      33.925  -9.713 -23.954  0.00  0.00    +0.021 C 
ATOM     21  C   UNL     1      32.634  -9.366 -23.569  0.00  0.00    -0.001 C 
ATOM     22  C   UNL     1      34.924  -8.751 -24.034  0.00  0.00    -0.001 C 
ATOM     23  C   UNL     1      32.340  -8.038 -23.261  0.00  0.00    -0.000 C 
ATOM     24  C   UNL     1      34.630  -7.423 -23.726  0.00  0.00    -0.000 C 
ATOM     25  C   UNL     1      33.338  -7.066 -23.340  0.00  0.00    -0.000 C 
ENDBRANCH  19  20
ENDBRANCH  18  19
ENDBRANCH  16  18
ENDBRANCH   1  15
TORSDOF 7
ENDMDL
MODEL 9
REMARK VINA RESULT:      -8.1      8.553     12.075
REMARK  Name = 5388928
REMARK  7 active torsions:
REMARK  status: ('A' for Active; 'I' for Inactive)
REMARK    1  A    between atoms: CA_1  and  C_9
REMARK    2  A    between atoms: CA_1  and  N_15
REMARK    3  A    between atoms: CA_5  and  C_11
REMARK    4  A    between atoms: C_11  and  O_12
REMARK    5  A    between atoms: C_16  and  O_18
REMARK    6  A    between atoms: O_18  and  C_19
REMARK    7  A    between atoms: C_19  and  C_20
REMARK                            x       y       z     vdW  Elec       q    Type
REMARK                         _______ _______ _______ _____ _____    ______ ____
ROOT
ATOM      1  CA  UNL     1      33.328 -14.764 -21.677  0.00  0.00    +0.151 C 
ATOM      2  CB  UNL     1      32.319 -15.673 -21.018  0.00  0.00    +0.031 C 
ENDROOT
BRANCH   1   9
ATOM      3  O   UNL     1      33.986 -15.049 -23.947  0.00  0.00    -0.273 OA
ATOM      4  N   UNL     1      34.733 -16.624 -22.426  0.00  0.00    -0.270 N 
ATOM      5  CA  UNL     1      35.605 -17.343 -23.345  0.00  0.00    +0.175 C 
ATOM      6  CB  UNL     1      36.487 -18.205 -22.448  0.00  0.00    +0.033 C 
ATOM      7  CG  UNL     1      35.603 -18.469 -21.230  0.00  0.00    +0.024 C 
ATOM      8  CD  UNL     1      34.828 -17.170 -21.073  0.00  0.00    +0.094 C 
ATOM      9  C   UNL     1      34.043 -15.480 -22.795  0.00  0.00    +0.244 C 
BRANCH   5  11
ATOM     10  OXT UNL     1      34.228 -19.247 -23.914  0.00  0.00    -0.248 OA
ATOM     11  C   UNL     1      34.726 -18.176 -24.228  0.00  0.00    +0.332 C 
BRANCH  11  12
ATOM     12  O   UNL     1      34.558 -17.581 -25.434  0.00  0.00    -0.479 OA
ATOM     13  H   UNL     1      33.937 -16.887 -25.531  0.00  0.00    +0.295 HD
ENDBRANCH  11  12
ENDBRANCH   5  11
ENDBRANCH   1   9
BRANCH   1  15
ATOM     14  O   UNL     1      32.002 -12.511 -20.409  0.00  0.00    -0.226 OA
ATOM     15  N   UNL     1      32.714 -13.637 -22.311  0.00  0.00    -0.264 N 
ATOM     16  C   ACE A   0      32.099 -12.599 -21.629  0.00  0.00    +0.402 C 
ATOM     17  H   UNL     1      32.729 -13.596 -23.295  0.00  0.00    +0.153 HD
BRANCH  16  18
ATOM     18  O   UNL     1      31.611 -11.678 -22.513  0.00  0.00    -0.430 OA
BRANCH  18  19
ATOM     19  C   UNL     1      31.555 -10.327 -22.041  0.00  0.00    +0.237 C 
BRANCH  19  20
ATOM     20  C   UNL     1      32.681  -9.547 -22.655  0.00  0.00    +0.021 C 
ATOM     21  C   UNL     1      32.911  -8.236 -22.249  0.00  0.00    -0.001 C 
ATOM     22  C   UNL     1      33.482 -10.140 -23.623  0.00  0.00    -0.001 C 
ATOM     23  C   UNL     1      33.957  -7.511 -22.820  0.00  0.00    -0.000 C 
ATOM     24  C   UNL     1      34.528  -9.414 -24.193  0.00  0.00    -0.000 C 
ATOM     25  C   UNL     1      34.765  -8.100 -23.791  0.00  0.00    -0.000 C 
ENDBRANCH  19  20
ENDBRANCH  18  19
ENDBRANCH  16  18
ENDBRANCH   1  15
TORSDOF 7
ENDMDL
