MODEL 1
REMARK VINA RESULT:      -6.9      0.000      0.000
REMARK  Name = 4991
REMARK  2 active torsions:
REMARK  status: ('A' for Active; 'I' for Inactive)
REMARK    1  A    between atoms: C_2  and  O_8
REMARK    2  A    between atoms: O_8  and  C_11
REMARK                            x       y       z     vdW  Elec       q    Type
REMARK                         _______ _______ _______ _____ _____    ______ ____
ROOT
ATOM      1  N   UNL     1      35.389 -20.925 -19.684  0.00  0.00    -0.298 N 
ATOM      2  C   UNL     1      34.947 -19.179 -21.242  0.00  0.00    +0.147 C 
ATOM      3  C   UNL     1      35.844 -19.903 -20.496  0.00  0.00    +0.156 C 
ATOM      4  C   UNL     1      34.035 -21.194 -19.642  0.00  0.00    +0.062 C 
ATOM      5  C   UNL     1      33.600 -19.431 -21.214  0.00  0.00    +0.036 C 
ATOM      6  C   UNL     1      33.132 -20.457 -20.400  0.00  0.00    +0.019 C 
ATOM      7  C   UNL     1      36.321 -21.703 -18.885  0.00  0.00    +0.113 C 
ENDROOT
BRANCH   2   8
ATOM      8  O   UNL     1      35.427 -18.147 -22.055  0.00  0.00    -0.413 OA
BRANCH   8  11
ATOM      9  O   UNL     1      35.143 -16.536 -20.416  0.00  0.00    -0.226 OA
ATOM     10  N   UNL     1      34.736 -16.007 -22.644  0.00  0.00    -0.242 N 
ATOM     11  C   UNL     1      35.104 -16.864 -21.602  0.00  0.00    +0.409 C 
ATOM     12  C   UNL     1      34.365 -14.627 -22.361  0.00  0.00    +0.118 C 
ATOM     13  C   UNL     1      34.696 -16.405 -24.047  0.00  0.00    +0.118 C 
ENDBRANCH   8  11
ENDBRANCH   2   8
TORSDOF 2
ENDMDL
MODEL 2
REMARK VINA RESULT:      -6.7      1.224      1.944
REMARK  Name = 4991
REMARK  2 active torsions:
REMARK  status: ('A' for Active; 'I' for Inactive)
REMARK    1  A    between atoms: C_2  and  O_8
REMARK    2  A    between atoms: O_8  and  C_11
REMARK                            x       y       z     vdW  Elec       q    Type
REMARK                         _______ _______ _______ _____ _____    ______ ____
ROOT
ATOM      1  N   UNL     1      34.888 -21.100 -19.653  0.00  0.00    -0.298 N 
ATOM      2  C   UNL     1      34.907 -19.390 -21.310  0.00  0.00    +0.147 C 
ATOM      3  C   UNL     1      35.590 -20.257 -20.493  0.00  0.00    +0.156 C 
ATOM      4  C   UNL     1      33.507 -21.050 -19.655  0.00  0.00    +0.062 C 
ATOM      5  C   UNL     1      33.538 -19.325 -21.326  0.00  0.00    +0.036 C 
ATOM      6  C   UNL     1      32.822 -20.169 -20.484  0.00  0.00    +0.019 C 
ATOM      7  C   UNL     1      35.591 -22.025 -18.779  0.00  0.00    +0.113 C 
ENDROOT
BRANCH   2   8
ATOM      8  O   UNL     1      35.636 -18.543 -22.151  0.00  0.00    -0.413 OA
BRANCH   8  11
ATOM      9  O   UNL     1      35.063 -19.511 -24.175  0.00  0.00    -0.226 OA
ATOM     10  N   UNL     1      34.844 -17.214 -23.886  0.00  0.00    -0.242 N 
ATOM     11  C   UNL     1      35.171 -18.509 -23.470  0.00  0.00    +0.409 C 
ATOM     12  C   UNL     1      34.342 -16.983 -25.234  0.00  0.00    +0.118 C 
ATOM     13  C   UNL     1      34.972 -16.032 -23.040  0.00  0.00    +0.118 C 
ENDBRANCH   8  11
ENDBRANCH   2   8
TORSDOF 2
ENDMDL
MODEL 3
REMARK VINA RESULT:      -6.5      1.562      5.235
REMARK  Name = 4991
REMARK  2 active torsions:
REMARK  status: ('A' for Active; 'I' for Inactive)
REMARK    1  A    between atoms: C_2  and  O_8
REMARK    2  A    between atoms: O_8  and  C_11
REMARK                            x       y       z     vdW  Elec       q    Type
REMARK                         _______ _______ _______ _____ _____    ______ ____
ROOT
ATOM      1  N   UNL     1      34.631 -16.578 -23.326  0.00  0.00    -0.298 N 
ATOM      2  C   UNL     1      34.932 -18.513 -21.972  0.00  0.00    +0.147 C 
ATOM      3  C   UNL     1      34.798 -17.151 -22.079  0.00  0.00    +0.156 C 
ATOM      4  C   UNL     1      34.604 -17.395 -24.440  0.00  0.00    +0.062 C 
ATOM      5  C   UNL     1      34.908 -19.340 -23.064  0.00  0.00    +0.036 C 
ATOM      6  C   UNL     1      34.741 -18.774 -24.323  0.00  0.00    +0.019 C 
ATOM      7  C   UNL     1      34.487 -15.138 -23.463  0.00  0.00    +0.113 C 
ENDROOT
BRANCH   2   8
ATOM      8  O   UNL     1      35.103 -19.073 -20.701  0.00  0.00    -0.413 OA
BRANCH   8  11
ATOM      9  O   UNL     1      32.927 -19.851 -20.549  0.00  0.00    -0.226 OA
ATOM     10  N   UNL     1      34.684 -21.167 -19.782  0.00  0.00    -0.242 N 
ATOM     11  C   UNL     1      34.131 -20.019 -20.359  0.00  0.00    +0.409 C 
ATOM     12  C   UNL     1      33.822 -22.263 -19.360  0.00  0.00    +0.118 C 
ATOM     13  C   UNL     1      36.114 -21.358 -19.564  0.00  0.00    +0.118 C 
ENDBRANCH   8  11
ENDBRANCH   2   8
TORSDOF 2
ENDMDL
MODEL 4
REMARK VINA RESULT:      -6.4      1.243      2.076
REMARK  Name = 4991
REMARK  2 active torsions:
REMARK  status: ('A' for Active; 'I' for Inactive)
REMARK    1  A    between atoms: C_2  and  O_8
REMARK    2  A    between atoms: O_8  and  C_11
REMARK                            x       y       z     vdW  Elec       q    Type
REMARK                         _______ _______ _______ _____ _____    ______ ____
ROOT
ATOM      1  N   UNL     1      34.076 -19.982 -20.582  0.00  0.00    -0.298 N 
ATOM      2  C   UNL     1      35.384 -18.208 -21.482  0.00  0.00    +0.147 C 
ATOM      3  C   UNL     1      34.155 -18.762 -21.226  0.00  0.00    +0.156 C 
ATOM      4  C   UNL     1      35.245 -20.619 -20.210  0.00  0.00    +0.062 C 
ATOM      5  C   UNL     1      36.555 -18.824 -21.121  0.00  0.00    +0.036 C 
ATOM      6  C   UNL     1      36.487 -20.052 -20.474  0.00  0.00    +0.019 C 
ATOM      7  C   UNL     1      32.785 -20.587 -20.302  0.00  0.00    +0.113 C 
ENDROOT
BRANCH   2   8
ATOM      8  O   UNL     1      35.443 -16.973 -22.137  0.00  0.00    -0.413 OA
BRANCH   8  11
ATOM      9  O   UNL     1      34.890 -15.699 -20.284  0.00  0.00    -0.226 OA
ATOM     10  N   UNL     1      33.908 -15.238 -22.342  0.00  0.00    -0.242 N 
ATOM     11  C   UNL     1      34.756 -15.946 -21.482  0.00  0.00    +0.409 C 
ATOM     12  C   UNL     1      33.111 -14.130 -21.834  0.00  0.00    +0.118 C 
ATOM     13  C   UNL     1      33.759 -15.537 -23.762  0.00  0.00    +0.118 C 
ENDBRANCH   8  11
ENDBRANCH   2   8
TORSDOF 2
ENDMDL
MODEL 5
REMARK VINA RESULT:      -6.3      1.352      5.251
REMARK  Name = 4991
REMARK  2 active torsions:
REMARK  status: ('A' for Active; 'I' for Inactive)
REMARK    1  A    between atoms: C_2  and  O_8
REMARK    2  A    between atoms: O_8  and  C_11
REMARK                            x       y       z     vdW  Elec       q    Type
REMARK                         _______ _______ _______ _____ _____    ______ ____
ROOT
ATOM      1  N   UNL     1      34.701 -16.817 -23.683  0.00  0.00    -0.298 N 
ATOM      2  C   UNL     1      35.144 -17.883 -21.601  0.00  0.00    +0.147 C 
ATOM      3  C   UNL     1      35.054 -17.946 -22.969  0.00  0.00    +0.156 C 
ATOM      4  C   UNL     1      34.445 -15.645 -22.998  0.00  0.00    +0.062 C 
ATOM      5  C   UNL     1      34.893 -16.730 -20.903  0.00  0.00    +0.036 C 
ATOM      6  C   UNL     1      34.537 -15.588 -21.612  0.00  0.00    +0.019 C 
ATOM      7  C   UNL     1      34.600 -16.862 -25.133  0.00  0.00    +0.113 C 
ENDROOT
BRANCH   2   8
ATOM      8  O   UNL     1      35.500 -19.037 -20.896  0.00  0.00    -0.413 OA
BRANCH   8  11
ATOM      9  O   UNL     1      33.267 -19.648 -20.942  0.00  0.00    -0.226 OA
ATOM     10  N   UNL     1      34.808 -20.975 -19.813  0.00  0.00    -0.242 N 
ATOM     11  C   UNL     1      34.422 -19.870 -20.580  0.00  0.00    +0.409 C 
ATOM     12  C   UNL     1      33.816 -21.954 -19.389  0.00  0.00    +0.118 C 
ATOM     13  C   UNL     1      36.181 -21.231 -19.392  0.00  0.00    +0.118 C 
ENDBRANCH   8  11
ENDBRANCH   2   8
TORSDOF 2
ENDMDL
MODEL 6
REMARK VINA RESULT:      -6.2      3.304      6.238
REMARK  Name = 4991
REMARK  2 active torsions:
REMARK  status: ('A' for Active; 'I' for Inactive)
REMARK    1  A    between atoms: C_2  and  O_8
REMARK    2  A    between atoms: O_8  and  C_11
REMARK                            x       y       z     vdW  Elec       q    Type
REMARK                         _______ _______ _______ _____ _____    ______ ____
ROOT
ATOM      1  N   UNL     1      33.156 -12.763 -23.088  0.00  0.00    -0.298 N 
ATOM      2  C   UNL     1      34.248 -14.879 -23.098  0.00  0.00    +0.147 C 
ATOM      3  C   UNL     1      34.131 -13.604 -23.592  0.00  0.00    +0.156 C 
ATOM      4  C   UNL     1      32.319 -13.231 -22.093  0.00  0.00    +0.062 C 
ATOM      5  C   UNL     1      33.427 -15.361 -22.112  0.00  0.00    +0.036 C 
ATOM      6  C   UNL     1      32.443 -14.524 -21.598  0.00  0.00    +0.019 C 
ATOM      7  C   UNL     1      33.014 -11.409 -23.597  0.00  0.00    +0.113 C 
ENDROOT
BRANCH   2   8
ATOM      8  O   UNL     1      35.239 -15.715 -23.623  0.00  0.00    -0.413 OA
BRANCH   8  11
ATOM      9  O   UNL     1      34.139 -16.508 -25.500  0.00  0.00    -0.226 OA
ATOM     10  N   UNL     1      35.040 -18.006 -23.966  0.00  0.00    -0.242 N 
ATOM     11  C   UNL     1      34.751 -16.728 -24.456  0.00  0.00    +0.409 C 
ATOM     12  C   UNL     1      34.609 -19.186 -24.702  0.00  0.00    +0.118 C 
ATOM     13  C   UNL     1      35.771 -18.255 -22.728  0.00  0.00    +0.118 C 
ENDBRANCH   8  11
ENDBRANCH   2   8
TORSDOF 2
ENDMDL
MODEL 7
REMARK VINA RESULT:      -6.2      8.938     10.357
REMARK  Name = 4991
REMARK  2 active torsions:
REMARK  status: ('A' for Active; 'I' for Inactive)
REMARK    1  A    between atoms: C_2  and  O_8
REMARK    2  A    between atoms: O_8  and  C_11
REMARK                            x       y       z     vdW  Elec       q    Type
REMARK                         _______ _______ _______ _____ _____    ______ ____
ROOT
ATOM      1  N   UNL     1      34.082 -10.001 -24.233  0.00  0.00    -0.298 N 
ATOM      2  C   UNL     1      32.775  -8.810 -22.638  0.00  0.00    +0.147 C 
ATOM      3  C   UNL     1      32.980  -9.932 -23.402  0.00  0.00    +0.156 C 
ATOM      4  C   UNL     1      34.956  -8.932 -24.276  0.00  0.00    +0.062 C 
ATOM      5  C   UNL     1      33.630  -7.738 -22.667  0.00  0.00    +0.036 C 
ATOM      6  C   UNL     1      34.742  -7.797 -23.500  0.00  0.00    +0.019 C 
ATOM      7  C   UNL     1      34.317 -11.180 -25.050  0.00  0.00    +0.113 C 
ENDROOT
BRANCH   2   8
ATOM      8  O   UNL     1      31.653  -8.758 -21.805  0.00  0.00    -0.413 OA
BRANCH   8  11
ATOM      9  O   UNL     1      32.559  -8.402 -19.704  0.00  0.00    -0.226 OA
ATOM     10  N   UNL     1      31.349 -10.342 -20.130  0.00  0.00    -0.242 N 
ATOM     11  C   UNL     1      31.911  -9.108 -20.476  0.00  0.00    +0.409 C 
ATOM     12  C   UNL     1      31.516 -10.870 -18.784  0.00  0.00    +0.118 C 
ATOM     13  C   UNL     1      30.579 -11.170 -21.052  0.00  0.00    +0.118 C 
ENDBRANCH   8  11
ENDBRANCH   2   8
TORSDOF 2
ENDMDL
MODEL 8
REMARK VINA RESULT:      -6.2      1.870      5.750
REMARK  Name = 4991
REMARK  2 active torsions:
REMARK  status: ('A' for Active; 'I' for Inactive)
REMARK    1  A    between atoms: C_2  and  O_8
REMARK    2  A    between atoms: O_8  and  C_11
REMARK                            x       y       z     vdW  Elec       q    Type
REMARK                         _______ _______ _______ _____ _____    ______ ____
ROOT
ATOM      1  N   UNL     1      33.388 -14.872 -24.954  0.00  0.00    -0.298 N 
ATOM      2  C   UNL     1      34.770 -15.722 -23.211  0.00  0.00    +0.147 C 
ATOM      3  C   UNL     1      34.256 -15.836 -24.479  0.00  0.00    +0.156 C 
ATOM      4  C   UNL     1      33.056 -13.809 -24.136  0.00  0.00    +0.062 C 
ATOM      5  C   UNL     1      34.452 -14.676 -22.384  0.00  0.00    +0.036 C 
ATOM      6  C   UNL     1      33.579 -13.700 -22.852  0.00  0.00    +0.019 C 
ATOM      7  C   UNL     1      32.832 -14.974 -26.294  0.00  0.00    +0.113 C 
ENDROOT
BRANCH   2   8
ATOM      8  O   UNL     1      35.645 -16.710 -22.748  0.00  0.00    -0.413 OA
BRANCH   8  11
ATOM      9  O   UNL     1      35.180 -16.905 -20.488  0.00  0.00    -0.226 OA
ATOM     10  N   UNL     1      34.744 -18.686 -21.918  0.00  0.00    -0.242 N 
ATOM     11  C   UNL     1      35.188 -17.394 -21.617  0.00  0.00    +0.409 C 
ATOM     12  C   UNL     1      34.232 -19.549 -20.862  0.00  0.00    +0.118 C 
ATOM     13  C   UNL     1      34.754 -19.256 -23.262  0.00  0.00    +0.118 C 
ENDBRANCH   8  11
ENDBRANCH   2   8
TORSDOF 2
ENDMDL
MODEL 9
REMARK VINA RESULT:      -6.1      1.448      2.193
REMARK  Name = 4991
REMARK  2 active torsions:
REMARK  status: ('A' for Active; 'I' for Inactive)
REMARK    1  A    between atoms: C_2  and  O_8
REMARK    2  A    between atoms: O_8  and  C_11
REMARK                            x       y       z     vdW  Elec       q    Type
REMARK                         _______ _______ _______ _____ _____    ______ ____
ROOT
ATOM      1  N   UNL     1      34.327 -21.888 -18.973  0.00  0.00    -0.298 N 
ATOM      2  C   UNL     1      34.484 -20.233 -20.678  0.00  0.00    +0.147 C 
ATOM      3  C   UNL     1      33.715 -21.044 -19.881  0.00  0.00    +0.156 C 
ATOM      4  C   UNL     1      35.706 -21.894 -18.889  0.00  0.00    +0.062 C 
ATOM      5  C   UNL     1      35.853 -20.224 -20.610  0.00  0.00    +0.036 C 
ATOM      6  C   UNL     1      36.478 -21.069 -19.700  0.00  0.00    +0.019 C 
ATOM      7  C   UNL     1      33.532 -22.755 -18.120  0.00  0.00    +0.113 C 
ENDROOT
BRANCH   2   8
ATOM      8  O   UNL     1      33.846 -19.389 -21.593  0.00  0.00    -0.413 OA
BRANCH   8  11
ATOM      9  O   UNL     1      34.543 -17.375 -20.686  0.00  0.00    -0.226 OA
ATOM     10  N   UNL     1      34.758 -17.753 -22.971  0.00  0.00    -0.242 N 
ATOM     11  C   UNL     1      34.396 -18.105 -21.666  0.00  0.00    +0.409 C 
ATOM     12  C   UNL     1      35.349 -16.450 -23.240  0.00  0.00    +0.118 C 
ATOM     13  C   UNL     1      34.583 -18.628 -24.125  0.00  0.00    +0.118 C 
ENDBRANCH   8  11
ENDBRANCH   2   8
TORSDOF 2
ENDMDL
