MODEL 1
REMARK VINA RESULT:      -8.0      0.000      0.000
REMARK  Name = 5983
REMARK  2 active torsions:
REMARK  status: ('A' for Active; 'I' for Inactive)
REMARK    1  A    between atoms: C_14  and  O_17
REMARK    2  A    between atoms: O_17  and  C_20
REMARK                            x       y       z     vdW  Elec       q    Type
REMARK                         _______ _______ _______ _____ _____    ______ ____
ROOT
ATOM      1  N   UNL     1      33.232 -11.051 -23.277  0.00  0.00    +0.398 N 
ATOM      2  N   UNL     1      32.241 -12.968 -21.838  0.00  0.00    -0.327 N 
ATOM      3  C   UNL     1      33.210 -13.326 -24.028  0.00  0.00    +0.017 C 
ATOM      4  C   UNL     1      32.428 -12.289 -23.131  0.00  0.00    +0.023 C 
ATOM      5  C   UNL     1      34.315 -12.515 -24.710  0.00  0.00    -0.019 C 
ATOM      6  C   UNL     1      33.715 -14.305 -23.002  0.00  0.00    -0.007 C 
ATOM      7  C   UNL     1      33.818 -11.084 -24.615  0.00  0.00    -0.075 C 
ATOM      8  C   UNL     1      33.111 -14.040 -21.767  0.00  0.00    +0.042 C 
ATOM      9  C   UNL     1      32.287 -14.010 -25.042  0.00  0.00    +0.004 C 
ATOM     10  C   UNL     1      32.457  -9.839 -23.051  0.00  0.00    -0.098 C 
ATOM     11  C   UNL     1      34.618 -15.345 -23.169  0.00  0.00    +0.035 C 
ATOM     12  C   UNL     1      31.593 -12.354 -20.707  0.00  0.00    +0.110 C 
ATOM     13  C   UNL     1      33.414 -14.834 -20.670  0.00  0.00    +0.017 C 
ATOM     14  C   UNL     1      34.925 -16.138 -22.064  0.00  0.00    +0.150 C 
ATOM     15  C   UNL     1      34.326 -15.884 -20.823  0.00  0.00    +0.039 C 
ATOM     16  H   UNL     1      33.957 -11.023 -22.560  0.00  0.00    -0.077 HD
ENDROOT
BRANCH  14  17
ATOM     17  O   UNL     1      35.808 -17.167 -22.191  0.00  0.00    -0.410 OA
BRANCH  17  20
ATOM     18  O   UNL     1      34.372 -18.942 -22.626  0.00  0.00    -0.226 OA
ATOM     19  N   UNL     1      35.883 -19.038 -20.869  0.00  0.00    -0.269 N 
ATOM     20  C   UNL     1      35.269 -18.444 -21.951  0.00  0.00    +0.406 C 
ATOM     21  C   UNL     1      35.542 -20.354 -20.380  0.00  0.00    +0.114 C 
ATOM     22  H   UNL     1      36.592 -18.538 -20.403  0.00  0.00    +0.153 HD
ENDBRANCH  17  20
ENDBRANCH  14  17
TORSDOF 2
ENDMDL
MODEL 2
REMARK VINA RESULT:      -7.8      2.149      4.137
REMARK  Name = 5983
REMARK  2 active torsions:
REMARK  status: ('A' for Active; 'I' for Inactive)
REMARK    1  A    between atoms: C_14  and  O_17
REMARK    2  A    between atoms: O_17  and  C_20
REMARK                            x       y       z     vdW  Elec       q    Type
REMARK                         _______ _______ _______ _____ _____    ______ ____
ROOT
ATOM      1  N   UNL     1      32.874 -14.396 -23.165  0.00  0.00    +0.398 N 
ATOM      2  N   UNL     1      34.842 -16.020 -23.634  0.00  0.00    -0.327 N 
ATOM      3  C   UNL     1      33.937 -15.649 -21.419  0.00  0.00    +0.017 C 
ATOM      4  C   UNL     1      34.197 -14.974 -22.822  0.00  0.00    +0.023 C 
ATOM      5  C   UNL     1      32.505 -15.254 -21.044  0.00  0.00    -0.019 C 
ATOM      6  C   UNL     1      34.103 -17.109 -21.741  0.00  0.00    -0.007 C 
ATOM      7  C   UNL     1      32.234 -14.033 -21.902  0.00  0.00    -0.075 C 
ATOM      8  C   UNL     1      34.632 -17.247 -23.030  0.00  0.00    +0.042 C 
ATOM      9  C   UNL     1      34.955 -15.190 -20.370  0.00  0.00    +0.004 C 
ATOM     10  C   UNL     1      32.966 -13.264 -24.076  0.00  0.00    -0.098 C 
ATOM     11  C   UNL     1      33.822 -18.209 -20.942  0.00  0.00    +0.035 C 
ATOM     12  C   UNL     1      35.223 -15.833 -25.011  0.00  0.00    +0.110 C 
ATOM     13  C   UNL     1      34.889 -18.513 -23.535  0.00  0.00    +0.017 C 
ATOM     14  C   UNL     1      34.077 -19.480 -21.455  0.00  0.00    +0.150 C 
ATOM     15  C   UNL     1      34.607 -19.631 -22.743  0.00  0.00    +0.039 C 
ATOM     16  H   UNL     1      32.317 -15.084 -23.672  0.00  0.00    -0.077 HD
ENDROOT
BRANCH  14  17
ATOM     17  O   UNL     1      33.812 -20.582 -20.699  0.00  0.00    -0.410 OA
BRANCH  17  20
ATOM     18  O   UNL     1      35.948 -20.437 -19.794  0.00  0.00    -0.226 OA
ATOM     19  N   UNL     1      34.378 -21.896 -18.908  0.00  0.00    -0.269 N 
ATOM     20  C   UNL     1      34.825 -20.933 -19.788  0.00  0.00    +0.406 C 
ATOM     21  C   UNL     1      35.193 -22.456 -17.855  0.00  0.00    +0.114 C 
ATOM     22  H   UNL     1      33.452 -22.219 -19.001  0.00  0.00    +0.153 HD
ENDBRANCH  17  20
ENDBRANCH  14  17
TORSDOF 2
ENDMDL
MODEL 3
REMARK VINA RESULT:      -7.7      1.645      3.267
REMARK  Name = 5983
REMARK  2 active torsions:
REMARK  status: ('A' for Active; 'I' for Inactive)
REMARK    1  A    between atoms: C_14  and  O_17
REMARK    2  A    between atoms: O_17  and  C_20
REMARK                            x       y       z     vdW  Elec       q    Type
REMARK                         _______ _______ _______ _____ _____    ______ ____
ROOT
ATOM      1  N   UNL     1      32.019 -13.269 -22.100  0.00  0.00    +0.398 N 
ATOM      2  N   UNL     1      33.812 -13.988 -23.832  0.00  0.00    -0.327 N 
ATOM      3  C   UNL     1      33.923 -14.592 -21.489  0.00  0.00    +0.017 C 
ATOM      4  C   UNL     1      33.432 -13.484 -22.501  0.00  0.00    +0.023 C 
ATOM      5  C   UNL     1      32.758 -14.790 -20.515  0.00  0.00    -0.019 C 
ATOM      6  C   UNL     1      34.161 -15.763 -22.403  0.00  0.00    -0.007 C 
ATOM      7  C   UNL     1      31.949 -13.515 -20.661  0.00  0.00    -0.075 C 
ATOM      8  C   UNL     1      34.086 -15.340 -23.735  0.00  0.00    +0.042 C 
ATOM      9  C   UNL     1      35.211 -14.175 -20.772  0.00  0.00    +0.004 C 
ATOM     10  C   UNL     1      31.522 -11.948 -22.453  0.00  0.00    -0.098 C 
ATOM     11  C   UNL     1      34.437 -17.081 -22.066  0.00  0.00    +0.035 C 
ATOM     12  C   UNL     1      33.517 -13.291 -25.058  0.00  0.00    +0.110 C 
ATOM     13  C   UNL     1      34.293 -16.254 -24.759  0.00  0.00    +0.017 C 
ATOM     14  C   UNL     1      34.639 -17.998 -23.097  0.00  0.00    +0.150 C 
ATOM     15  C   UNL     1      34.568 -17.586 -24.435  0.00  0.00    +0.039 C 
ATOM     16  H   UNL     1      31.413 -13.912 -22.611  0.00  0.00    -0.077 HD
ENDROOT
BRANCH  14  17
ATOM     17  O   UNL     1      34.911 -19.300 -22.803  0.00  0.00    -0.410 OA
BRANCH  17  20
ATOM     18  O   UNL     1      35.681 -19.526 -20.622  0.00  0.00    -0.226 OA
ATOM     19  N   UNL     1      33.510 -20.118 -21.183  0.00  0.00    -0.269 N 
ATOM     20  C   UNL     1      34.778 -19.642 -21.445  0.00  0.00    +0.406 C 
ATOM     21  C   UNL     1      33.073 -20.549 -19.875  0.00  0.00    +0.114 C 
ATOM     22  H   UNL     1      32.867 -20.167 -21.928  0.00  0.00    +0.153 HD
ENDBRANCH  17  20
ENDBRANCH  14  17
TORSDOF 2
ENDMDL
MODEL 4
REMARK VINA RESULT:      -7.7      3.300      6.048
REMARK  Name = 5983
REMARK  2 active torsions:
REMARK  status: ('A' for Active; 'I' for Inactive)
REMARK    1  A    between atoms: C_14  and  O_17
REMARK    2  A    between atoms: O_17  and  C_20
REMARK                            x       y       z     vdW  Elec       q    Type
REMARK                         _______ _______ _______ _____ _____    ______ ____
ROOT
ATOM      1  N   UNL     1      33.550 -15.837 -25.086  0.00  0.00    +0.398 N 
ATOM      2  N   UNL     1      34.414 -15.048 -22.771  0.00  0.00    -0.327 N 
ATOM      3  C   UNL     1      33.482 -13.537 -24.418  0.00  0.00    +0.017 C 
ATOM      4  C   UNL     1      34.290 -14.879 -24.229  0.00  0.00    +0.023 C 
ATOM      5  C   UNL     1      32.433 -13.848 -25.490  0.00  0.00    -0.019 C 
ATOM      6  C   UNL     1      32.906 -13.325 -23.044  0.00  0.00    -0.007 C 
ATOM      7  C   UNL     1      32.995 -15.067 -26.196  0.00  0.00    -0.075 C 
ATOM      8  C   UNL     1      33.492 -14.227 -22.147  0.00  0.00    +0.042 C 
ATOM      9  C   UNL     1      34.395 -12.375 -24.824  0.00  0.00    +0.004 C 
ATOM     10  C   UNL     1      34.376 -16.944 -25.548  0.00  0.00    -0.098 C 
ATOM     11  C   UNL     1      31.958 -12.397 -22.636  0.00  0.00    +0.035 C 
ATOM     12  C   UNL     1      35.063 -16.177 -22.155  0.00  0.00    +0.110 C 
ATOM     13  C   UNL     1      33.125 -14.202 -20.810  0.00  0.00    +0.017 C 
ATOM     14  C   UNL     1      31.588 -12.378 -21.292  0.00  0.00    +0.150 C 
ATOM     15  C   UNL     1      32.168 -13.275 -20.385  0.00  0.00    +0.039 C 
ATOM     16  H   UNL     1      32.810 -16.284 -24.545  0.00  0.00    -0.077 HD
ENDROOT
BRANCH  14  17
ATOM     17  O   UNL     1      30.660 -11.481 -20.857  0.00  0.00    -0.410 OA
BRANCH  17  20
ATOM     18  O   UNL     1      31.077 -10.501 -18.791  0.00  0.00    -0.226 OA
ATOM     19  N   UNL     1      31.744  -9.463 -20.755  0.00  0.00    -0.269 N 
ATOM     20  C   UNL     1      31.161 -10.470 -20.015  0.00  0.00    +0.406 C 
ATOM     21  C   UNL     1      32.347  -8.288 -20.170  0.00  0.00    +0.114 C 
ATOM     22  H   UNL     1      31.749  -9.549 -21.736  0.00  0.00    +0.153 HD
ENDBRANCH  17  20
ENDBRANCH  14  17
TORSDOF 2
ENDMDL
MODEL 5
REMARK VINA RESULT:      -7.6      3.484      6.892
REMARK  Name = 5983
REMARK  2 active torsions:
REMARK  status: ('A' for Active; 'I' for Inactive)
REMARK    1  A    between atoms: C_14  and  O_17
REMARK    2  A    between atoms: O_17  and  C_20
REMARK                            x       y       z     vdW  Elec       q    Type
REMARK                         _______ _______ _______ _____ _____    ______ ____
ROOT
ATOM      1  N   UNL     1      34.757 -16.130 -23.381  0.00  0.00    +0.398 N 
ATOM      2  N   UNL     1      33.268 -14.778 -25.018  0.00  0.00    -0.327 N 
ATOM      3  C   UNL     1      33.492 -14.223 -22.671  0.00  0.00    +0.017 C 
ATOM      4  C   UNL     1      33.501 -15.412 -23.709  0.00  0.00    +0.023 C 
ATOM      5  C   UNL     1      34.693 -14.479 -21.756  0.00  0.00    -0.019 C 
ATOM      6  C   UNL     1      33.651 -13.026 -23.568  0.00  0.00    -0.007 C 
ATOM      7  C   UNL     1      34.979 -15.956 -21.947  0.00  0.00    -0.075 C 
ATOM      8  C   UNL     1      33.507 -13.420 -24.904  0.00  0.00    +0.042 C 
ATOM      9  C   UNL     1      32.175 -14.161 -21.890  0.00  0.00    +0.004 C 
ATOM     10  C   UNL     1      34.726 -17.535 -23.762  0.00  0.00    -0.098 C 
ATOM     11  C   UNL     1      33.887 -11.705 -23.215  0.00  0.00    +0.035 C 
ATOM     12  C   UNL     1      33.233 -15.508 -26.258  0.00  0.00    +0.110 C 
ATOM     13  C   UNL     1      33.596 -12.472 -25.913  0.00  0.00    +0.017 C 
ATOM     14  C   UNL     1      33.982 -10.756 -24.233  0.00  0.00    +0.150 C 
ATOM     15  C   UNL     1      33.838 -11.138 -25.573  0.00  0.00    +0.039 C 
ATOM     16  H   UNL     1      35.530 -15.740 -23.920  0.00  0.00    -0.077 HD
ENDROOT
BRANCH  14  17
ATOM     17  O   UNL     1      34.214  -9.450 -23.922  0.00  0.00    -0.410 OA
BRANCH  17  20
ATOM     18  O   UNL     1      31.960  -8.889 -23.816  0.00  0.00    -0.226 OA
ATOM     19  N   UNL     1      33.492  -7.936 -22.359  0.00  0.00    -0.269 N 
ATOM     20  C   UNL     1      33.106  -8.760 -23.395  0.00  0.00    +0.406 C 
ATOM     21  C   UNL     1      32.575  -7.100 -21.619  0.00  0.00    +0.114 C 
ATOM     22  H   UNL     1      34.445  -7.915 -22.110  0.00  0.00    +0.153 HD
ENDBRANCH  17  20
ENDBRANCH  14  17
TORSDOF 2
ENDMDL
MODEL 6
REMARK VINA RESULT:      -7.5      1.513      1.842
REMARK  Name = 5983
REMARK  2 active torsions:
REMARK  status: ('A' for Active; 'I' for Inactive)
REMARK    1  A    between atoms: C_14  and  O_17
REMARK    2  A    between atoms: O_17  and  C_20
REMARK                            x       y       z     vdW  Elec       q    Type
REMARK                         _______ _______ _______ _____ _____    ______ ____
ROOT
ATOM      1  N   UNL     1      33.454  -9.584 -23.134  0.00  0.00    +0.398 N 
ATOM      2  N   UNL     1      31.866 -11.590 -22.706  0.00  0.00    -0.327 N 
ATOM      3  C   UNL     1      33.644 -11.641 -24.349  0.00  0.00    +0.017 C 
ATOM      4  C   UNL     1      32.608 -10.702 -23.618  0.00  0.00    +0.023 C 
ATOM      5  C   UNL     1      34.970 -10.873 -24.323  0.00  0.00    -0.019 C 
ATOM      6  C   UNL     1      33.630 -12.863 -23.472  0.00  0.00    -0.007 C 
ATOM      7  C   UNL     1      34.544  -9.435 -24.096  0.00  0.00    -0.075 C 
ATOM      8  C   UNL     1      32.578 -12.766 -22.552  0.00  0.00    +0.042 C 
ATOM      9  C   UNL     1      33.200 -11.976 -25.777  0.00  0.00    +0.004 C 
ATOM     10  C   UNL     1      32.712  -8.345 -22.953  0.00  0.00    -0.098 C 
ATOM     11  C   UNL     1      34.471 -13.966 -23.508  0.00  0.00    +0.035 C 
ATOM     12  C   UNL     1      30.834 -11.128 -21.814  0.00  0.00    +0.110 C 
ATOM     13  C   UNL     1      32.358 -13.796 -21.649  0.00  0.00    +0.017 C 
ATOM     14  C   UNL     1      34.252 -14.996 -22.595  0.00  0.00    +0.150 C 
ATOM     15  C   UNL     1      33.202 -14.911 -21.671  0.00  0.00    +0.039 C 
ATOM     16  H   UNL     1      33.815  -9.800 -22.205  0.00  0.00    -0.077 HD
ENDROOT
BRANCH  14  17
ATOM     17  O   UNL     1      35.060 -16.093 -22.602  0.00  0.00    -0.410 OA
BRANCH  17  20
ATOM     18  O   UNL     1      35.256 -16.693 -20.365  0.00  0.00    -0.226 OA
ATOM     19  N   UNL     1      34.274 -18.129 -21.899  0.00  0.00    -0.269 N 
ATOM     20  C   UNL     1      34.892 -16.960 -21.506  0.00  0.00    +0.406 C 
ATOM     21  C   UNL     1      33.967 -19.213 -20.994  0.00  0.00    +0.114 C 
ATOM     22  H   UNL     1      34.028 -18.230 -22.847  0.00  0.00    +0.153 HD
ENDBRANCH  17  20
ENDBRANCH  14  17
TORSDOF 2
ENDMDL
MODEL 7
REMARK VINA RESULT:      -7.4     10.761     13.140
REMARK  Name = 5983
REMARK  2 active torsions:
REMARK  status: ('A' for Active; 'I' for Inactive)
REMARK    1  A    between atoms: C_14  and  O_17
REMARK    2  A    between atoms: O_17  and  C_20
REMARK                            x       y       z     vdW  Elec       q    Type
REMARK                         _______ _______ _______ _____ _____    ______ ____
ROOT
ATOM      1  N   UNL     1      30.548 -24.663 -15.682  0.00  0.00    +0.398 N 
ATOM      2  N   UNL     1      32.606 -23.153 -16.142  0.00  0.00    -0.327 N 
ATOM      3  C   UNL     1      31.919 -23.806 -13.913  0.00  0.00    +0.017 C 
ATOM      4  C   UNL     1      31.398 -23.488 -15.369  0.00  0.00    +0.023 C 
ATOM      5  C   UNL     1      31.184 -25.082 -13.493  0.00  0.00    -0.019 C 
ATOM      6  C   UNL     1      33.393 -23.998 -14.146  0.00  0.00    -0.007 C 
ATOM      7  C   UNL     1      29.980 -25.121 -14.416  0.00  0.00    -0.075 C 
ATOM      8  C   UNL     1      33.717 -23.598 -15.448  0.00  0.00    +0.042 C 
ATOM      9  C   UNL     1      31.654 -22.645 -12.949  0.00  0.00    +0.004 C 
ATOM     10  C   UNL     1      29.518 -24.375 -16.669  0.00  0.00    -0.098 C 
ATOM     11  C   UNL     1      34.354 -24.470 -13.264  0.00  0.00    +0.035 C 
ATOM     12  C   UNL     1      32.585 -22.828 -17.545  0.00  0.00    +0.110 C 
ATOM     13  C   UNL     1      35.033 -23.670 -15.881  0.00  0.00    +0.017 C 
ATOM     14  C   UNL     1      35.675 -24.547 -13.704  0.00  0.00    +0.150 C 
ATOM     15  C   UNL     1      36.012 -24.148 -15.004  0.00  0.00    +0.039 C 
ATOM     16  H   UNL     1      31.113 -25.394 -16.114  0.00  0.00    -0.077 HD
ENDROOT
BRANCH  14  17
ATOM     17  O   UNL     1      36.644 -25.007 -12.865  0.00  0.00    -0.410 OA
BRANCH  17  20
ATOM     18  O   UNL     1      37.396 -26.970 -13.856  0.00  0.00    -0.226 OA
ATOM     19  N   UNL     1      38.821 -25.163 -13.567  0.00  0.00    -0.269 N 
ATOM     20  C   UNL     1      37.615 -25.825 -13.472  0.00  0.00    +0.406 C 
ATOM     21  C   UNL     1      40.009 -25.747 -14.146  0.00  0.00    +0.114 C 
ATOM     22  H   UNL     1      38.877 -24.243 -13.221  0.00  0.00    +0.153 HD
ENDBRANCH  17  20
ENDBRANCH  14  17
TORSDOF 2
ENDMDL
MODEL 8
REMARK VINA RESULT:      -7.2     11.548     13.517
REMARK  Name = 5983
REMARK  2 active torsions:
REMARK  status: ('A' for Active; 'I' for Inactive)
REMARK    1  A    between atoms: C_14  and  O_17
REMARK    2  A    between atoms: O_17  and  C_20
REMARK                            x       y       z     vdW  Elec       q    Type
REMARK                         _______ _______ _______ _____ _____    ______ ____
ROOT
ATOM      1  N   UNL     1      36.514 -26.010 -13.500  0.00  0.00    +0.398 N 
ATOM      2  N   UNL     1      35.189 -23.903 -12.769  0.00  0.00    -0.327 N 
ATOM      3  C   UNL     1      35.866 -24.309 -15.058  0.00  0.00    +0.017 C 
ATOM      4  C   UNL     1      36.258 -24.550 -13.549  0.00  0.00    +0.023 C 
ATOM      5  C   UNL     1      36.080 -25.660 -15.749  0.00  0.00    -0.019 C 
ATOM      6  C   UNL     1      34.421 -23.905 -14.943  0.00  0.00    -0.007 C 
ATOM      7  C   UNL     1      37.024 -26.393 -14.814  0.00  0.00    -0.075 C 
ATOM      8  C   UNL     1      34.103 -23.684 -13.597  0.00  0.00    +0.042 C 
ATOM      9  C   UNL     1      36.706 -23.197 -15.694  0.00  0.00    +0.004 C 
ATOM     10  C   UNL     1      37.422 -26.394 -12.429  0.00  0.00    -0.098 C 
ATOM     11  C   UNL     1      33.486 -23.734 -15.954  0.00  0.00    +0.035 C 
ATOM     12  C   UNL     1      35.139 -23.915 -11.329  0.00  0.00    +0.110 C 
ATOM     13  C   UNL     1      32.821 -23.281 -13.252  0.00  0.00    +0.017 C 
ATOM     14  C   UNL     1      32.197 -23.335 -15.603  0.00  0.00    +0.150 C 
ATOM     15  C   UNL     1      31.868 -23.109 -14.260  0.00  0.00    +0.039 C 
ATOM     16  H   UNL     1      35.648 -26.506 -13.285  0.00  0.00    -0.077 HD
ENDROOT
BRANCH  14  17
ATOM     17  O   UNL     1      31.255 -23.158 -16.570  0.00  0.00    -0.410 OA
BRANCH  17  20
ATOM     18  O   UNL     1      29.684 -24.757 -15.953  0.00  0.00    -0.226 OA
ATOM     19  N   UNL     1      29.073 -22.537 -16.235  0.00  0.00    -0.269 N 
ATOM     20  C   UNL     1      29.961 -23.592 -16.224  0.00  0.00    +0.406 C 
ATOM     21  C   UNL     1      27.669 -22.672 -15.921  0.00  0.00    +0.114 C 
ATOM     22  H   UNL     1      29.413 -21.644 -16.470  0.00  0.00    +0.153 HD
ENDBRANCH  17  20
ENDBRANCH  14  17
TORSDOF 2
ENDMDL
MODEL 9
REMARK VINA RESULT:      -7.2      3.350      6.746
REMARK  Name = 5983
REMARK  2 active torsions:
REMARK  status: ('A' for Active; 'I' for Inactive)
REMARK    1  A    between atoms: C_14  and  O_17
REMARK    2  A    between atoms: O_17  and  C_20
REMARK                            x       y       z     vdW  Elec       q    Type
REMARK                         _______ _______ _______ _____ _____    ______ ____
ROOT
ATOM      1  N   UNL     1      35.011 -16.158 -22.296  0.00  0.00    +0.398 N 
ATOM      2  N   UNL     1      33.093 -14.905 -23.512  0.00  0.00    -0.327 N 
ATOM      3  C   UNL     1      33.039 -15.424 -21.147  0.00  0.00    +0.017 C 
ATOM      4  C   UNL     1      33.570 -15.914 -22.551  0.00  0.00    +0.023 C 
ATOM      5  C   UNL     1      34.228 -15.579 -20.193  0.00  0.00    -0.019 C 
ATOM      6  C   UNL     1      32.671 -13.994 -21.437  0.00  0.00    -0.007 C 
ATOM      7  C   UNL     1      35.126 -16.576 -20.900  0.00  0.00    -0.075 C 
ATOM      8  C   UNL     1      32.719 -13.769 -22.818  0.00  0.00    +0.042 C 
ATOM      9  C   UNL     1      31.821 -16.231 -20.687  0.00  0.00    +0.004 C 
ATOM     10  C   UNL     1      35.594 -17.133 -23.207  0.00  0.00    -0.098 C 
ATOM     11  C   UNL     1      32.308 -12.996 -20.543  0.00  0.00    +0.035 C 
ATOM     12  C   UNL     1      33.386 -14.952 -24.921  0.00  0.00    +0.110 C 
ATOM     13  C   UNL     1      32.396 -12.517 -23.321  0.00  0.00    +0.017 C 
ATOM     14  C   UNL     1      31.990 -11.738 -21.052  0.00  0.00    +0.150 C 
ATOM     15  C   UNL     1      32.034 -11.500 -22.432  0.00  0.00    +0.039 C 
ATOM     16  H   UNL     1      35.542 -15.304 -22.467  0.00  0.00    -0.077 HD
ENDROOT
BRANCH  14  17
ATOM     17  O   UNL     1      31.631 -10.734 -20.204  0.00  0.00    -0.410 OA
BRANCH  17  20
ATOM     18  O   UNL     1      31.412  -9.061 -21.803  0.00  0.00    -0.226 OA
ATOM     19  N   UNL     1      32.529  -8.661 -19.810  0.00  0.00    -0.269 N 
ATOM     20  C   UNL     1      31.824  -9.434 -20.708  0.00  0.00    +0.406 C 
ATOM     21  C   UNL     1      32.881  -7.280 -20.048  0.00  0.00    +0.114 C 
ATOM     22  H   UNL     1      32.809  -9.073 -18.960  0.00  0.00    +0.153 HD
ENDBRANCH  17  20
ENDBRANCH  14  17
TORSDOF 2
ENDMDL
