MODEL 1
REMARK VINA RESULT:      -8.4      0.000      0.000
REMARK  Name = 91562
REMARK  8 active torsions:
REMARK  status: ('A' for Active; 'I' for Inactive)
REMARK    1  A    between atoms: CA_5  and  N_11
REMARK    2  A    between atoms: CA_7  and  C_18
REMARK    3  A    between atoms: C_8  and  C_21
REMARK    4  A    between atoms: C_12  and  C_14
REMARK    5  A    between atoms: C_14  and  C_16
REMARK    6  A    between atoms: C_18  and  O_19
REMARK    7  A    between atoms: C_21  and  O_22
REMARK    8  A    between atoms: O_22  and  C_24
REMARK                            x       y       z     vdW  Elec       q    Type
REMARK                         _______ _______ _______ _____ _____    ______ ____
ROOT
ATOM      1  S   UNL     1      34.710 -18.742 -24.221  0.00  0.00    -0.114 S 
ATOM      2  O   UNL     1      34.824 -16.046 -20.435  0.00  0.00    -0.273 OA
ATOM      3  N   UNL     1      34.841 -16.542 -22.741  0.00  0.00    -0.242 N 
ATOM      4  C   UNL     1      35.699 -17.611 -23.215  0.00  0.00    +0.155 C 
ATOM      5  CA  UNL     1      35.880 -17.995 -21.730  0.00  0.00    +0.178 C 
ATOM      6  C   UNL     1      35.123 -16.671 -21.425  0.00  0.00    +0.251 C 
ATOM      7  CA  UNL     1      34.072 -15.774 -23.555  0.00  0.00    +0.127 C 
ATOM      8  C   UNL     1      33.821 -16.133 -24.836  0.00  0.00    +0.030 C 
ATOM      9  C   UNL     1      34.282 -17.456 -25.443  0.00  0.00    +0.086 C 
ENDROOT
BRANCH   5  11
ATOM     10  O   UNL     1      36.925 -19.943 -19.869  0.00  0.00    -0.274 OA
ATOM     11  N   UNL     1      35.199 -19.187 -21.225  0.00  0.00    -0.295 N 
ATOM     12  C   UNL     1      35.790 -20.074 -20.324  0.00  0.00    +0.238 C 
ATOM     13  H   UNL     1      34.284 -19.372 -21.536  0.00  0.00    +0.150 HD
BRANCH  12  14
ATOM     14  C   UNL     1      34.868 -21.222 -19.966  0.00  0.00    +0.190 C 
BRANCH  14  16
ATOM     15  N   UNL     1      32.357 -20.472 -19.786  0.00  0.00    -0.195 NA
ATOM     16  C   UNL     1      33.467 -20.802 -19.863  0.00  0.00    +0.083 C 
ENDBRANCH  14  16
ENDBRANCH  12  14
ENDBRANCH   5  11
BRANCH   7  18
ATOM     17  OXT UNL     1      32.342 -14.514 -22.520  0.00  0.00    -0.244 OA
ATOM     18  C   UNL     1      33.470 -14.569 -22.962  0.00  0.00    +0.352 C 
BRANCH  18  19
ATOM     19  O   UNL     1      34.365 -13.561 -22.996  0.00  0.00    -0.476 OA
ATOM     20  H   UNL     1      34.503 -13.031 -22.236  0.00  0.00    +0.295 HD
ENDBRANCH  18  19
ENDBRANCH   7  18
BRANCH   8  21
ATOM     21  C   UNL     1      33.046 -15.295 -25.825  0.00  0.00    +0.233 C 
BRANCH  21  22
ATOM     22  O   UNL     1      33.926 -14.396 -26.466  0.00  0.00    -0.444 OA
BRANCH  22  24
ATOM     23  O   UNL     1      32.603 -13.052 -27.801  0.00  0.00    -0.250 OA
ATOM     24  C   UNL     1      33.382 -13.203 -26.870  0.00  0.00    +0.318 C 
ATOM     25  C   UNL     1      33.879 -12.087 -26.001  0.00  0.00    +0.121 C 
ENDBRANCH  22  24
ENDBRANCH  21  22
ENDBRANCH   8  21
TORSDOF 8
ENDMDL
MODEL 2
REMARK VINA RESULT:      -8.2      6.043      9.410
REMARK  Name = 91562
REMARK  8 active torsions:
REMARK  status: ('A' for Active; 'I' for Inactive)
REMARK    1  A    between atoms: CA_5  and  N_11
REMARK    2  A    between atoms: CA_7  and  C_18
REMARK    3  A    between atoms: C_8  and  C_21
REMARK    4  A    between atoms: C_12  and  C_14
REMARK    5  A    between atoms: C_14  and  C_16
REMARK    6  A    between atoms: C_18  and  O_19
REMARK    7  A    between atoms: C_21  and  O_22
REMARK    8  A    between atoms: O_22  and  C_24
REMARK                            x       y       z     vdW  Elec       q    Type
REMARK                         _______ _______ _______ _____ _____    ______ ____
ROOT
ATOM      1  S   UNL     1      37.407 -22.633 -16.056  0.00  0.00    -0.114 S 
ATOM      2  O   UNL     1      33.146 -24.292 -15.213  0.00  0.00    -0.273 OA
ATOM      3  N   UNL     1      34.767 -22.886 -16.191  0.00  0.00    -0.242 N 
ATOM      4  C   UNL     1      35.782 -22.298 -15.337  0.00  0.00    +0.155 C 
ATOM      5  CA  UNL     1      35.298 -23.279 -14.247  0.00  0.00    +0.178 C 
ATOM      6  C   UNL     1      34.143 -23.610 -15.236  0.00  0.00    +0.251 C 
ATOM      7  CA  UNL     1      34.667 -22.641 -17.522  0.00  0.00    +0.127 C 
ATOM      8  C   UNL     1      35.677 -22.062 -18.214  0.00  0.00    +0.030 C 
ATOM      9  C   UNL     1      37.034 -21.730 -17.597  0.00  0.00    +0.086 C 
ENDROOT
BRANCH   5  11
ATOM     10  O   UNL     1      35.757 -24.413 -11.630  0.00  0.00    -0.274 OA
ATOM     11  N   UNL     1      36.136 -24.432 -13.920  0.00  0.00    -0.295 N 
ATOM     12  C   UNL     1      36.297 -24.908 -12.618  0.00  0.00    +0.238 C 
ATOM     13  H   UNL     1      36.608 -24.893 -14.651  0.00  0.00    +0.150 HD
BRANCH  12  14
ATOM     14  C   UNL     1      37.216 -26.111 -12.559  0.00  0.00    +0.190 C 
BRANCH  14  16
ATOM     15  N   UNL     1      37.917 -26.949 -14.948  0.00  0.00    -0.195 NA
ATOM     16  C   UNL     1      37.606 -26.581 -13.893  0.00  0.00    +0.083 C 
ENDBRANCH  14  16
ENDBRANCH  12  14
ENDBRANCH   5  11
BRANCH   7  18
ATOM     17  OXT UNL     1      32.380 -22.499 -18.156  0.00  0.00    -0.244 OA
ATOM     18  C   UNL     1      33.437 -23.093 -18.193  0.00  0.00    +0.352 C 
BRANCH  18  19
ATOM     19  O   UNL     1      33.681 -24.252 -18.836  0.00  0.00    -0.476 OA
ATOM     20  H   UNL     1      34.450 -24.748 -18.634  0.00  0.00    +0.295 HD
ENDBRANCH  18  19
ENDBRANCH   7  18
BRANCH   8  21
ATOM     21  C   UNL     1      35.610 -21.684 -19.674  0.00  0.00    +0.233 C 
BRANCH  21  22
ATOM     22  O   UNL     1      35.384 -20.295 -19.787  0.00  0.00    -0.444 OA
BRANCH  22  24
ATOM     23  O   UNL     1      35.006 -19.414 -21.889  0.00  0.00    -0.250 OA
ATOM     24  C   UNL     1      34.600 -19.893 -20.840  0.00  0.00    +0.318 C 
ATOM     25  C   UNL     1      33.153 -20.127 -20.526  0.00  0.00    +0.121 C 
ENDBRANCH  22  24
ENDBRANCH  21  22
ENDBRANCH   8  21
TORSDOF 8
ENDMDL
MODEL 3
REMARK VINA RESULT:      -8.2     10.272     11.793
REMARK  Name = 91562
REMARK  8 active torsions:
REMARK  status: ('A' for Active; 'I' for Inactive)
REMARK    1  A    between atoms: CA_5  and  N_11
REMARK    2  A    between atoms: CA_7  and  C_18
REMARK    3  A    between atoms: C_8  and  C_21
REMARK    4  A    between atoms: C_12  and  C_14
REMARK    5  A    between atoms: C_14  and  C_16
REMARK    6  A    between atoms: C_18  and  O_19
REMARK    7  A    between atoms: C_21  and  O_22
REMARK    8  A    between atoms: O_22  and  C_24
REMARK                            x       y       z     vdW  Elec       q    Type
REMARK                         _______ _______ _______ _____ _____    ______ ____
ROOT
ATOM      1  S   UNL     1      34.129 -23.597 -16.772  0.00  0.00    -0.114 S 
ATOM      2  O   UNL     1      34.375 -24.383 -12.197  0.00  0.00    -0.273 OA
ATOM      3  N   UNL     1      33.420 -23.621 -14.214  0.00  0.00    -0.242 N 
ATOM      4  C   UNL     1      34.247 -22.856 -15.128  0.00  0.00    +0.155 C 
ATOM      5  CA  UNL     1      35.447 -23.297 -14.261  0.00  0.00    +0.178 C 
ATOM      6  C   UNL     1      34.373 -23.862 -13.287  0.00  0.00    +0.251 C 
ATOM      7  CA  UNL     1      32.108 -23.891 -14.430  0.00  0.00    +0.127 C 
ATOM      8  C   UNL     1      31.541 -23.721 -15.649  0.00  0.00    +0.030 C 
ATOM      9  C   UNL     1      32.330 -23.316 -16.892  0.00  0.00    +0.086 C 
ENDROOT
BRANCH   5  11
ATOM     10  O   UNL     1      38.104 -23.920 -13.313  0.00  0.00    -0.274 OA
ATOM     11  N   UNL     1      36.354 -24.317 -14.787  0.00  0.00    -0.295 N 
ATOM     12  C   UNL     1      37.627 -24.544 -14.259  0.00  0.00    +0.238 C 
ATOM     13  H   UNL     1      36.055 -24.866 -15.546  0.00  0.00    +0.150 HD
BRANCH  12  14
ATOM     14  C   UNL     1      38.356 -25.653 -14.987  0.00  0.00    +0.190 C 
BRANCH  14  16
ATOM     15  N   UNL     1      40.964 -25.481 -14.715  0.00  0.00    -0.195 NA
ATOM     16  C   UNL     1      39.812 -25.556 -14.838  0.00  0.00    +0.083 C 
ENDBRANCH  14  16
ENDBRANCH  12  14
ENDBRANCH   5  11
BRANCH   7  18
ATOM     17  OXT UNL     1      30.610 -23.787 -12.587  0.00  0.00    -0.244 OA
ATOM     18  C   UNL     1      31.344 -24.441 -13.298  0.00  0.00    +0.352 C 
BRANCH  18  19
ATOM     19  O   UNL     1      31.597 -25.760 -13.189  0.00  0.00    -0.476 OA
ATOM     20  H   UNL     1      31.625 -26.298 -13.956  0.00  0.00    +0.295 HD
ENDBRANCH  18  19
ENDBRANCH   7  18
BRANCH   8  21
ATOM     21  C   UNL     1      30.075 -23.921 -15.948  0.00  0.00    +0.233 C 
BRANCH  21  22
ATOM     22  O   UNL     1      29.606 -22.843 -16.729  0.00  0.00    -0.444 OA
BRANCH  22  24
ATOM     23  O   UNL     1      27.704 -23.189 -17.993  0.00  0.00    -0.250 OA
ATOM     24  C   UNL     1      28.255 -22.812 -16.969  0.00  0.00    +0.318 C 
ATOM     25  C   UNL     1      27.532 -22.245 -15.785  0.00  0.00    +0.121 C 
ENDBRANCH  22  24
ENDBRANCH  21  22
ENDBRANCH   8  21
TORSDOF 8
ENDMDL
MODEL 4
REMARK VINA RESULT:      -7.9      3.115      7.043
REMARK  Name = 91562
REMARK  8 active torsions:
REMARK  status: ('A' for Active; 'I' for Inactive)
REMARK    1  A    between atoms: CA_5  and  N_11
REMARK    2  A    between atoms: CA_7  and  C_18
REMARK    3  A    between atoms: C_8  and  C_21
REMARK    4  A    between atoms: C_12  and  C_14
REMARK    5  A    between atoms: C_14  and  C_16
REMARK    6  A    between atoms: C_18  and  O_19
REMARK    7  A    between atoms: C_21  and  O_22
REMARK    8  A    between atoms: O_22  and  C_24
REMARK                            x       y       z     vdW  Elec       q    Type
REMARK                         _______ _______ _______ _____ _____    ______ ____
ROOT
ATOM      1  S   UNL     1      34.068 -15.113 -21.010  0.00  0.00    -0.114 S 
ATOM      2  O   UNL     1      33.151 -14.389 -25.509  0.00  0.00    -0.273 OA
ATOM      3  N   UNL     1      34.260 -15.322 -23.649  0.00  0.00    -0.242 N 
ATOM      4  C   UNL     1      34.675 -14.440 -22.574  0.00  0.00    +0.155 C 
ATOM      5  CA  UNL     1      33.795 -13.363 -23.246  0.00  0.00    +0.178 C 
ATOM      6  C   UNL     1      33.657 -14.384 -24.412  0.00  0.00    +0.251 C 
ATOM      7  CA  UNL     1      34.511 -16.656 -23.671  0.00  0.00    +0.127 C 
ATOM      8  C   UNL     1      34.909 -17.319 -22.559  0.00  0.00    +0.030 C 
ATOM      9  C   UNL     1      35.012 -16.665 -21.183  0.00  0.00    +0.086 C 
ENDROOT
BRANCH   5  11
ATOM     10  O   UNL     1      32.723 -10.711 -22.846  0.00  0.00    -0.274 OA
ATOM     11  N   UNL     1      32.519 -13.012 -22.622  0.00  0.00    -0.295 N 
ATOM     12  C   UNL     1      32.086 -11.693 -22.473  0.00  0.00    +0.238 C 
ATOM     13  H   UNL     1      31.941 -13.737 -22.292  0.00  0.00    +0.150 HD
BRANCH  12  14
ATOM     14  C   UNL     1      30.733 -11.611 -21.796  0.00  0.00    +0.190 C 
BRANCH  14  16
ATOM     15  N   UNL     1      30.891 -10.617 -19.369  0.00  0.00    -0.195 NA
ATOM     16  C   UNL     1      30.820 -11.058 -20.440  0.00  0.00    +0.083 C 
ENDBRANCH  14  16
ENDBRANCH  12  14
ENDBRANCH   5  11
BRANCH   7  18
ATOM     17  OXT UNL     1      33.561 -18.341 -25.053  0.00  0.00    -0.244 OA
ATOM     18  C   UNL     1      34.267 -17.360 -24.940  0.00  0.00    +0.352 C 
BRANCH  18  19
ATOM     19  O   UNL     1      34.947 -16.746 -25.928  0.00  0.00    -0.476 OA
ATOM     20  H   UNL     1      35.857 -16.931 -26.056  0.00  0.00    +0.295 HD
ENDBRANCH  18  19
ENDBRANCH   7  18
BRANCH   8  21
ATOM     21  C   UNL     1      35.285 -18.781 -22.521  0.00  0.00    +0.233 C 
BRANCH  21  22
ATOM     22  O   UNL     1      34.214 -19.525 -21.981  0.00  0.00    -0.444 OA
BRANCH  22  24
ATOM     23  O   UNL     1      35.482 -20.110 -20.141  0.00  0.00    -0.250 OA
ATOM     24  C   UNL     1      34.410 -20.044 -20.726  0.00  0.00    +0.318 C 
ATOM     25  C   UNL     1      33.110 -20.527 -20.156  0.00  0.00    +0.121 C 
ENDBRANCH  22  24
ENDBRANCH  21  22
ENDBRANCH   8  21
TORSDOF 8
ENDMDL
MODEL 5
REMARK VINA RESULT:      -7.7     10.293     12.318
REMARK  Name = 91562
REMARK  8 active torsions:
REMARK  status: ('A' for Active; 'I' for Inactive)
REMARK    1  A    between atoms: CA_5  and  N_11
REMARK    2  A    between atoms: CA_7  and  C_18
REMARK    3  A    between atoms: C_8  and  C_21
REMARK    4  A    between atoms: C_12  and  C_14
REMARK    5  A    between atoms: C_14  and  C_16
REMARK    6  A    between atoms: C_18  and  O_19
REMARK    7  A    between atoms: C_21  and  O_22
REMARK    8  A    between atoms: O_22  and  C_24
REMARK                            x       y       z     vdW  Elec       q    Type
REMARK                         _______ _______ _______ _____ _____    ______ ____
ROOT
ATOM      1  S   UNL     1      31.499 -22.948 -16.994  0.00  0.00    -0.114 S 
ATOM      2  O   UNL     1      30.511 -24.660 -12.786  0.00  0.00    -0.273 OA
ATOM      3  N   UNL     1      31.826 -24.242 -14.698  0.00  0.00    -0.242 N 
ATOM      4  C   UNL     1      31.231 -24.439 -16.007  0.00  0.00    +0.155 C 
ATOM      5  CA  UNL     1      29.877 -24.540 -15.271  0.00  0.00    +0.178 C 
ATOM      6  C   UNL     1      30.728 -24.539 -13.968  0.00  0.00    +0.251 C 
ATOM      7  CA  UNL     1      33.117 -23.868 -14.505  0.00  0.00    +0.127 C 
ATOM      8  C   UNL     1      33.868 -23.368 -15.515  0.00  0.00    +0.030 C 
ATOM      9  C   UNL     1      33.317 -23.086 -16.911  0.00  0.00    +0.086 C 
ENDROOT
BRANCH   5  11
ATOM     10  O   UNL     1      27.831 -24.130 -17.269  0.00  0.00    -0.274 OA
ATOM     11  N   UNL     1      28.945 -23.416 -15.361  0.00  0.00    -0.295 N 
ATOM     12  C   UNL     1      27.986 -23.306 -16.370  0.00  0.00    +0.238 C 
ATOM     13  H   UNL     1      28.996 -22.707 -14.681  0.00  0.00    +0.150 HD
BRANCH  12  14
ATOM     14  C   UNL     1      27.153 -22.049 -16.229  0.00  0.00    +0.190 C 
BRANCH  14  16
ATOM     15  N   UNL     1      25.967 -21.375 -18.475  0.00  0.00    -0.195 NA
ATOM     16  C   UNL     1      26.493 -21.673 -17.484  0.00  0.00    +0.083 C 
ENDBRANCH  14  16
ENDBRANCH  12  14
ENDBRANCH   5  11
BRANCH   7  18
ATOM     17  OXT UNL     1      34.465 -24.787 -12.775  0.00  0.00    -0.244 OA
ATOM     18  C   UNL     1      33.642 -23.970 -13.134  0.00  0.00    +0.352 C 
BRANCH  18  19
ATOM     19  O   UNL     1      33.065 -23.026 -12.364  0.00  0.00    -0.476 OA
ATOM     20  H   UNL     1      32.616 -22.306 -12.762  0.00  0.00    +0.295 HD
ENDBRANCH  18  19
ENDBRANCH   7  18
BRANCH   8  21
ATOM     21  C   UNL     1      35.330 -23.008 -15.399  0.00  0.00    +0.233 C 
BRANCH  21  22
ATOM     22  O   UNL     1      36.115 -24.115 -15.788  0.00  0.00    -0.444 OA
BRANCH  22  24
ATOM     23  O   UNL     1      38.011 -23.493 -14.625  0.00  0.00    -0.250 OA
ATOM     24  C   UNL     1      37.244 -24.348 -15.043  0.00  0.00    +0.318 C 
ATOM     25  C   UNL     1      37.411 -25.818 -14.803  0.00  0.00    +0.121 C 
ENDBRANCH  22  24
ENDBRANCH  21  22
ENDBRANCH   8  21
TORSDOF 8
ENDMDL
MODEL 6
REMARK VINA RESULT:      -7.6      4.414      7.675
REMARK  Name = 91562
REMARK  8 active torsions:
REMARK  status: ('A' for Active; 'I' for Inactive)
REMARK    1  A    between atoms: CA_5  and  N_11
REMARK    2  A    between atoms: CA_7  and  C_18
REMARK    3  A    between atoms: C_8  and  C_21
REMARK    4  A    between atoms: C_12  and  C_14
REMARK    5  A    between atoms: C_14  and  C_16
REMARK    6  A    between atoms: C_18  and  O_19
REMARK    7  A    between atoms: C_21  and  O_22
REMARK    8  A    between atoms: O_22  and  C_24
REMARK                            x       y       z     vdW  Elec       q    Type
REMARK                         _______ _______ _______ _____ _____    ______ ____
ROOT
ATOM      1  S   UNL     1      33.487 -11.810 -24.008  0.00  0.00    -0.114 S 
ATOM      2  O   UNL     1      31.858 -12.506 -19.710  0.00  0.00    -0.273 OA
ATOM      3  N   UNL     1      32.575 -13.102 -21.876  0.00  0.00    -0.242 N 
ATOM      4  C   UNL     1      32.079 -12.340 -23.006  0.00  0.00    +0.155 C 
ATOM      5  CA  UNL     1      31.554 -11.324 -21.969  0.00  0.00    +0.178 C 
ATOM      6  C   UNL     1      31.960 -12.388 -20.908  0.00  0.00    +0.251 C 
ATOM      7  CA  UNL     1      33.401 -14.173 -21.992  0.00  0.00    +0.127 C 
ATOM      8  C   UNL     1      34.060 -14.437 -23.146  0.00  0.00    +0.030 C 
ATOM      9  C   UNL     1      34.019 -13.518 -24.365  0.00  0.00    +0.086 C 
ENDROOT
BRANCH   5  11
ATOM     10  O   UNL     1      30.935  -8.825 -23.281  0.00  0.00    -0.274 OA
ATOM     11  N   UNL     1      32.257 -10.050 -21.817  0.00  0.00    -0.295 N 
ATOM     12  C   UNL     1      31.881  -8.891 -22.498  0.00  0.00    +0.238 C 
ATOM     13  H   UNL     1      33.030 -10.009 -21.209  0.00  0.00    +0.150 HD
BRANCH  12  14
ATOM     14  C   UNL     1      32.775  -7.716 -22.161  0.00  0.00    +0.190 C 
BRANCH  14  16
ATOM     15  N   UNL     1      32.795  -7.175 -19.590  0.00  0.00    -0.195 NA
ATOM     16  C   UNL     1      32.783  -7.414 -20.726  0.00  0.00    +0.083 C 
ENDBRANCH  14  16
ENDBRANCH  12  14
ENDBRANCH   5  11
BRANCH   7  18
ATOM     17  OXT UNL     1      34.650 -15.090 -20.189  0.00  0.00    -0.244 OA
ATOM     18  C   UNL     1      33.599 -14.997 -20.789  0.00  0.00    +0.352 C 
BRANCH  18  19
ATOM     19  O   UNL     1      32.443 -15.616 -20.478  0.00  0.00    -0.476 OA
ATOM     20  H   UNL     1      31.631 -15.153 -20.545  0.00  0.00    +0.295 HD
ENDBRANCH  18  19
ENDBRANCH   7  18
BRANCH   8  21
ATOM     21  C   UNL     1      34.929 -15.650 -23.379  0.00  0.00    +0.233 C 
BRANCH  21  22
ATOM     22  O   UNL     1      34.120 -16.733 -23.784  0.00  0.00    -0.444 OA
BRANCH  22  24
ATOM     23  O   UNL     1      34.796 -16.908 -25.985  0.00  0.00    -0.250 OA
ATOM     24  C   UNL     1      34.533 -17.412 -24.903  0.00  0.00    +0.318 C 
ATOM     25  C   UNL     1      34.620 -18.880 -24.615  0.00  0.00    +0.121 C 
ENDBRANCH  22  24
ENDBRANCH  21  22
ENDBRANCH   8  21
TORSDOF 8
ENDMDL
MODEL 7
REMARK VINA RESULT:      -7.2      3.460      7.573
REMARK  Name = 91562
REMARK  8 active torsions:
REMARK  status: ('A' for Active; 'I' for Inactive)
REMARK    1  A    between atoms: CA_5  and  N_11
REMARK    2  A    between atoms: CA_7  and  C_18
REMARK    3  A    between atoms: C_8  and  C_21
REMARK    4  A    between atoms: C_12  and  C_14
REMARK    5  A    between atoms: C_14  and  C_16
REMARK    6  A    between atoms: C_18  and  O_19
REMARK    7  A    between atoms: C_21  and  O_22
REMARK    8  A    between atoms: O_22  and  C_24
REMARK                            x       y       z     vdW  Elec       q    Type
REMARK                         _______ _______ _______ _____ _____    ______ ____
ROOT
ATOM      1  S   UNL     1      33.760 -13.454 -24.613  0.00  0.00    -0.114 S 
ATOM      2  O   UNL     1      32.197 -12.571 -20.324  0.00  0.00    -0.273 OA
ATOM      3  N   UNL     1      32.853 -13.901 -22.158  0.00  0.00    -0.242 N 
ATOM      4  C   UNL     1      32.357 -13.558 -23.477  0.00  0.00    +0.155 C 
ATOM      5  CA  UNL     1      31.883 -12.229 -22.849  0.00  0.00    +0.178 C 
ATOM      6  C   UNL     1      32.278 -12.877 -21.490  0.00  0.00    +0.251 C 
ATOM      7  CA  UNL     1      33.645 -14.975 -21.905  0.00  0.00    +0.127 C 
ATOM      8  C   UNL     1      34.273 -15.642 -22.903  0.00  0.00    +0.030 C 
ATOM      9  C   UNL     1      34.233 -15.199 -24.363  0.00  0.00    +0.086 C 
ENDROOT
BRANCH   5  11
ATOM     10  O   UNL     1      31.056  -9.512 -22.320  0.00  0.00    -0.274 OA
ATOM     11  N   UNL     1      32.626 -11.006 -23.152  0.00  0.00    -0.295 N 
ATOM     12  C   UNL     1      32.140  -9.731 -22.857  0.00  0.00    +0.238 C 
ATOM     13  H   UNL     1      33.506 -11.086 -23.584  0.00  0.00    +0.150 HD
BRANCH  12  14
ATOM     14  C   UNL     1      33.106  -8.642 -23.275  0.00  0.00    +0.190 C 
BRANCH  14  16
ATOM     15  N   UNL     1      35.310  -9.606 -24.332  0.00  0.00    -0.195 NA
ATOM     16  C   UNL     1      34.335  -9.183 -23.865  0.00  0.00    +0.083 C 
ENDBRANCH  14  16
ENDBRANCH  12  14
ENDBRANCH   5  11
BRANCH   7  18
ATOM     17  OXT UNL     1      34.926 -15.414 -19.951  0.00  0.00    -0.244 OA
ATOM     18  C   UNL     1      33.843 -15.340 -20.493  0.00  0.00    +0.352 C 
BRANCH  18  19
ATOM     19  O   UNL     1      32.645 -15.574 -19.921  0.00  0.00    -0.476 OA
ATOM     20  H   UNL     1      32.256 -14.927 -19.365  0.00  0.00    +0.295 HD
ENDBRANCH  18  19
ENDBRANCH   7  18
BRANCH   8  21
ATOM     21  C   UNL     1      35.100 -16.890 -22.711  0.00  0.00    +0.233 C 
BRANCH  21  22
ATOM     22  O   UNL     1      34.250 -17.970 -22.390  0.00  0.00    -0.444 OA
BRANCH  22  24
ATOM     23  O   UNL     1      35.663 -18.632 -20.686  0.00  0.00    -0.250 OA
ATOM     24  C   UNL     1      34.601 -18.709 -21.288  0.00  0.00    +0.318 C 
ATOM     25  C   UNL     1      33.488 -19.640 -20.912  0.00  0.00    +0.121 C 
ENDBRANCH  22  24
ENDBRANCH  21  22
ENDBRANCH   8  21
TORSDOF 8
ENDMDL
MODEL 8
REMARK VINA RESULT:      -7.1      5.488      8.585
REMARK  Name = 91562
REMARK  8 active torsions:
REMARK  status: ('A' for Active; 'I' for Inactive)
REMARK    1  A    between atoms: CA_5  and  N_11
REMARK    2  A    between atoms: CA_7  and  C_18
REMARK    3  A    between atoms: C_8  and  C_21
REMARK    4  A    between atoms: C_12  and  C_14
REMARK    5  A    between atoms: C_14  and  C_16
REMARK    6  A    between atoms: C_18  and  O_19
REMARK    7  A    between atoms: C_21  and  O_22
REMARK    8  A    between atoms: O_22  and  C_24
REMARK                            x       y       z     vdW  Elec       q    Type
REMARK                         _______ _______ _______ _____ _____    ______ ____
ROOT
ATOM      1  S   UNL     1      32.955 -22.393 -18.406  0.00  0.00    -0.114 S 
ATOM      2  O   UNL     1      35.391 -23.089 -14.508  0.00  0.00    -0.273 OA
ATOM      3  N   UNL     1      35.030 -22.903 -16.831  0.00  0.00    -0.242 N 
ATOM      4  C   UNL     1      33.887 -23.581 -17.413  0.00  0.00    +0.155 C 
ATOM      5  CA  UNL     1      33.399 -23.798 -15.964  0.00  0.00    +0.178 C 
ATOM      6  C   UNL     1      34.791 -23.243 -15.545  0.00  0.00    +0.251 C 
ATOM      7  CA  UNL     1      35.937 -22.197 -17.554  0.00  0.00    +0.127 C 
ATOM      8  C   UNL     1      35.688 -21.824 -18.832  0.00  0.00    +0.030 C 
ATOM      9  C   UNL     1      34.353 -22.069 -19.532  0.00  0.00    +0.086 C 
ENDROOT
BRANCH   5  11
ATOM     10  O   UNL     1      30.634 -24.609 -15.754  0.00  0.00    -0.274 OA
ATOM     11  N   UNL     1      32.278 -22.994 -15.474  0.00  0.00    -0.295 N 
ATOM     12  C   UNL     1      30.970 -23.477 -15.411  0.00  0.00    +0.238 C 
ATOM     13  H   UNL     1      32.455 -22.073 -15.178  0.00  0.00    +0.150 HD
BRANCH  12  14
ATOM     14  C   UNL     1      30.006 -22.442 -14.868  0.00  0.00    +0.190 C 
BRANCH  14  16
ATOM     15  N   UNL     1      27.988 -22.007 -16.492  0.00  0.00    -0.195 NA
ATOM     16  C   UNL     1      28.878 -22.201 -15.774  0.00  0.00    +0.083 C 
ENDBRANCH  14  16
ENDBRANCH  12  14
ENDBRANCH   5  11
BRANCH   7  18
ATOM     17  OXT UNL     1      37.923 -22.568 -16.301  0.00  0.00    -0.244 OA
ATOM     18  C   UNL     1      37.174 -21.797 -16.864  0.00  0.00    +0.352 C 
BRANCH  18  19
ATOM     19  O   UNL     1      37.327 -20.462 -16.960  0.00  0.00    -0.476 OA
ATOM     20  H   UNL     1      37.748 -19.987 -16.271  0.00  0.00    +0.295 HD
ENDBRANCH  18  19
ENDBRANCH   7  18
BRANCH   8  21
ATOM     21  C   UNL     1      36.675 -21.111 -19.725  0.00  0.00    +0.233 C 
BRANCH  21  22
ATOM     22  O   UNL     1      36.351 -19.739 -19.777  0.00  0.00    -0.444 OA
BRANCH  22  24
ATOM     23  O   UNL     1      37.378 -18.849 -21.646  0.00  0.00    -0.250 OA
ATOM     24  C   UNL     1      36.373 -19.159 -21.021  0.00  0.00    +0.318 C 
ATOM     25  C   UNL     1      34.975 -18.954 -21.522  0.00  0.00    +0.121 C 
ENDBRANCH  22  24
ENDBRANCH  21  22
ENDBRANCH   8  21
TORSDOF 8
ENDMDL
MODEL 9
REMARK VINA RESULT:      -7.1     10.374     12.891
REMARK  Name = 91562
REMARK  8 active torsions:
REMARK  status: ('A' for Active; 'I' for Inactive)
REMARK    1  A    between atoms: CA_5  and  N_11
REMARK    2  A    between atoms: CA_7  and  C_18
REMARK    3  A    between atoms: C_8  and  C_21
REMARK    4  A    between atoms: C_12  and  C_14
REMARK    5  A    between atoms: C_14  and  C_16
REMARK    6  A    between atoms: C_18  and  O_19
REMARK    7  A    between atoms: C_21  and  O_22
REMARK    8  A    between atoms: O_22  and  C_24
REMARK                            x       y       z     vdW  Elec       q    Type
REMARK                         _______ _______ _______ _____ _____    ______ ____
ROOT
ATOM      1  S   UNL     1      32.560 -24.097 -13.172  0.00  0.00    -0.114 S 
ATOM      2  O   UNL     1      34.180 -23.881 -17.524  0.00  0.00    -0.273 OA
ATOM      3  N   UNL     1      34.288 -23.831 -15.169  0.00  0.00    -0.242 N 
ATOM      4  C   UNL     1      33.303 -23.050 -14.445  0.00  0.00    +0.155 C 
ATOM      5  CA  UNL     1      32.538 -22.950 -15.783  0.00  0.00    +0.178 C 
ATOM      6  C   UNL     1      33.804 -23.603 -16.410  0.00  0.00    +0.251 C 
ATOM      7  CA  UNL     1      35.304 -24.505 -14.572  0.00  0.00    +0.127 C 
ATOM      8  C   UNL     1      35.308 -24.744 -13.238  0.00  0.00    +0.030 C 
ATOM      9  C   UNL     1      34.147 -24.375 -12.317  0.00  0.00    +0.086 C 
ENDROOT
BRANCH   5  11
ATOM     10  O   UNL     1      29.872 -22.276 -14.898  0.00  0.00    -0.274 OA
ATOM     11  N   UNL     1      31.323 -23.746 -15.957  0.00  0.00    -0.295 N 
ATOM     12  C   UNL     1      30.074 -23.333 -15.491  0.00  0.00    +0.238 C 
ATOM     13  H   UNL     1      31.390 -24.610 -16.423  0.00  0.00    +0.150 HD
BRANCH  12  14
ATOM     14  C   UNL     1      28.987 -24.342 -15.803  0.00  0.00    +0.190 C 
BRANCH  14  16
ATOM     15  N   UNL     1      27.444 -23.576 -17.785  0.00  0.00    -0.195 NA
ATOM     16  C   UNL     1      28.128 -23.913 -16.911  0.00  0.00    +0.083 C 
ENDBRANCH  14  16
ENDBRANCH  12  14
ENDBRANCH   5  11
BRANCH   7  18
ATOM     17  OXT UNL     1      36.465 -26.181 -15.794  0.00  0.00    -0.244 OA
ATOM     18  C   UNL     1      36.367 -25.022 -15.448  0.00  0.00    +0.352 C 
BRANCH  18  19
ATOM     19  O   UNL     1      37.194 -24.014 -15.788  0.00  0.00    -0.476 OA
ATOM     20  H   UNL     1      37.429 -23.883 -16.686  0.00  0.00    +0.295 HD
ENDBRANCH  18  19
ENDBRANCH   7  18
BRANCH   8  21
ATOM     21  C   UNL     1      36.436 -25.412 -12.490  0.00  0.00    +0.233 C 
BRANCH  21  22
ATOM     22  O   UNL     1      37.012 -24.489 -11.591  0.00  0.00    -0.444 OA
BRANCH  22  24
ATOM     23  O   UNL     1      38.631 -22.841 -11.634  0.00  0.00    -0.250 OA
ATOM     24  C   UNL     1      38.209 -23.938 -11.974  0.00  0.00    +0.318 C 
ATOM     25  C   UNL     1      38.946 -24.878 -12.880  0.00  0.00    +0.121 C 
ENDBRANCH  22  24
ENDBRANCH  21  22
ENDBRANCH   8  21
TORSDOF 8
ENDMDL
