MODEL 1
REMARK VINA RESULT:      -9.1      0.000      0.000
REMARK  Name = 14205264
REMARK  11 active torsions:
REMARK  status: ('A' for Active; 'I' for Inactive)
REMARK    1  A    between atoms: C_1  and  C_4
REMARK    2  A    between atoms: C_2  and  C_16
REMARK    3  A    between atoms: C_4  and  C_6
REMARK    4  A    between atoms: C_6  and  O_7
REMARK    5  A    between atoms: C_6  and  C_9
REMARK    6  A    between atoms: C_9  and  C_10
REMARK    7  A    between atoms: C_17  and  C_18
REMARK    8  A    between atoms: C_18  and  N_19
REMARK    9  A    between atoms: C_18  and  C_23
REMARK   10  A    between atoms: C_23  and  C_26
REMARK   11  A    between atoms: C_26  and  O_27
REMARK                            x       y       z     vdW  Elec       q    Type
REMARK                         _______ _______ _______ _____ _____    ______ ____
ROOT
ATOM      1  C   UNL     1      33.807 -12.247 -24.043  0.00  0.00    -0.028 C 
ATOM      2  C   UNL     1      33.429 -13.434 -24.559  0.00  0.00    -0.026 C 
ATOM      3  C   UNL     1      33.022 -13.675 -25.987  0.00  0.00    +0.031 C 
ENDROOT
BRANCH   1   4
ATOM      4  C   UNL     1      33.847 -10.901 -24.737  0.00  0.00    +0.049 C 
ATOM      5  C   UNL     1      35.070 -10.837 -25.661  0.00  0.00    +0.007 C 
BRANCH   4   6
ATOM      6  C   UNL     1      33.832  -9.714 -23.742  0.00  0.00    +0.124 C 
BRANCH   6   7
ATOM      7  O   UNL     1      34.577  -8.635 -24.319  0.00  0.00    -0.353 OA
ATOM      8  C   UNL     1      34.748  -7.578 -23.391  0.00  0.00    +0.174 C 
ENDBRANCH   6   7
BRANCH   6   9
ATOM      9  C   UNL     1      32.435  -9.189 -23.374  0.00  0.00    +0.056 C 
BRANCH   9  10
ATOM     10  C   UNL     1      31.974  -9.701 -22.029  0.00  0.00    -0.020 C 
ATOM     11  C   UNL     1      32.286  -8.980 -20.888  0.00  0.00    -0.004 C 
ATOM     12  C   UNL     1      31.247 -10.877 -21.964  0.00  0.00    -0.004 C 
ATOM     13  C   UNL     1      31.860  -9.451 -19.646  0.00  0.00    -0.000 C 
ATOM     14  C   UNL     1      30.821 -11.349 -20.722  0.00  0.00    -0.000 C 
ATOM     15  C   UNL     1      31.127 -10.636 -19.564  0.00  0.00    -0.000 C 
ENDBRANCH   9  10
ENDBRANCH   6   9
ENDBRANCH   4   6
ENDBRANCH   1   4
BRANCH   2  16
ATOM     16  C   UNL     1      33.443 -14.649 -23.750  0.00  0.00    -0.011 C 
ATOM     17  C   UNL     1      34.464 -15.042 -22.971  0.00  0.00    -0.048 C 
BRANCH  17  18
ATOM     18  C   UNL     1      34.434 -16.295 -22.123  0.00  0.00    -0.032 C 
BRANCH  18  19
ATOM     19  N   UNL     1      34.771 -15.934 -20.740  0.00  0.00    +0.385 N 
ATOM     20  H   UNL     1      35.537 -15.261 -20.741  0.00  0.00    -0.089 HD
ATOM     21  H   UNL     1      35.054 -16.770 -20.229  0.00  0.00    -0.089 HD
ATOM     22  H   UNL     1      33.956 -15.519 -20.288  0.00  0.00    -0.089 HD
ENDBRANCH  18  19
BRANCH  18  23
ATOM     23  C   UNL     1      35.424 -17.354 -22.680  0.00  0.00    +0.083 C 
ATOM     24  C   UNL     1      35.045 -17.870 -24.071  0.00  0.00    +0.010 C 
BRANCH  23  26
ATOM     25  O   UNL     1      36.150 -18.625 -20.728  0.00  0.00    -0.250 OA
ATOM     26  C   UNL     1      35.492 -18.568 -21.759  0.00  0.00    +0.311 C 
BRANCH  26  27
ATOM     27  O   UNL     1      34.705 -19.589 -22.187  0.00  0.00    -0.480 OA
ATOM     28  H   UNL     1      34.161 -19.476 -22.942  0.00  0.00    +0.295 HD
ENDBRANCH  26  27
ENDBRANCH  23  26
ENDBRANCH  18  23
ENDBRANCH  17  18
ENDBRANCH   2  16
TORSDOF 11
ENDMDL
MODEL 2
REMARK VINA RESULT:      -8.7      2.482      8.520
REMARK  Name = 14205264
REMARK  11 active torsions:
REMARK  status: ('A' for Active; 'I' for Inactive)
REMARK    1  A    between atoms: C_1  and  C_4
REMARK    2  A    between atoms: C_2  and  C_16
REMARK    3  A    between atoms: C_4  and  C_6
REMARK    4  A    between atoms: C_6  and  O_7
REMARK    5  A    between atoms: C_6  and  C_9
REMARK    6  A    between atoms: C_9  and  C_10
REMARK    7  A    between atoms: C_17  and  C_18
REMARK    8  A    between atoms: C_18  and  N_19
REMARK    9  A    between atoms: C_18  and  C_23
REMARK   10  A    between atoms: C_23  and  C_26
REMARK   11  A    between atoms: C_26  and  O_27
REMARK                            x       y       z     vdW  Elec       q    Type
REMARK                         _______ _______ _______ _____ _____    ______ ____
ROOT
ATOM      1  C   UNL     1      34.221 -14.674 -22.784  0.00  0.00    -0.028 C 
ATOM      2  C   UNL     1      33.459 -13.565 -22.870  0.00  0.00    -0.026 C 
ATOM      3  C   UNL     1      32.225 -13.289 -22.056  0.00  0.00    +0.031 C 
ENDROOT
BRANCH   1   4
ATOM      4  C   UNL     1      33.986 -15.900 -21.925  0.00  0.00    +0.049 C 
ATOM      5  C   UNL     1      34.678 -15.715 -20.569  0.00  0.00    +0.007 C 
BRANCH   4   6
ATOM      6  C   UNL     1      34.442 -17.210 -22.614  0.00  0.00    +0.124 C 
BRANCH   6   7
ATOM      7  O   UNL     1      34.964 -16.880 -23.907  0.00  0.00    -0.353 OA
ATOM      8  C   UNL     1      34.680 -17.900 -24.850  0.00  0.00    +0.174 C 
ENDBRANCH   6   7
BRANCH   6   9
ATOM      9  C   UNL     1      35.514 -18.008 -21.855  0.00  0.00    +0.056 C 
BRANCH   9  10
ATOM     10  C   UNL     1      34.922 -19.175 -21.099  0.00  0.00    -0.020 C 
ATOM     11  C   UNL     1      33.545 -19.292 -21.006  0.00  0.00    -0.004 C 
ATOM     12  C   UNL     1      35.767 -20.104 -20.516  0.00  0.00    -0.004 C 
ATOM     13  C   UNL     1      32.997 -20.369 -20.309  0.00  0.00    -0.000 C 
ATOM     14  C   UNL     1      35.219 -21.181 -19.818  0.00  0.00    -0.000 C 
ATOM     15  C   UNL     1      33.835 -21.314 -19.715  0.00  0.00    -0.000 C 
ENDBRANCH   9  10
ENDBRANCH   6   9
ENDBRANCH   4   6
ENDBRANCH   1   4
BRANCH   2  16
ATOM     16  C   UNL     1      33.824 -12.465 -23.757  0.00  0.00    -0.011 C 
ATOM     17  C   UNL     1      33.495 -11.177 -23.562  0.00  0.00    -0.048 C 
BRANCH  17  18
ATOM     18  C   UNL     1      33.915 -10.057 -24.489  0.00  0.00    -0.032 C 
BRANCH  18  19
ATOM     19  N   UNL     1      35.368 -10.133 -24.689  0.00  0.00    +0.385 N 
ATOM     20  H   UNL     1      35.771 -10.784 -24.015  0.00  0.00    -0.089 HD
ATOM     21  H   UNL     1      35.778  -9.208 -24.556  0.00  0.00    -0.089 HD
ATOM     22  H   UNL     1      35.564 -10.459 -25.635  0.00  0.00    -0.089 HD
ENDBRANCH  18  19
BRANCH  18  23
ATOM     23  C   UNL     1      33.503  -8.680 -23.901  0.00  0.00    +0.083 C 
ATOM     24  C   UNL     1      34.678  -7.890 -23.319  0.00  0.00    +0.010 C 
BRANCH  23  26
ATOM     25  O   UNL     1      32.753  -8.847 -21.585  0.00  0.00    -0.250 OA
ATOM     26  C   UNL     1      32.484  -8.854 -22.779  0.00  0.00    +0.311 C 
BRANCH  26  27
ATOM     27  O   UNL     1      31.216  -8.984 -23.247  0.00  0.00    -0.480 OA
ATOM     28  H   UNL     1      30.547  -8.392 -22.963  0.00  0.00    +0.295 HD
ENDBRANCH  26  27
ENDBRANCH  23  26
ENDBRANCH  18  23
ENDBRANCH  17  18
ENDBRANCH   2  16
TORSDOF 11
ENDMDL
MODEL 3
REMARK VINA RESULT:      -8.7      2.521      8.748
REMARK  Name = 14205264
REMARK  11 active torsions:
REMARK  status: ('A' for Active; 'I' for Inactive)
REMARK    1  A    between atoms: C_1  and  C_4
REMARK    2  A    between atoms: C_2  and  C_16
REMARK    3  A    between atoms: C_4  and  C_6
REMARK    4  A    between atoms: C_6  and  O_7
REMARK    5  A    between atoms: C_6  and  C_9
REMARK    6  A    between atoms: C_9  and  C_10
REMARK    7  A    between atoms: C_17  and  C_18
REMARK    8  A    between atoms: C_18  and  N_19
REMARK    9  A    between atoms: C_18  and  C_23
REMARK   10  A    between atoms: C_23  and  C_26
REMARK   11  A    between atoms: C_26  and  O_27
REMARK                            x       y       z     vdW  Elec       q    Type
REMARK                         _______ _______ _______ _____ _____    ______ ____
ROOT
ATOM      1  C   UNL     1      33.961 -14.790 -22.720  0.00  0.00    -0.028 C 
ATOM      2  C   UNL     1      33.234 -13.662 -22.584  0.00  0.00    -0.026 C 
ATOM      3  C   UNL     1      32.264 -13.379 -21.471  0.00  0.00    +0.031 C 
ENDROOT
BRANCH   1   4
ATOM      4  C   UNL     1      33.924 -16.031 -21.851  0.00  0.00    +0.049 C 
ATOM      5  C   UNL     1      34.669 -15.758 -20.538  0.00  0.00    +0.007 C 
BRANCH   4   6
ATOM      6  C   UNL     1      34.490 -17.281 -22.569  0.00  0.00    +0.124 C 
BRANCH   6   7
ATOM      7  O   UNL     1      35.095 -16.859 -23.797  0.00  0.00    -0.353 OA
ATOM      8  C   UNL     1      34.745 -17.724 -24.864  0.00  0.00    +0.174 C 
ENDBRANCH   6   7
BRANCH   6   9
ATOM      9  C   UNL     1      35.535 -18.076 -21.769  0.00  0.00    +0.056 C 
BRANCH   9  10
ATOM     10  C   UNL     1      34.918 -19.244 -21.034  0.00  0.00    -0.020 C 
ATOM     11  C   UNL     1      35.745 -20.160 -20.404  0.00  0.00    -0.004 C 
ATOM     12  C   UNL     1      33.540 -19.373 -21.003  0.00  0.00    -0.004 C 
ATOM     13  C   UNL     1      35.176 -21.238 -19.725  0.00  0.00    -0.000 C 
ATOM     14  C   UNL     1      32.971 -20.451 -20.324  0.00  0.00    -0.000 C 
ATOM     15  C   UNL     1      33.789 -21.383 -19.685  0.00  0.00    -0.000 C 
ENDBRANCH   9  10
ENDBRANCH   6   9
ENDBRANCH   4   6
ENDBRANCH   1   4
BRANCH   2  16
ATOM     16  C   UNL     1      33.385 -12.550 -23.516  0.00  0.00    -0.011 C 
ATOM     17  C   UNL     1      33.407 -11.253 -23.169  0.00  0.00    -0.048 C 
BRANCH  17  18
ATOM     18  C   UNL     1      33.594 -10.125 -24.160  0.00  0.00    -0.032 C 
BRANCH  18  19
ATOM     19  N   UNL     1      34.985 -10.140 -24.633  0.00  0.00    +0.385 N 
ATOM     20  H   UNL     1      35.029 -10.594 -25.546  0.00  0.00    -0.089 HD
ATOM     21  H   UNL     1      35.565 -10.653 -23.969  0.00  0.00    -0.089 HD
ATOM     22  H   UNL     1      35.327  -9.182 -24.714  0.00  0.00    -0.089 HD
ENDBRANCH  18  19
BRANCH  18  23
ATOM     23  C   UNL     1      33.242  -8.761 -23.507  0.00  0.00    +0.083 C 
ATOM     24  C   UNL     1      31.888  -8.202 -23.954  0.00  0.00    +0.010 C 
BRANCH  23  26
ATOM     25  O   UNL     1      34.260  -6.986 -24.835  0.00  0.00    -0.250 OA
ATOM     26  C   UNL     1      34.292  -7.709 -23.849  0.00  0.00    +0.311 C 
BRANCH  26  27
ATOM     27  O   UNL     1      35.270  -7.630 -22.909  0.00  0.00    -0.480 OA
ATOM     28  H   UNL     1      36.147  -7.417 -23.162  0.00  0.00    +0.295 HD
ENDBRANCH  26  27
ENDBRANCH  23  26
ENDBRANCH  18  23
ENDBRANCH  17  18
ENDBRANCH   2  16
TORSDOF 11
ENDMDL
MODEL 4
REMARK VINA RESULT:      -8.6      3.149      8.537
REMARK  Name = 14205264
REMARK  11 active torsions:
REMARK  status: ('A' for Active; 'I' for Inactive)
REMARK    1  A    between atoms: C_1  and  C_4
REMARK    2  A    between atoms: C_2  and  C_16
REMARK    3  A    between atoms: C_4  and  C_6
REMARK    4  A    between atoms: C_6  and  O_7
REMARK    5  A    between atoms: C_6  and  C_9
REMARK    6  A    between atoms: C_9  and  C_10
REMARK    7  A    between atoms: C_17  and  C_18
REMARK    8  A    between atoms: C_18  and  N_19
REMARK    9  A    between atoms: C_18  and  C_23
REMARK   10  A    between atoms: C_23  and  C_26
REMARK   11  A    between atoms: C_26  and  O_27
REMARK                            x       y       z     vdW  Elec       q    Type
REMARK                         _______ _______ _______ _____ _____    ______ ____
ROOT
ATOM      1  C   UNL     1      32.390 -12.252 -22.531  0.00  0.00    -0.028 C 
ATOM      2  C   UNL     1      31.605 -11.292 -22.001  0.00  0.00    -0.026 C 
ATOM      3  C   UNL     1      30.562 -11.507 -20.939  0.00  0.00    +0.031 C 
ENDROOT
BRANCH   1   4
ATOM      4  C   UNL     1      32.365 -13.739 -22.244  0.00  0.00    +0.049 C 
ATOM      5  C   UNL     1      32.855 -13.993 -20.813  0.00  0.00    +0.007 C 
BRANCH   4   6
ATOM      6  C   UNL     1      33.181 -14.561 -23.272  0.00  0.00    +0.124 C 
BRANCH   6   7
ATOM      7  O   UNL     1      33.382 -13.751 -24.437  0.00  0.00    -0.353 OA
ATOM      8  C   UNL     1      32.966 -14.429 -25.610  0.00  0.00    +0.174 C 
ENDBRANCH   6   7
BRANCH   6   9
ATOM      9  C   UNL     1      34.555 -15.042 -22.780  0.00  0.00    +0.056 C 
BRANCH   9  10
ATOM     10  C   UNL     1      34.653 -16.550 -22.757  0.00  0.00    -0.020 C 
ATOM     11  C   UNL     1      34.804 -17.236 -23.951  0.00  0.00    -0.004 C 
ATOM     12  C   UNL     1      34.591 -17.215 -21.545  0.00  0.00    -0.004 C 
ATOM     13  C   UNL     1      34.895 -18.628 -23.931  0.00  0.00    -0.000 C 
ATOM     14  C   UNL     1      34.682 -18.607 -21.524  0.00  0.00    -0.000 C 
ATOM     15  C   UNL     1      34.834 -19.313 -22.717  0.00  0.00    -0.000 C 
ENDBRANCH   9  10
ENDBRANCH   6   9
ENDBRANCH   4   6
ENDBRANCH   1   4
BRANCH   2  16
ATOM     16  C   UNL     1      31.755  -9.893 -22.389  0.00  0.00    -0.011 C 
ATOM     17  C   UNL     1      32.785  -9.396 -23.091  0.00  0.00    -0.048 C 
BRANCH  17  18
ATOM     18  C   UNL     1      32.894  -7.943 -23.501  0.00  0.00    -0.032 C 
BRANCH  18  19
ATOM     19  N   UNL     1      34.093  -7.367 -22.877  0.00  0.00    +0.385 N 
ATOM     20  H   UNL     1      34.441  -6.601 -23.454  0.00  0.00    -0.089 HD
ATOM     21  H   UNL     1      34.813  -8.086 -22.795  0.00  0.00    -0.089 HD
ATOM     22  H   UNL     1      33.858  -7.014 -21.950  0.00  0.00    -0.089 HD
ENDBRANCH  18  19
BRANCH  18  23
ATOM     23  C   UNL     1      31.618  -7.162 -23.083  0.00  0.00    +0.083 C 
ATOM     24  C   UNL     1      31.115  -6.197 -24.159  0.00  0.00    +0.010 C 
BRANCH  23  26
ATOM     25  O   UNL     1      32.030  -6.798 -20.706  0.00  0.00    -0.250 OA
ATOM     26  C   UNL     1      31.877  -6.334 -21.828  0.00  0.00    +0.311 C 
BRANCH  26  27
ATOM     27  O   UNL     1      31.957  -5.004 -22.093  0.00  0.00    -0.480 OA
ATOM     28  H   UNL     1      31.287  -4.425 -21.789  0.00  0.00    +0.295 HD
ENDBRANCH  26  27
ENDBRANCH  23  26
ENDBRANCH  18  23
ENDBRANCH  17  18
ENDBRANCH   2  16
TORSDOF 11
ENDMDL
MODEL 5
REMARK VINA RESULT:      -8.5      3.227      8.565
REMARK  Name = 14205264
REMARK  11 active torsions:
REMARK  status: ('A' for Active; 'I' for Inactive)
REMARK    1  A    between atoms: C_1  and  C_4
REMARK    2  A    between atoms: C_2  and  C_16
REMARK    3  A    between atoms: C_4  and  C_6
REMARK    4  A    between atoms: C_6  and  O_7
REMARK    5  A    between atoms: C_6  and  C_9
REMARK    6  A    between atoms: C_9  and  C_10
REMARK    7  A    between atoms: C_17  and  C_18
REMARK    8  A    between atoms: C_18  and  N_19
REMARK    9  A    between atoms: C_18  and  C_23
REMARK   10  A    between atoms: C_23  and  C_26
REMARK   11  A    between atoms: C_26  and  O_27
REMARK                            x       y       z     vdW  Elec       q    Type
REMARK                         _______ _______ _______ _____ _____    ______ ____
ROOT
ATOM      1  C   UNL     1      32.641 -12.277 -22.699  0.00  0.00    -0.028 C 
ATOM      2  C   UNL     1      31.923 -11.226 -22.255  0.00  0.00    -0.026 C 
ATOM      3  C   UNL     1      30.761 -11.305 -21.302  0.00  0.00    +0.031 C 
ENDROOT
BRANCH   1   4
ATOM      4  C   UNL     1      32.416 -13.747 -22.411  0.00  0.00    +0.049 C 
ATOM      5  C   UNL     1      32.782 -14.045 -20.952  0.00  0.00    +0.007 C 
BRANCH   4   6
ATOM      6  C   UNL     1      33.187 -14.673 -23.384  0.00  0.00    +0.124 C 
BRANCH   6   7
ATOM      7  O   UNL     1      33.364 -13.976 -24.623  0.00  0.00    -0.353 OA
ATOM      8  C   UNL     1      33.055 -14.809 -25.727  0.00  0.00    +0.174 C 
ENDBRANCH   6   7
BRANCH   6   9
ATOM      9  C   UNL     1      34.570 -15.131 -22.892  0.00  0.00    +0.056 C 
BRANCH   9  10
ATOM     10  C   UNL     1      34.653 -16.634 -22.753  0.00  0.00    -0.020 C 
ATOM     11  C   UNL     1      34.904 -17.404 -23.876  0.00  0.00    -0.004 C 
ATOM     12  C   UNL     1      34.478 -17.210 -21.506  0.00  0.00    -0.004 C 
ATOM     13  C   UNL     1      34.982 -18.791 -23.749  0.00  0.00    -0.000 C 
ATOM     14  C   UNL     1      34.555 -18.597 -21.379  0.00  0.00    -0.000 C 
ATOM     15  C   UNL     1      34.807 -19.387 -22.500  0.00  0.00    -0.000 C 
ENDBRANCH   9  10
ENDBRANCH   6   9
ENDBRANCH   4   6
ENDBRANCH   1   4
BRANCH   2  16
ATOM     16  C   UNL     1      32.271  -9.860 -22.631  0.00  0.00    -0.011 C 
ATOM     17  C   UNL     1      32.526  -8.865 -21.766  0.00  0.00    -0.048 C 
BRANCH  17  18
ATOM     18  C   UNL     1      32.912  -7.465 -22.192  0.00  0.00    -0.032 C 
BRANCH  18  19
ATOM     19  N   UNL     1      31.883  -6.530 -21.719  0.00  0.00    +0.385 N 
ATOM     20  H   UNL     1      31.057  -7.052 -21.425  0.00  0.00    -0.089 HD
ATOM     21  H   UNL     1      31.631  -5.891 -22.473  0.00  0.00    -0.089 HD
ATOM     22  H   UNL     1      32.245  -5.997 -20.928  0.00  0.00    -0.089 HD
ENDBRANCH  18  19
BRANCH  18  23
ATOM     23  C   UNL     1      33.068  -7.389 -23.735  0.00  0.00    +0.083 C 
ATOM     24  C   UNL     1      34.484  -7.022 -24.187  0.00  0.00    +0.010 C 
BRANCH  23  26
ATOM     25  O   UNL     1      32.449  -5.195 -24.604  0.00  0.00    -0.250 OA
ATOM     26  C   UNL     1      32.128  -6.342 -24.323  0.00  0.00    +0.311 C 
BRANCH  26  27
ATOM     27  O   UNL     1      30.880  -6.831 -24.542  0.00  0.00    -0.480 OA
ATOM     28  H   UNL     1      30.205  -6.699 -23.905  0.00  0.00    +0.295 HD
ENDBRANCH  26  27
ENDBRANCH  23  26
ENDBRANCH  18  23
ENDBRANCH  17  18
ENDBRANCH   2  16
TORSDOF 11
ENDMDL
MODEL 6
REMARK VINA RESULT:      -8.5      2.868      8.589
REMARK  Name = 14205264
REMARK  11 active torsions:
REMARK  status: ('A' for Active; 'I' for Inactive)
REMARK    1  A    between atoms: C_1  and  C_4
REMARK    2  A    between atoms: C_2  and  C_16
REMARK    3  A    between atoms: C_4  and  C_6
REMARK    4  A    between atoms: C_6  and  O_7
REMARK    5  A    between atoms: C_6  and  C_9
REMARK    6  A    between atoms: C_9  and  C_10
REMARK    7  A    between atoms: C_17  and  C_18
REMARK    8  A    between atoms: C_18  and  N_19
REMARK    9  A    between atoms: C_18  and  C_23
REMARK   10  A    between atoms: C_23  and  C_26
REMARK   11  A    between atoms: C_26  and  O_27
REMARK                            x       y       z     vdW  Elec       q    Type
REMARK                         _______ _______ _______ _____ _____    ______ ____
ROOT
ATOM      1  C   UNL     1      33.678 -15.461 -22.852  0.00  0.00    -0.028 C 
ATOM      2  C   UNL     1      33.675 -15.152 -21.539  0.00  0.00    -0.026 C 
ATOM      3  C   UNL     1      34.680 -15.632 -20.529  0.00  0.00    +0.031 C 
ENDROOT
BRANCH   1   4
ATOM      4  C   UNL     1      34.622 -16.390 -23.587  0.00  0.00    +0.049 C 
ATOM      5  C   UNL     1      34.573 -16.086 -25.090  0.00  0.00    +0.007 C 
BRANCH   4   6
ATOM      6  C   UNL     1      34.329 -17.885 -23.307  0.00  0.00    +0.124 C 
BRANCH   6   7
ATOM      7  O   UNL     1      34.204 -18.562 -24.564  0.00  0.00    -0.353 OA
ATOM      8  C   UNL     1      35.006 -19.730 -24.599  0.00  0.00    +0.174 C 
ENDBRANCH   6   7
BRANCH   6   9
ATOM      9  C   UNL     1      35.396 -18.615 -22.475  0.00  0.00    +0.056 C 
BRANCH   9  10
ATOM     10  C   UNL     1      34.780 -19.521 -21.434  0.00  0.00    -0.020 C 
ATOM     11  C   UNL     1      35.599 -20.368 -20.705  0.00  0.00    -0.004 C 
ATOM     12  C   UNL     1      33.412 -19.485 -21.228  0.00  0.00    -0.004 C 
ATOM     13  C   UNL     1      35.032 -21.205 -19.744  0.00  0.00    -0.000 C 
ATOM     14  C   UNL     1      32.844 -20.322 -20.266  0.00  0.00    -0.000 C 
ATOM     15  C   UNL     1      33.654 -21.181 -19.524  0.00  0.00    -0.000 C 
ENDBRANCH   9  10
ENDBRANCH   6   9
ENDBRANCH   4   6
ENDBRANCH   1   4
BRANCH   2  16
ATOM     16  C   UNL     1      32.686 -14.235 -20.981  0.00  0.00    -0.011 C 
ATOM     17  C   UNL     1      32.383 -13.029 -21.488  0.00  0.00    -0.048 C 
BRANCH  17  18
ATOM     18  C   UNL     1      31.331 -12.115 -20.899  0.00  0.00    -0.032 C 
BRANCH  18  19
ATOM     19  N   UNL     1      30.542 -11.538 -21.995  0.00  0.00    +0.385 N 
ATOM     20  H   UNL     1      31.144 -10.957 -22.579  0.00  0.00    -0.089 HD
ATOM     21  H   UNL     1      29.789 -10.968 -21.609  0.00  0.00    -0.089 HD
ATOM     22  H   UNL     1      30.145 -12.289 -22.559  0.00  0.00    -0.089 HD
ENDBRANCH  18  19
BRANCH  18  23
ATOM     23  C   UNL     1      31.995 -11.001 -20.043  0.00  0.00    +0.083 C 
ATOM     24  C   UNL     1      31.235 -10.691 -18.751  0.00  0.00    +0.010 C 
BRANCH  23  26
ATOM     25  O   UNL     1      32.465  -9.608 -21.990  0.00  0.00    -0.250 OA
ATOM     26  C   UNL     1      32.087  -9.698 -20.829  0.00  0.00    +0.311 C 
BRANCH  26  27
ATOM     27  O   UNL     1      31.664  -8.627 -20.108  0.00  0.00    -0.480 OA
ATOM     28  H   UNL     1      30.996  -8.733 -19.459  0.00  0.00    +0.295 HD
ENDBRANCH  26  27
ENDBRANCH  23  26
ENDBRANCH  18  23
ENDBRANCH  17  18
ENDBRANCH   2  16
TORSDOF 11
ENDMDL
MODEL 7
REMARK VINA RESULT:      -8.4      7.739     13.083
REMARK  Name = 14205264
REMARK  11 active torsions:
REMARK  status: ('A' for Active; 'I' for Inactive)
REMARK    1  A    between atoms: C_1  and  C_4
REMARK    2  A    between atoms: C_2  and  C_16
REMARK    3  A    between atoms: C_4  and  C_6
REMARK    4  A    between atoms: C_6  and  O_7
REMARK    5  A    between atoms: C_6  and  C_9
REMARK    6  A    between atoms: C_9  and  C_10
REMARK    7  A    between atoms: C_17  and  C_18
REMARK    8  A    between atoms: C_18  and  N_19
REMARK    9  A    between atoms: C_18  and  C_23
REMARK   10  A    between atoms: C_23  and  C_26
REMARK   11  A    between atoms: C_26  and  O_27
REMARK                            x       y       z     vdW  Elec       q    Type
REMARK                         _______ _______ _______ _____ _____    ______ ____
ROOT
ATOM      1  C   UNL     1      35.368 -23.230 -16.056  0.00  0.00    -0.028 C 
ATOM      2  C   UNL     1      36.487 -22.607 -16.478  0.00  0.00    -0.026 C 
ATOM      3  C   UNL     1      37.851 -22.750 -15.860  0.00  0.00    +0.031 C 
ENDROOT
BRANCH   1   4
ATOM      4  C   UNL     1      35.206 -24.141 -14.857  0.00  0.00    +0.049 C 
ATOM      5  C   UNL     1      35.687 -25.552 -15.216  0.00  0.00    +0.007 C 
BRANCH   4   6
ATOM      6  C   UNL     1      33.756 -24.163 -14.314  0.00  0.00    +0.124 C 
BRANCH   6   7
ATOM      7  O   UNL     1      33.807 -24.026 -12.888  0.00  0.00    -0.353 OA
ATOM      8  C   UNL     1      35.130 -23.777 -12.445  0.00  0.00    +0.174 C 
ENDBRANCH   6   7
BRANCH   6   9
ATOM      9  C   UNL     1      32.835 -23.063 -14.866  0.00  0.00    +0.056 C 
BRANCH   9  10
ATOM     10  C   UNL     1      31.451 -23.586 -15.177  0.00  0.00    -0.020 C 
ATOM     11  C   UNL     1      31.012 -24.745 -14.559  0.00  0.00    -0.004 C 
ATOM     12  C   UNL     1      30.651 -22.895 -16.070  0.00  0.00    -0.004 C 
ATOM     13  C   UNL     1      29.735 -25.228 -14.843  0.00  0.00    -0.000 C 
ATOM     14  C   UNL     1      29.373 -23.378 -16.356  0.00  0.00    -0.000 C 
ATOM     15  C   UNL     1      28.915 -24.544 -15.742  0.00  0.00    -0.000 C 
ENDBRANCH   9  10
ENDBRANCH   6   9
ENDBRANCH   4   6
ENDBRANCH   1   4
BRANCH   2  16
ATOM     16  C   UNL     1      36.476 -21.752 -17.661  0.00  0.00    -0.011 C 
ATOM     17  C   UNL     1      35.722 -21.959 -18.752  0.00  0.00    -0.048 C 
BRANCH  17  18
ATOM     18  C   UNL     1      35.715 -21.035 -19.951  0.00  0.00    -0.032 C 
BRANCH  18  19
ATOM     19  N   UNL     1      36.879 -20.145 -19.865  0.00  0.00    +0.385 N 
ATOM     20  H   UNL     1      37.162 -19.863 -20.804  0.00  0.00    -0.089 HD
ATOM     21  H   UNL     1      37.650 -20.635 -19.411  0.00  0.00    -0.089 HD
ATOM     22  H   UNL     1      36.635 -19.317 -19.322  0.00  0.00    -0.089 HD
ENDBRANCH  18  19
BRANCH  18  23
ATOM     23  C   UNL     1      34.393 -20.222 -20.004  0.00  0.00    +0.083 C 
ATOM     24  C   UNL     1      33.150 -21.091 -20.209  0.00  0.00    +0.010 C 
BRANCH  23  26
ATOM     25  O   UNL     1      33.940 -19.399 -22.256  0.00  0.00    -0.250 OA
ATOM     26  C   UNL     1      34.424 -19.213 -21.147  0.00  0.00    +0.311 C 
BRANCH  26  27
ATOM     27  O   UNL     1      35.024 -18.047 -20.793  0.00  0.00    -0.480 OA
ATOM     28  H   UNL     1      35.786 -18.059 -20.248  0.00  0.00    +0.295 HD
ENDBRANCH  26  27
ENDBRANCH  23  26
ENDBRANCH  18  23
ENDBRANCH  17  18
ENDBRANCH   2  16
TORSDOF 11
ENDMDL
MODEL 8
REMARK VINA RESULT:      -8.3      3.657      6.610
REMARK  Name = 14205264
REMARK  11 active torsions:
REMARK  status: ('A' for Active; 'I' for Inactive)
REMARK    1  A    between atoms: C_1  and  C_4
REMARK    2  A    between atoms: C_2  and  C_16
REMARK    3  A    between atoms: C_4  and  C_6
REMARK    4  A    between atoms: C_6  and  O_7
REMARK    5  A    between atoms: C_6  and  C_9
REMARK    6  A    between atoms: C_9  and  C_10
REMARK    7  A    between atoms: C_17  and  C_18
REMARK    8  A    between atoms: C_18  and  N_19
REMARK    9  A    between atoms: C_18  and  C_23
REMARK   10  A    between atoms: C_23  and  C_26
REMARK   11  A    between atoms: C_26  and  O_27
REMARK                            x       y       z     vdW  Elec       q    Type
REMARK                         _______ _______ _______ _____ _____    ______ ____
ROOT
ATOM      1  C   UNL     1      34.349 -17.374 -21.302  0.00  0.00    -0.028 C 
ATOM      2  C   UNL     1      35.036 -18.534 -21.296  0.00  0.00    -0.026 C 
ATOM      3  C   UNL     1      36.469 -18.701 -21.721  0.00  0.00    +0.031 C 
ENDROOT
BRANCH   1   4
ATOM      4  C   UNL     1      34.818 -16.017 -21.785  0.00  0.00    +0.049 C 
ATOM      5  C   UNL     1      34.299 -14.928 -20.839  0.00  0.00    +0.007 C 
BRANCH   4   6
ATOM      6  C   UNL     1      34.408 -15.730 -23.251  0.00  0.00    +0.124 C 
BRANCH   6   7
ATOM      7  O   UNL     1      34.150 -16.981 -23.899  0.00  0.00    -0.353 OA
ATOM      8  C   UNL     1      34.917 -17.111 -25.084  0.00  0.00    +0.174 C 
ENDBRANCH   6   7
BRANCH   6   9
ATOM      9  C   UNL     1      33.167 -14.839 -23.419  0.00  0.00    +0.056 C 
BRANCH   9  10
ATOM     10  C   UNL     1      33.363 -13.788 -24.488  0.00  0.00    -0.020 C 
ATOM     11  C   UNL     1      33.807 -12.527 -24.123  0.00  0.00    -0.004 C 
ATOM     12  C   UNL     1      33.098 -14.107 -25.808  0.00  0.00    -0.004 C 
ATOM     13  C   UNL     1      33.990 -11.557 -25.109  0.00  0.00    -0.000 C 
ATOM     14  C   UNL     1      33.280 -13.137 -26.794  0.00  0.00    -0.000 C 
ATOM     15  C   UNL     1      33.726 -11.863 -26.445  0.00  0.00    -0.000 C 
ENDBRANCH   9  10
ENDBRANCH   6   9
ENDBRANCH   4   6
ENDBRANCH   1   4
BRANCH   2  16
ATOM     16  C   UNL     1      34.434 -19.766 -20.796  0.00  0.00    -0.011 C 
ATOM     17  C   UNL     1      35.058 -20.668 -20.021  0.00  0.00    -0.048 C 
BRANCH  17  18
ATOM     18  C   UNL     1      34.393 -21.922 -19.497  0.00  0.00    -0.032 C 
BRANCH  18  19
ATOM     19  N   UNL     1      32.950 -21.832 -19.754  0.00  0.00    +0.385 N 
ATOM     20  H   UNL     1      32.749 -20.974 -20.268  0.00  0.00    -0.089 HD
ATOM     21  H   UNL     1      32.446 -21.824 -18.868  0.00  0.00    -0.089 HD
ATOM     22  H   UNL     1      32.653 -22.636 -20.307  0.00  0.00    -0.089 HD
ENDBRANCH  18  19
BRANCH  18  23
ATOM     23  C   UNL     1      34.680 -22.097 -17.980  0.00  0.00    +0.083 C 
ATOM     24  C   UNL     1      36.171 -22.202 -17.650  0.00  0.00    +0.010 C 
BRANCH  23  26
ATOM     25  O   UNL     1      33.755 -23.569 -16.269  0.00  0.00    -0.250 OA
ATOM     26  C   UNL     1      34.015 -23.362 -17.446  0.00  0.00    +0.311 C 
BRANCH  26  27
ATOM     27  O   UNL     1      33.702 -24.239 -18.435  0.00  0.00    -0.480 OA
ATOM     28  H   UNL     1      34.364 -24.530 -19.031  0.00  0.00    +0.295 HD
ENDBRANCH  26  27
ENDBRANCH  23  26
ENDBRANCH  18  23
ENDBRANCH  17  18
ENDBRANCH   2  16
TORSDOF 11
ENDMDL
MODEL 9
REMARK VINA RESULT:      -8.3      2.777      8.239
REMARK  Name = 14205264
REMARK  11 active torsions:
REMARK  status: ('A' for Active; 'I' for Inactive)
REMARK    1  A    between atoms: C_1  and  C_4
REMARK    2  A    between atoms: C_2  and  C_16
REMARK    3  A    between atoms: C_4  and  C_6
REMARK    4  A    between atoms: C_6  and  O_7
REMARK    5  A    between atoms: C_6  and  C_9
REMARK    6  A    between atoms: C_9  and  C_10
REMARK    7  A    between atoms: C_17  and  C_18
REMARK    8  A    between atoms: C_18  and  N_19
REMARK    9  A    between atoms: C_18  and  C_23
REMARK   10  A    between atoms: C_23  and  C_26
REMARK   11  A    between atoms: C_26  and  O_27
REMARK                            x       y       z     vdW  Elec       q    Type
REMARK                         _______ _______ _______ _____ _____    ______ ____
ROOT
ATOM      1  C   UNL     1      33.465 -13.510 -23.240  0.00  0.00    -0.028 C 
ATOM      2  C   UNL     1      33.427 -12.229 -23.660  0.00  0.00    -0.026 C 
ATOM      3  C   UNL     1      34.150 -11.683 -24.861  0.00  0.00    +0.031 C 
ENDROOT
BRANCH   1   4
ATOM      4  C   UNL     1      34.273 -14.654 -23.816  0.00  0.00    +0.049 C 
ATOM      5  C   UNL     1      33.545 -15.231 -25.037  0.00  0.00    +0.007 C 
BRANCH   4   6
ATOM      6  C   UNL     1      34.578 -15.757 -22.772  0.00  0.00    +0.124 C 
BRANCH   6   7
ATOM      7  O   UNL     1      33.697 -15.576 -21.657  0.00  0.00    -0.353 OA
ATOM      8  C   UNL     1      34.421 -15.274 -20.476  0.00  0.00    +0.174 C 
ENDBRANCH   6   7
BRANCH   6   9
ATOM      9  C   UNL     1      34.417 -17.199 -23.279  0.00  0.00    +0.056 C 
BRANCH   9  10
ATOM     10  C   UNL     1      34.914 -18.212 -22.274  0.00  0.00    -0.020 C 
ATOM     11  C   UNL     1      36.257 -18.223 -21.932  0.00  0.00    -0.004 C 
ATOM     12  C   UNL     1      34.019 -19.106 -21.713  0.00  0.00    -0.004 C 
ATOM     13  C   UNL     1      36.717 -19.157 -21.003  0.00  0.00    -0.000 C 
ATOM     14  C   UNL     1      34.478 -20.041 -20.785  0.00  0.00    -0.000 C 
ATOM     15  C   UNL     1      35.827 -20.066 -20.430  0.00  0.00    -0.000 C 
ENDBRANCH   9  10
ENDBRANCH   6   9
ENDBRANCH   4   6
ENDBRANCH   1   4
BRANCH   2  16
ATOM     16  C   UNL     1      32.593 -11.238 -22.988  0.00  0.00    -0.011 C 
ATOM     17  C   UNL     1      32.568  -9.927 -23.280  0.00  0.00    -0.048 C 
BRANCH  17  18
ATOM     18  C   UNL     1      31.669  -8.931 -22.581  0.00  0.00    -0.032 C 
BRANCH  18  19
ATOM     19  N   UNL     1      30.815  -8.283 -23.584  0.00  0.00    +0.385 N 
ATOM     20  H   UNL     1      30.234  -8.986 -24.042  0.00  0.00    -0.089 HD
ATOM     21  H   UNL     1      31.399  -7.819 -24.280  0.00  0.00    -0.089 HD
ATOM     22  H   UNL     1      30.217  -7.594 -23.128  0.00  0.00    -0.089 HD
ENDBRANCH  18  19
BRANCH  18  23
ATOM     23  C   UNL     1      32.515  -7.883 -21.807  0.00  0.00    +0.083 C 
ATOM     24  C   UNL     1      33.940  -7.733 -22.346  0.00  0.00    +0.010 C 
BRANCH  23  26
ATOM     25  O   UNL     1      32.272  -9.332 -19.859  0.00  0.00    -0.250 OA
ATOM     26  C   UNL     1      32.634  -8.264 -20.335  0.00  0.00    +0.311 C 
BRANCH  26  27
ATOM     27  O   UNL     1      33.226  -7.292 -19.594  0.00  0.00    -0.480 OA
ATOM     28  H   UNL     1      34.130  -7.084 -19.730  0.00  0.00    +0.295 HD
ENDBRANCH  26  27
ENDBRANCH  23  26
ENDBRANCH  18  23
ENDBRANCH  17  18
ENDBRANCH   2  16
TORSDOF 11
ENDMDL
