MODEL 1
REMARK VINA RESULT:      -4.3      0.000      0.000
REMARK  Name = 15906
REMARK  7 active torsions:
REMARK  status: ('A' for Active; 'I' for Inactive)
REMARK    1  A    between atoms: S_1  and  S_2
REMARK    2  A    between atoms: S_1  and  C_7
REMARK    3  A    between atoms: S_2  and  C_3
REMARK    4  A    between atoms: C_3  and  C_4
REMARK    5  A    between atoms: C_4  and  O_5
REMARK    6  A    between atoms: C_7  and  C_8
REMARK    7  A    between atoms: C_8  and  O_9
REMARK                            x       y       z     vdW  Elec       q    Type
REMARK                         _______ _______ _______ _____ _____    ______ ____
ROOT
ATOM      1  S   UNL     1      38.162 -24.295 -12.182  0.00  0.00    -0.079 S 
ENDROOT
BRANCH   1   2
ATOM      2  S   UNL     1      37.362 -26.107 -12.725  0.00  0.00    -0.079 S 
BRANCH   2   3
ATOM      3  C   UNL     1      37.736 -26.160 -14.494  0.00  0.00    +0.100 C 
BRANCH   3   4
ATOM      4  C   UNL     1      36.501 -26.498 -15.313  0.00  0.00    +0.150 C 
BRANCH   4   5
ATOM      5  O   UNL     1      36.850 -27.364 -16.386  0.00  0.00    -0.381 OA
ATOM      6  H   UNL     1      37.791 -27.255 -16.597  0.00  0.00    +0.210 HD
ENDBRANCH   4   5
ENDBRANCH   3   4
ENDBRANCH   2   3
ENDBRANCH   1   2
BRANCH   1   7
ATOM      7  C   UNL     1      36.688 -23.415 -11.578  0.00  0.00    +0.100 C 
BRANCH   7   8
ATOM      8  C   UNL     1      35.562 -24.381 -11.250  0.00  0.00    +0.150 C 
BRANCH   8   9
ATOM      9  O   UNL     1      35.426 -24.511  -9.841  0.00  0.00    -0.381 OA
ATOM     10  H   UNL     1      35.115 -23.672  -9.467  0.00  0.00    +0.210 HD
ENDBRANCH   8   9
ENDBRANCH   7   8
ENDBRANCH   1   7
TORSDOF 7
ENDMDL
MODEL 2
REMARK VINA RESULT:      -4.3      1.786      5.216
REMARK  Name = 15906
REMARK  7 active torsions:
REMARK  status: ('A' for Active; 'I' for Inactive)
REMARK    1  A    between atoms: S_1  and  S_2
REMARK    2  A    between atoms: S_1  and  C_7
REMARK    3  A    between atoms: S_2  and  C_3
REMARK    4  A    between atoms: C_3  and  C_4
REMARK    5  A    between atoms: C_4  and  O_5
REMARK    6  A    between atoms: C_7  and  C_8
REMARK    7  A    between atoms: C_8  and  O_9
REMARK                            x       y       z     vdW  Elec       q    Type
REMARK                         _______ _______ _______ _____ _____    ______ ____
ROOT
ATOM      1  S   UNL     1      37.929 -25.672 -13.084  0.00  0.00    -0.079 S 
ENDROOT
BRANCH   1   2
ATOM      2  S   UNL     1      38.165 -23.945 -11.997  0.00  0.00    -0.079 S 
BRANCH   2   3
ATOM      3  C   UNL     1      36.450 -23.427 -11.751  0.00  0.00    +0.100 C 
BRANCH   3   4
ATOM      4  C   UNL     1      35.585 -24.580 -11.269  0.00  0.00    +0.150 C 
BRANCH   4   5
ATOM      5  O   UNL     1      35.439 -24.523  -9.856  0.00  0.00    -0.381 OA
ATOM      6  H   UNL     1      35.399 -25.424  -9.498  0.00  0.00    +0.210 HD
ENDBRANCH   4   5
ENDBRANCH   3   4
ENDBRANCH   2   3
ENDBRANCH   1   2
BRANCH   1   7
ATOM      7  C   UNL     1      38.739 -25.226 -14.651  0.00  0.00    +0.100 C 
BRANCH   7   8
ATOM      8  C   UNL     1      40.173 -25.729 -14.696  0.00  0.00    +0.150 C 
BRANCH   8   9
ATOM      9  O   UNL     1      40.549 -26.011 -16.038  0.00  0.00    -0.381 OA
ATOM     10  H   UNL     1      40.470 -26.964 -16.202  0.00  0.00    +0.210 HD
ENDBRANCH   8   9
ENDBRANCH   7   8
ENDBRANCH   1   7
TORSDOF 7
ENDMDL
MODEL 3
REMARK VINA RESULT:      -4.2      2.211      2.538
REMARK  Name = 15906
REMARK  7 active torsions:
REMARK  status: ('A' for Active; 'I' for Inactive)
REMARK    1  A    between atoms: S_1  and  S_2
REMARK    2  A    between atoms: S_1  and  C_7
REMARK    3  A    between atoms: S_2  and  C_3
REMARK    4  A    between atoms: C_3  and  C_4
REMARK    5  A    between atoms: C_4  and  O_5
REMARK    6  A    between atoms: C_7  and  C_8
REMARK    7  A    between atoms: C_8  and  O_9
REMARK                            x       y       z     vdW  Elec       q    Type
REMARK                         _______ _______ _______ _____ _____    ______ ____
ROOT
ATOM      1  S   UNL     1      35.854 -24.644 -13.948  0.00  0.00    -0.079 S 
ENDROOT
BRANCH   1   2
ATOM      2  S   UNL     1      37.609 -24.198 -14.918  0.00  0.00    -0.079 S 
BRANCH   2   3
ATOM      3  C   UNL     1      38.574 -25.703 -14.645  0.00  0.00    +0.100 C 
BRANCH   3   4
ATOM      4  C   UNL     1      40.063 -25.447 -14.812  0.00  0.00    +0.150 C 
BRANCH   4   5
ATOM      5  O   UNL     1      40.519 -26.004 -16.038  0.00  0.00    -0.381 OA
ATOM      6  H   UNL     1      40.759 -26.934 -15.902  0.00  0.00    +0.210 HD
ENDBRANCH   4   5
ENDBRANCH   3   4
ENDBRANCH   2   3
ENDBRANCH   1   2
BRANCH   1   7
ATOM      7  C   UNL     1      36.461 -25.117 -12.300  0.00  0.00    +0.100 C 
BRANCH   7   8
ATOM      8  C   UNL     1      35.840 -24.257 -11.212  0.00  0.00    +0.150 C 
BRANCH   8   9
ATOM      9  O   UNL     1      35.281 -25.081 -10.198  0.00  0.00    -0.381 OA
ATOM     10  H   UNL     1      34.520 -24.632  -9.798  0.00  0.00    +0.210 HD
ENDBRANCH   8   9
ENDBRANCH   7   8
ENDBRANCH   1   7
TORSDOF 7
ENDMDL
MODEL 4
REMARK VINA RESULT:      -4.2      1.080      4.740
REMARK  Name = 15906
REMARK  7 active torsions:
REMARK  status: ('A' for Active; 'I' for Inactive)
REMARK    1  A    between atoms: S_1  and  S_2
REMARK    2  A    between atoms: S_1  and  C_7
REMARK    3  A    between atoms: S_2  and  C_3
REMARK    4  A    between atoms: C_3  and  C_4
REMARK    5  A    between atoms: C_4  and  O_5
REMARK    6  A    between atoms: C_7  and  C_8
REMARK    7  A    between atoms: C_8  and  O_9
REMARK                            x       y       z     vdW  Elec       q    Type
REMARK                         _______ _______ _______ _____ _____    ______ ____
ROOT
ATOM      1  S   UNL     1      37.428 -24.217 -14.582  0.00  0.00    -0.079 S 
ENDROOT
BRANCH   1   2
ATOM      2  S   UNL     1      38.013 -24.870 -12.724  0.00  0.00    -0.079 S 
BRANCH   2   3
ATOM      3  C   UNL     1      36.956 -23.882 -11.638  0.00  0.00    +0.100 C 
BRANCH   3   4
ATOM      4  C   UNL     1      35.546 -24.447 -11.570  0.00  0.00    +0.150 C 
BRANCH   4   5
ATOM      5  O   UNL     1      35.322 -25.050 -10.303  0.00  0.00    -0.381 OA
ATOM      6  H   UNL     1      34.508 -24.694  -9.914  0.00  0.00    +0.210 HD
ENDBRANCH   4   5
ENDBRANCH   3   4
ENDBRANCH   2   3
ENDBRANCH   1   2
BRANCH   1   7
ATOM      7  C   UNL     1      36.228 -25.500 -15.055  0.00  0.00    +0.100 C 
BRANCH   7   8
ATOM      8  C   UNL     1      36.886 -26.867 -15.149  0.00  0.00    +0.150 C 
BRANCH   8   9
ATOM      9  O   UNL     1      36.749 -27.385 -16.465  0.00  0.00    -0.381 OA
ATOM     10  H   UNL     1      36.044 -28.051 -16.479  0.00  0.00    +0.210 HD
ENDBRANCH   8   9
ENDBRANCH   7   8
ENDBRANCH   1   7
TORSDOF 7
ENDMDL
MODEL 5
REMARK VINA RESULT:      -4.1      2.662      5.152
REMARK  Name = 15906
REMARK  7 active torsions:
REMARK  status: ('A' for Active; 'I' for Inactive)
REMARK    1  A    between atoms: S_1  and  S_2
REMARK    2  A    between atoms: S_1  and  C_7
REMARK    3  A    between atoms: S_2  and  C_3
REMARK    4  A    between atoms: C_3  and  C_4
REMARK    5  A    between atoms: C_4  and  O_5
REMARK    6  A    between atoms: C_7  and  C_8
REMARK    7  A    between atoms: C_8  and  O_9
REMARK                            x       y       z     vdW  Elec       q    Type
REMARK                         _______ _______ _______ _____ _____    ______ ____
ROOT
ATOM      1  S   UNL     1      37.416 -26.076 -14.385  0.00  0.00    -0.079 S 
ENDROOT
BRANCH   1   2
ATOM      2  S   UNL     1      35.967 -24.779 -13.723  0.00  0.00    -0.079 S 
BRANCH   2   3
ATOM      3  C   UNL     1      36.940 -23.299 -13.352  0.00  0.00    +0.100 C 
BRANCH   3   4
ATOM      4  C   UNL     1      37.143 -23.129 -11.855  0.00  0.00    +0.150 C 
BRANCH   4   5
ATOM      5  O   UNL     1      38.470 -22.694 -11.589  0.00  0.00    -0.381 OA
ATOM      6  H   UNL     1      38.714 -21.997 -12.218  0.00  0.00    +0.210 HD
ENDBRANCH   4   5
ENDBRANCH   3   4
ENDBRANCH   2   3
ENDBRANCH   1   2
BRANCH   1   7
ATOM      7  C   UNL     1      38.789 -24.937 -14.737  0.00  0.00    +0.100 C 
BRANCH   7   8
ATOM      8  C   UNL     1      40.127 -25.657 -14.716  0.00  0.00    +0.150 C 
BRANCH   8   9
ATOM      9  O   UNL     1      40.516 -26.002 -16.039  0.00  0.00    -0.381 OA
ATOM     10  H   UNL     1      40.778 -26.936 -16.066  0.00  0.00    +0.210 HD
ENDBRANCH   8   9
ENDBRANCH   7   8
ENDBRANCH   1   7
TORSDOF 7
ENDMDL
MODEL 6
REMARK VINA RESULT:      -4.1      3.747      4.549
REMARK  Name = 15906
REMARK  7 active torsions:
REMARK  status: ('A' for Active; 'I' for Inactive)
REMARK    1  A    between atoms: S_1  and  S_2
REMARK    2  A    between atoms: S_1  and  C_7
REMARK    3  A    between atoms: S_2  and  C_3
REMARK    4  A    between atoms: C_3  and  C_4
REMARK    5  A    between atoms: C_4  and  O_5
REMARK    6  A    between atoms: C_7  and  C_8
REMARK    7  A    between atoms: C_8  and  O_9
REMARK                            x       y       z     vdW  Elec       q    Type
REMARK                         _______ _______ _______ _____ _____    ______ ____
ROOT
ATOM      1  S   UNL     1      37.691 -26.559 -14.629  0.00  0.00    -0.079 S 
ENDROOT
BRANCH   1   2
ATOM      2  S   UNL     1      36.185 -25.170 -14.777  0.00  0.00    -0.079 S 
BRANCH   2   3
ATOM      3  C   UNL     1      37.046 -23.644 -14.328  0.00  0.00    +0.100 C 
BRANCH   3   4
ATOM      4  C   UNL     1      37.368 -22.806 -15.554  0.00  0.00    +0.150 C 
BRANCH   4   5
ATOM      5  O   UNL     1      38.596 -23.236 -16.129  0.00  0.00    -0.381 OA
ATOM      6  H   UNL     1      39.303 -22.621 -15.879  0.00  0.00    +0.210 HD
ENDBRANCH   4   5
ENDBRANCH   3   4
ENDBRANCH   2   3
ENDBRANCH   1   2
BRANCH   1   7
ATOM      7  C   UNL     1      38.924 -25.652 -13.647  0.00  0.00    +0.100 C 
BRANCH   7   8
ATOM      8  C   UNL     1      40.303 -25.724 -14.283  0.00  0.00    +0.150 C 
BRANCH   8   9
ATOM      9  O   UNL     1      40.184 -25.783 -15.698  0.00  0.00    -0.381 OA
ATOM     10  H   UNL     1      39.314 -26.140 -15.935  0.00  0.00    +0.210 HD
ENDBRANCH   8   9
ENDBRANCH   7   8
ENDBRANCH   1   7
TORSDOF 7
ENDMDL
MODEL 7
REMARK VINA RESULT:      -4.0      2.050      4.806
REMARK  Name = 15906
REMARK  7 active torsions:
REMARK  status: ('A' for Active; 'I' for Inactive)
REMARK    1  A    between atoms: S_1  and  S_2
REMARK    2  A    between atoms: S_1  and  C_7
REMARK    3  A    between atoms: S_2  and  C_3
REMARK    4  A    between atoms: C_3  and  C_4
REMARK    5  A    between atoms: C_4  and  O_5
REMARK    6  A    between atoms: C_7  and  C_8
REMARK    7  A    between atoms: C_8  and  O_9
REMARK                            x       y       z     vdW  Elec       q    Type
REMARK                         _______ _______ _______ _____ _____    ______ ____
ROOT
ATOM      1  S   UNL     1      36.819 -24.017 -14.842  0.00  0.00    -0.079 S 
ENDROOT
BRANCH   1   2
ATOM      2  S   UNL     1      35.450 -24.397 -13.358  0.00  0.00    -0.079 S 
BRANCH   2   3
ATOM      3  C   UNL     1      36.474 -24.269 -11.872  0.00  0.00    +0.100 C 
BRANCH   3   4
ATOM      4  C   UNL     1      37.210 -22.940 -11.817  0.00  0.00    +0.150 C 
BRANCH   4   5
ATOM      5  O   UNL     1      38.605 -23.162 -11.656  0.00  0.00    -0.381 OA
ATOM      6  H   UNL     1      39.028 -23.204 -12.528  0.00  0.00    +0.210 HD
ENDBRANCH   4   5
ENDBRANCH   3   4
ENDBRANCH   2   3
ENDBRANCH   1   2
BRANCH   1   7
ATOM      7  C   UNL     1      37.786 -25.558 -14.846  0.00  0.00    +0.100 C 
BRANCH   7   8
ATOM      8  C   UNL     1      36.885 -26.778 -14.936  0.00  0.00    +0.150 C 
BRANCH   8   9
ATOM      9  O   UNL     1      36.809 -27.231 -16.281  0.00  0.00    -0.381 OA
ATOM     10  H   UNL     1      37.574 -26.901 -16.777  0.00  0.00    +0.210 HD
ENDBRANCH   8   9
ENDBRANCH   7   8
ENDBRANCH   1   7
TORSDOF 7
ENDMDL
MODEL 8
REMARK VINA RESULT:      -4.0      2.569      2.889
REMARK  Name = 15906
REMARK  7 active torsions:
REMARK  status: ('A' for Active; 'I' for Inactive)
REMARK    1  A    between atoms: S_1  and  S_2
REMARK    2  A    between atoms: S_1  and  C_7
REMARK    3  A    between atoms: S_2  and  C_3
REMARK    4  A    between atoms: C_3  and  C_4
REMARK    5  A    between atoms: C_4  and  O_5
REMARK    6  A    between atoms: C_7  and  C_8
REMARK    7  A    between atoms: C_8  and  O_9
REMARK                            x       y       z     vdW  Elec       q    Type
REMARK                         _______ _______ _______ _____ _____    ______ ____
ROOT
ATOM      1  S   UNL     1      37.315 -25.662 -12.430  0.00  0.00    -0.079 S 
ENDROOT
BRANCH   1   2
ATOM      2  S   UNL     1      37.620 -26.260 -14.371  0.00  0.00    -0.079 S 
BRANCH   2   3
ATOM      3  C   UNL     1      39.010 -25.213 -14.865  0.00  0.00    +0.100 C 
BRANCH   3   4
ATOM      4  C   UNL     1      40.267 -25.552 -14.081  0.00  0.00    +0.150 C 
BRANCH   4   5
ATOM      5  O   UNL     1      40.945 -26.642 -14.694  0.00  0.00    -0.381 OA
ATOM      6  H   UNL     1      41.817 -26.348 -15.001  0.00  0.00    +0.210 HD
ENDBRANCH   4   5
ENDBRANCH   3   4
ENDBRANCH   2   3
ENDBRANCH   1   2
BRANCH   1   7
ATOM      7  C   UNL     1      36.586 -24.012 -12.670  0.00  0.00    +0.100 C 
BRANCH   7   8
ATOM      8  C   UNL     1      37.278 -22.969 -11.807  0.00  0.00    +0.150 C 
BRANCH   8   9
ATOM      9  O   UNL     1      38.649 -23.304 -11.643  0.00  0.00    -0.381 OA
ATOM     10  H   UNL     1      39.201 -22.560 -11.932  0.00  0.00    +0.210 HD
ENDBRANCH   8   9
ENDBRANCH   7   8
ENDBRANCH   1   7
TORSDOF 7
ENDMDL
MODEL 9
REMARK VINA RESULT:      -3.9      7.518      7.933
REMARK  Name = 15906
REMARK  7 active torsions:
REMARK  status: ('A' for Active; 'I' for Inactive)
REMARK    1  A    between atoms: S_1  and  S_2
REMARK    2  A    between atoms: S_1  and  C_7
REMARK    3  A    between atoms: S_2  and  C_3
REMARK    4  A    between atoms: C_3  and  C_4
REMARK    5  A    between atoms: C_4  and  O_5
REMARK    6  A    between atoms: C_7  and  C_8
REMARK    7  A    between atoms: C_8  and  O_9
REMARK                            x       y       z     vdW  Elec       q    Type
REMARK                         _______ _______ _______ _____ _____    ______ ____
ROOT
ATOM      1  S   UNL     1      30.067 -25.058 -14.906  0.00  0.00    -0.079 S 
ENDROOT
BRANCH   1   2
ATOM      2  S   UNL     1      30.215 -23.259 -15.888  0.00  0.00    -0.079 S 
BRANCH   2   3
ATOM      3  C   UNL     1      28.521 -22.635 -15.771  0.00  0.00    +0.100 C 
BRANCH   3   4
ATOM      4  C   UNL     1      27.807 -22.709 -17.111  0.00  0.00    +0.150 C 
BRANCH   4   5
ATOM      5  O   UNL     1      27.739 -24.058 -17.554  0.00  0.00    -0.381 OA
ATOM      6  H   UNL     1      28.027 -24.648 -16.839  0.00  0.00    +0.210 HD
ENDBRANCH   4   5
ENDBRANCH   3   4
ENDBRANCH   2   3
ENDBRANCH   1   2
BRANCH   1   7
ATOM      7  C   UNL     1      31.564 -25.030 -13.874  0.00  0.00    +0.100 C 
BRANCH   7   8
ATOM      8  C   UNL     1      32.332 -23.730 -14.045  0.00  0.00    +0.150 C 
BRANCH   8   9
ATOM      9  O   UNL     1      32.368 -23.019 -12.815  0.00  0.00    -0.381 OA
ATOM     10  H   UNL     1      31.861 -22.197 -12.901  0.00  0.00    +0.210 HD
ENDBRANCH   8   9
ENDBRANCH   7   8
ENDBRANCH   1   7
TORSDOF 7
ENDMDL
