MODEL 1
REMARK VINA RESULT:     -10.3      0.000      0.000
REMARK  Name = 16058629
REMARK  7 active torsions:
REMARK  status: ('A' for Active; 'I' for Inactive)
REMARK    1  A    between atoms: C_2  and  C_10
REMARK    2  A    between atoms: C_3  and  O_21
REMARK    3  A    between atoms: N_9  and  C_12
REMARK    4  A    between atoms: C_12  and  C_15
REMARK    5  A    between atoms: O_21  and  C_22
REMARK    6  A    between atoms: C_22  and  C_24
REMARK    7  A    between atoms: C_24  and  O_25
REMARK                            x       y       z     vdW  Elec       q    Type
REMARK                         _______ _______ _______ _____ _____    ______ ____
ROOT
ATOM      1 CL   UNL     1      30.958 -11.538 -21.643  0.00  0.00    -0.082 Cl
ATOM      2  C   UNL     1      33.693 -15.117 -21.404  0.00  0.00    +0.087 C 
ATOM      3  C   UNL     1      33.568 -14.414 -22.603  0.00  0.00    +0.145 C 
ATOM      4  C   UNL     1      32.974 -14.713 -20.279  0.00  0.00    +0.008 C 
ATOM      5  C   UNL     1      32.722 -13.307 -22.676  0.00  0.00    +0.048 C 
ATOM      6  C   UNL     1      32.128 -13.606 -20.354  0.00  0.00    +0.012 C 
ATOM      7  C   UNL     1      32.002 -12.904 -21.552  0.00  0.00    +0.061 C 
ENDROOT
BRANCH   2  10
ATOM      8  O   UNL     1      35.298 -16.431 -20.309  0.00  0.00    -0.270 OA
ATOM      9  N   UNL     1      34.531 -17.192 -22.361  0.00  0.00    -0.297 N 
ATOM     10  C   UNL     1      34.571 -16.275 -21.306  0.00  0.00    +0.249 C 
ATOM     11  H   UNL     1      33.932 -17.004 -23.119  0.00  0.00    +0.150 HD
BRANCH   9  12
ATOM     12  C   UNL     1      35.323 -18.400 -22.398  0.00  0.00    +0.119 C 
BRANCH  12  15
ATOM     13 BR   UNL     1      33.348 -22.575 -18.306  0.00  0.00    -0.049 Br
ATOM     14  F   UNL     1      37.080 -19.872 -20.748  0.00  0.00    -0.204 F 
ATOM     15  C   UNL     1      34.845 -19.416 -21.401  0.00  0.00    +0.025 C 
ATOM     16  C   UNL     1      35.766 -20.104 -20.621  0.00  0.00    +0.138 C 
ATOM     17  C   UNL     1      33.483 -19.658 -21.270  0.00  0.00    +0.000 C 
ATOM     18  C   UNL     1      35.320 -21.048 -19.697  0.00  0.00    +0.036 C 
ATOM     19  C   UNL     1      33.036 -20.602 -20.345  0.00  0.00    +0.007 C 
ATOM     20  C   UNL     1      33.954 -21.297 -19.558  0.00  0.00    +0.037 C 
ENDBRANCH  12  15
ENDBRANCH   9  12
ENDBRANCH   2  10
BRANCH   3  21
ATOM     21  O   UNL     1      34.262 -14.793 -23.712  0.00  0.00    -0.464 OA
BRANCH  21  22
ATOM     22  C   UNL     1      33.592 -14.681 -24.966  0.00  0.00    +0.314 C 
BRANCH  22  24
ATOM     23  O   UNL     1      34.606 -16.805 -25.565  0.00  0.00    -0.246 OA
ATOM     24  C   UNL     1      33.740 -15.961 -25.739  0.00  0.00    +0.359 C 
BRANCH  24  25
ATOM     25  O   UNL     1      32.763 -16.058 -26.675  0.00  0.00    -0.478 OA
ATOM     26  H   UNL     1      32.401 -15.283 -27.058  0.00  0.00    +0.295 HD
ENDBRANCH  24  25
ENDBRANCH  22  24
ENDBRANCH  21  22
ENDBRANCH   3  21
TORSDOF 7
ENDMDL
MODEL 2
REMARK VINA RESULT:     -10.2      5.856      9.026
REMARK  Name = 16058629
REMARK  7 active torsions:
REMARK  status: ('A' for Active; 'I' for Inactive)
REMARK    1  A    between atoms: C_2  and  C_10
REMARK    2  A    between atoms: C_3  and  O_21
REMARK    3  A    between atoms: N_9  and  C_12
REMARK    4  A    between atoms: C_12  and  C_15
REMARK    5  A    between atoms: O_21  and  C_22
REMARK    6  A    between atoms: C_22  and  C_24
REMARK    7  A    between atoms: C_24  and  O_25
REMARK                            x       y       z     vdW  Elec       q    Type
REMARK                         _______ _______ _______ _____ _____    ______ ____
ROOT
ATOM      1 CL   UNL     1      30.966 -23.528 -13.427  0.00  0.00    -0.082 Cl
ATOM      2  C   UNL     1      33.289 -23.123 -17.273  0.00  0.00    +0.087 C 
ATOM      3  C   UNL     1      33.932 -23.553 -16.112  0.00  0.00    +0.145 C 
ATOM      4  C   UNL     1      31.928 -22.819 -17.246  0.00  0.00    +0.008 C 
ATOM      5  C   UNL     1      33.214 -23.678 -14.923  0.00  0.00    +0.048 C 
ATOM      6  C   UNL     1      31.210 -22.945 -16.055  0.00  0.00    +0.012 C 
ATOM      7  C   UNL     1      31.853 -23.374 -14.895  0.00  0.00    +0.061 C 
ENDROOT
BRANCH   2  10
ATOM      8  O   UNL     1      33.833 -23.789 -19.454  0.00  0.00    -0.270 OA
ATOM      9  N   UNL     1      34.906 -21.906 -18.627  0.00  0.00    -0.297 N 
ATOM     10  C   UNL     1      34.020 -22.985 -18.525  0.00  0.00    +0.249 C 
ATOM     11  H   UNL     1      35.003 -21.310 -17.850  0.00  0.00    +0.150 HD
BRANCH   9  12
ATOM     12  C   UNL     1      35.683 -21.623 -19.810  0.00  0.00    +0.119 C 
BRANCH  12  15
ATOM     13 BR   UNL     1      34.128 -16.215 -22.342  0.00  0.00    -0.049 Br
ATOM     14  F   UNL     1      37.595 -19.702 -20.607  0.00  0.00    -0.204 F 
ATOM     15  C   UNL     1      35.308 -20.307 -20.427  0.00  0.00    +0.025 C 
ATOM     16  C   UNL     1      36.301 -19.408 -20.796  0.00  0.00    +0.138 C 
ATOM     17  C   UNL     1      33.966 -20.000 -20.623  0.00  0.00    +0.000 C 
ATOM     18  C   UNL     1      35.950 -18.185 -21.367  0.00  0.00    +0.036 C 
ATOM     19  C   UNL     1      33.614 -18.777 -21.195  0.00  0.00    +0.007 C 
ATOM     20  C   UNL     1      34.606 -17.870 -21.567  0.00  0.00    +0.037 C 
ENDBRANCH  12  15
ENDBRANCH   9  12
ENDBRANCH   2  10
BRANCH   3  21
ATOM     21  O   UNL     1      35.261 -23.854 -16.119  0.00  0.00    -0.464 OA
BRANCH  21  22
ATOM     22  C   UNL     1      36.094 -23.131 -15.214  0.00  0.00    +0.314 C 
BRANCH  22  24
ATOM     23  O   UNL     1      37.222 -21.512 -16.630  0.00  0.00    -0.246 OA
ATOM     24  C   UNL     1      37.254 -22.531 -15.958  0.00  0.00    +0.359 C 
BRANCH  24  25
ATOM     25  O   UNL     1      38.366 -23.289 -15.780  0.00  0.00    -0.478 OA
ATOM     26  H   UNL     1      38.448 -23.830 -15.020  0.00  0.00    +0.295 HD
ENDBRANCH  24  25
ENDBRANCH  22  24
ENDBRANCH  21  22
ENDBRANCH   3  21
TORSDOF 7
ENDMDL
MODEL 3
REMARK VINA RESULT:      -9.8      6.263      9.756
REMARK  Name = 16058629
REMARK  7 active torsions:
REMARK  status: ('A' for Active; 'I' for Inactive)
REMARK    1  A    between atoms: C_2  and  C_10
REMARK    2  A    between atoms: C_3  and  O_21
REMARK    3  A    between atoms: N_9  and  C_12
REMARK    4  A    between atoms: C_12  and  C_15
REMARK    5  A    between atoms: O_21  and  C_22
REMARK    6  A    between atoms: C_22  and  C_24
REMARK    7  A    between atoms: C_24  and  O_25
REMARK                            x       y       z     vdW  Elec       q    Type
REMARK                         _______ _______ _______ _____ _____    ______ ____
ROOT
ATOM      1 CL   UNL     1      31.273 -23.538 -13.220  0.00  0.00    -0.082 Cl
ATOM      2  C   UNL     1      33.382 -23.214 -17.194  0.00  0.00    +0.087 C 
ATOM      3  C   UNL     1      34.081 -23.650 -16.068  0.00  0.00    +0.145 C 
ATOM      4  C   UNL     1      32.032 -22.878 -17.092  0.00  0.00    +0.008 C 
ATOM      5  C   UNL     1      33.428 -23.751 -14.839  0.00  0.00    +0.048 C 
ATOM      6  C   UNL     1      31.380 -22.978 -15.862  0.00  0.00    +0.012 C 
ATOM      7  C   UNL     1      32.078 -23.415 -14.737  0.00  0.00    +0.061 C 
ENDROOT
BRANCH   2  10
ATOM      8  O   UNL     1      33.788 -23.910 -19.397  0.00  0.00    -0.270 OA
ATOM      9  N   UNL     1      34.944 -22.043 -18.648  0.00  0.00    -0.297 N 
ATOM     10  C   UNL     1      34.044 -23.102 -18.487  0.00  0.00    +0.249 C 
ATOM     11  H   UNL     1      35.098 -21.443 -17.884  0.00  0.00    +0.150 HD
BRANCH   9  12
ATOM     12  C   UNL     1      35.659 -21.786 -19.877  0.00  0.00    +0.119 C 
BRANCH  12  15
ATOM     13 BR   UNL     1      34.371 -16.211 -22.186  0.00  0.00    -0.049 Br
ATOM     14  F   UNL     1      33.029 -20.952 -20.480  0.00  0.00    -0.204 F 
ATOM     15  C   UNL     1      35.343 -20.430 -20.438  0.00  0.00    +0.025 C 
ATOM     16  C   UNL     1      34.025 -20.086 -20.711  0.00  0.00    +0.138 C 
ATOM     17  C   UNL     1      36.375 -19.531 -20.679  0.00  0.00    +0.000 C 
ATOM     18  C   UNL     1      33.734 -18.826 -21.234  0.00  0.00    +0.036 C 
ATOM     19  C   UNL     1      36.085 -18.271 -21.202  0.00  0.00    +0.007 C 
ATOM     20  C   UNL     1      34.764 -17.918 -21.479  0.00  0.00    +0.037 C 
ENDBRANCH  12  15
ENDBRANCH   9  12
ENDBRANCH   2  10
BRANCH   3  21
ATOM     21  O   UNL     1      35.399 -23.982 -16.148  0.00  0.00    -0.464 OA
BRANCH  21  22
ATOM     22  C   UNL     1      36.045 -24.369 -14.936  0.00  0.00    +0.314 C 
BRANCH  22  24
ATOM     23  O   UNL     1      36.195 -26.600 -15.886  0.00  0.00    -0.246 OA
ATOM     24  C   UNL     1      36.235 -25.860 -14.915  0.00  0.00    +0.359 C 
BRANCH  24  25
ATOM     25  O   UNL     1      36.464 -26.284 -13.646  0.00  0.00    -0.478 OA
ATOM     26  H   UNL     1      36.996 -27.040 -13.493  0.00  0.00    +0.295 HD
ENDBRANCH  24  25
ENDBRANCH  22  24
ENDBRANCH  21  22
ENDBRANCH   3  21
TORSDOF 7
ENDMDL
MODEL 4
REMARK VINA RESULT:      -9.6      4.686      7.616
REMARK  Name = 16058629
REMARK  7 active torsions:
REMARK  status: ('A' for Active; 'I' for Inactive)
REMARK    1  A    between atoms: C_2  and  C_10
REMARK    2  A    between atoms: C_3  and  O_21
REMARK    3  A    between atoms: N_9  and  C_12
REMARK    4  A    between atoms: C_12  and  C_15
REMARK    5  A    between atoms: O_21  and  C_22
REMARK    6  A    between atoms: C_22  and  C_24
REMARK    7  A    between atoms: C_24  and  O_25
REMARK                            x       y       z     vdW  Elec       q    Type
REMARK                         _______ _______ _______ _____ _____    ______ ____
ROOT
ATOM      1 CL   UNL     1      35.590 -20.189 -20.286  0.00  0.00    -0.082 Cl
ATOM      2  C   UNL     1      34.670 -17.328 -23.650  0.00  0.00    +0.087 C 
ATOM      3  C   UNL     1      34.940 -16.837 -22.372  0.00  0.00    +0.145 C 
ATOM      4  C   UNL     1      34.686 -18.702 -23.888  0.00  0.00    +0.008 C 
ATOM      5  C   UNL     1      35.225 -17.722 -21.332  0.00  0.00    +0.048 C 
ATOM      6  C   UNL     1      34.970 -19.587 -22.847  0.00  0.00    +0.012 C 
ATOM      7  C   UNL     1      35.239 -19.097 -21.570  0.00  0.00    +0.061 C 
ENDROOT
BRANCH   2  10
ATOM      8  O   UNL     1      34.906 -16.582 -25.861  0.00  0.00    -0.270 OA
ATOM      9  N   UNL     1      33.452 -15.398 -24.496  0.00  0.00    -0.297 N 
ATOM     10  C   UNL     1      34.371 -16.421 -24.750  0.00  0.00    +0.249 C 
ATOM     11  H   UNL     1      33.069 -15.331 -23.592  0.00  0.00    +0.150 HD
BRANCH   9  12
ATOM     12  C   UNL     1      33.035 -14.436 -25.490  0.00  0.00    +0.119 C 
BRANCH  12  15
ATOM     13 BR   UNL     1      34.710  -8.693 -23.977  0.00  0.00    -0.049 Br
ATOM     14  F   UNL     1      34.173 -12.637 -27.346  0.00  0.00    -0.204 F 
ATOM     15  C   UNL     1      33.442 -13.038 -25.125  0.00  0.00    +0.025 C 
ATOM     16  C   UNL     1      33.997 -12.206 -26.090  0.00  0.00    +0.138 C 
ATOM     17  C   UNL     1      33.261 -12.591 -23.821  0.00  0.00    +0.000 C 
ATOM     18  C   UNL     1      34.376 -10.908 -25.747  0.00  0.00    +0.036 C 
ATOM     19  C   UNL     1      33.640 -11.293 -23.479  0.00  0.00    +0.007 C 
ATOM     20  C   UNL     1      34.198 -10.451 -24.442  0.00  0.00    +0.037 C 
ENDBRANCH  12  15
ENDBRANCH   9  12
ENDBRANCH   2  10
BRANCH   3  21
ATOM     21  O   UNL     1      34.930 -15.499 -22.119  0.00  0.00    -0.464 OA
BRANCH  21  22
ATOM     22  C   UNL     1      34.410 -15.081 -20.859  0.00  0.00    +0.314 C 
BRANCH  22  24
ATOM     23  O   UNL     1      32.140 -15.284 -21.699  0.00  0.00    -0.246 OA
ATOM     24  C   UNL     1      32.961 -14.706 -21.004  0.00  0.00    +0.359 C 
BRANCH  24  25
ATOM     25  O   UNL     1      32.682 -13.616 -20.246  0.00  0.00    -0.478 OA
ATOM     26  H   UNL     1      32.824 -12.756 -20.590  0.00  0.00    +0.295 HD
ENDBRANCH  24  25
ENDBRANCH  22  24
ENDBRANCH  21  22
ENDBRANCH   3  21
TORSDOF 7
ENDMDL
MODEL 5
REMARK VINA RESULT:      -9.2      3.563      5.404
REMARK  Name = 16058629
REMARK  7 active torsions:
REMARK  status: ('A' for Active; 'I' for Inactive)
REMARK    1  A    between atoms: C_2  and  C_10
REMARK    2  A    between atoms: C_3  and  O_21
REMARK    3  A    between atoms: N_9  and  C_12
REMARK    4  A    between atoms: C_12  and  C_15
REMARK    5  A    between atoms: O_21  and  C_22
REMARK    6  A    between atoms: C_22  and  C_24
REMARK    7  A    between atoms: C_24  and  O_25
REMARK                            x       y       z     vdW  Elec       q    Type
REMARK                         _______ _______ _______ _____ _____    ______ ____
ROOT
ATOM      1 CL   UNL     1      34.879  -7.375 -23.393  0.00  0.00    -0.082 Cl
ATOM      2  C   UNL     1      33.944 -11.543 -24.842  0.00  0.00    +0.087 C 
ATOM      3  C   UNL     1      33.264 -11.019 -23.743  0.00  0.00    +0.145 C 
ATOM      4  C   UNL     1      34.913 -10.779 -25.494  0.00  0.00    +0.008 C 
ATOM      5  C   UNL     1      33.553  -9.730 -23.295  0.00  0.00    +0.048 C 
ATOM      6  C   UNL     1      35.201  -9.490 -25.044  0.00  0.00    +0.012 C 
ATOM      7  C   UNL     1      34.522  -8.966 -23.946  0.00  0.00    +0.061 C 
ENDROOT
BRANCH   2  10
ATOM      8  O   UNL     1      33.360 -13.076 -26.518  0.00  0.00    -0.270 OA
ATOM      9  N   UNL     1      33.759 -13.930 -24.398  0.00  0.00    -0.297 N 
ATOM     10  C   UNL     1      33.658 -12.887 -25.326  0.00  0.00    +0.249 C 
ATOM     11  H   UNL     1      33.999 -13.706 -23.471  0.00  0.00    +0.150 HD
BRANCH   9  12
ATOM     12  C   UNL     1      33.530 -15.317 -24.731  0.00  0.00    +0.119 C 
BRANCH  12  15
ATOM     13 BR   UNL     1      36.459 -19.127 -20.860  0.00  0.00    -0.049 Br
ATOM     14  F   UNL     1      34.728 -17.730 -25.578  0.00  0.00    -0.204 F 
ATOM     15  C   UNL     1      34.244 -16.245 -23.792  0.00  0.00    +0.025 C 
ATOM     16  C   UNL     1      34.811 -17.417 -24.277  0.00  0.00    +0.138 C 
ATOM     17  C   UNL     1      34.329 -15.922 -22.442  0.00  0.00    +0.000 C 
ATOM     18  C   UNL     1      35.472 -18.278 -23.402  0.00  0.00    +0.036 C 
ATOM     19  C   UNL     1      34.990 -16.783 -21.567  0.00  0.00    +0.007 C 
ATOM     20  C   UNL     1      35.562 -17.962 -22.046  0.00  0.00    +0.037 C 
ENDBRANCH  12  15
ENDBRANCH   9  12
ENDBRANCH   2  10
BRANCH   3  21
ATOM     21  O   UNL     1      32.315 -11.749 -23.093  0.00  0.00    -0.464 OA
BRANCH  21  22
ATOM     22  C   UNL     1      31.566 -11.083 -22.079  0.00  0.00    +0.314 C 
BRANCH  22  24
ATOM     23  O   UNL     1      31.246 -11.486 -19.705  0.00  0.00    -0.246 OA
ATOM     24  C   UNL     1      31.626 -11.871 -20.800  0.00  0.00    +0.359 C 
BRANCH  24  25
ATOM     25  O   UNL     1      32.169 -13.093 -21.030  0.00  0.00    -0.478 OA
ATOM     26  H   UNL     1      32.913 -13.376 -20.535  0.00  0.00    +0.295 HD
ENDBRANCH  24  25
ENDBRANCH  22  24
ENDBRANCH  21  22
ENDBRANCH   3  21
TORSDOF 7
ENDMDL
MODEL 6
REMARK VINA RESULT:      -8.9      1.726      2.216
REMARK  Name = 16058629
REMARK  7 active torsions:
REMARK  status: ('A' for Active; 'I' for Inactive)
REMARK    1  A    between atoms: C_2  and  C_10
REMARK    2  A    between atoms: C_3  and  O_21
REMARK    3  A    between atoms: N_9  and  C_12
REMARK    4  A    between atoms: C_12  and  C_15
REMARK    5  A    between atoms: O_21  and  C_22
REMARK    6  A    between atoms: C_22  and  C_24
REMARK    7  A    between atoms: C_24  and  O_25
REMARK                            x       y       z     vdW  Elec       q    Type
REMARK                         _______ _______ _______ _____ _____    ______ ____
ROOT
ATOM      1 CL   UNL     1      30.942 -10.827 -20.212  0.00  0.00    -0.082 Cl
ATOM      2  C   UNL     1      33.121 -14.297 -22.098  0.00  0.00    +0.087 C 
ATOM      3  C   UNL     1      32.827 -13.164 -22.856  0.00  0.00    +0.145 C 
ATOM      4  C   UNL     1      32.743 -14.358 -20.757  0.00  0.00    +0.008 C 
ATOM      5  C   UNL     1      32.154 -12.090 -22.273  0.00  0.00    +0.048 C 
ATOM      6  C   UNL     1      32.068 -13.284 -20.174  0.00  0.00    +0.012 C 
ATOM      7  C   UNL     1      31.774 -12.151 -20.932  0.00  0.00    +0.061 C 
ENDROOT
BRANCH   2  10
ATOM      8  O   UNL     1      33.689 -15.693 -23.895  0.00  0.00    -0.270 OA
ATOM      9  N   UNL     1      34.659 -16.167 -21.841  0.00  0.00    -0.297 N 
ATOM     10  C   UNL     1      33.824 -15.429 -22.688  0.00  0.00    +0.249 C 
ATOM     11  H   UNL     1      34.716 -15.900 -20.896  0.00  0.00    +0.150 HD
BRANCH   9  12
ATOM     12  C   UNL     1      35.439 -17.300 -22.282  0.00  0.00    +0.119 C 
BRANCH  12  15
ATOM     13 BR   UNL     1      34.062 -22.418 -19.122  0.00  0.00    -0.049 Br
ATOM     14  F   UNL     1      37.414 -18.999 -21.190  0.00  0.00    -0.204 F 
ATOM     15  C   UNL     1      35.107 -18.545 -21.512  0.00  0.00    +0.025 C 
ATOM     16  C   UNL     1      36.129 -19.335 -21.002  0.00  0.00    +0.138 C 
ATOM     17  C   UNL     1      33.776 -18.895 -21.318  0.00  0.00    +0.000 C 
ATOM     18  C   UNL     1      35.818 -20.493 -20.288  0.00  0.00    +0.036 C 
ATOM     19  C   UNL     1      33.464 -20.052 -20.604  0.00  0.00    +0.007 C 
ATOM     20  C   UNL     1      34.485 -20.851 -20.089  0.00  0.00    +0.037 C 
ENDBRANCH  12  15
ENDBRANCH   9  12
ENDBRANCH   2  10
BRANCH   3  21
ATOM     21  O   UNL     1      33.189 -13.086 -24.167  0.00  0.00    -0.464 OA
BRANCH  21  22
ATOM     22  C   UNL     1      33.874 -11.905 -24.582  0.00  0.00    +0.314 C 
BRANCH  22  24
ATOM     23  O   UNL     1      33.471 -12.641 -26.861  0.00  0.00    -0.246 OA
ATOM     24  C   UNL     1      34.070 -11.926 -26.072  0.00  0.00    +0.359 C 
BRANCH  24  25
ATOM     25  O   UNL     1      35.019 -11.027 -26.432  0.00  0.00    -0.478 OA
ATOM     26  H   UNL     1      34.925 -10.537 -27.226  0.00  0.00    +0.295 HD
ENDBRANCH  24  25
ENDBRANCH  22  24
ENDBRANCH  21  22
ENDBRANCH   3  21
TORSDOF 7
ENDMDL
MODEL 7
REMARK VINA RESULT:      -8.8      6.452      8.769
REMARK  Name = 16058629
REMARK  7 active torsions:
REMARK  status: ('A' for Active; 'I' for Inactive)
REMARK    1  A    between atoms: C_2  and  C_10
REMARK    2  A    between atoms: C_3  and  O_21
REMARK    3  A    between atoms: N_9  and  C_12
REMARK    4  A    between atoms: C_12  and  C_15
REMARK    5  A    between atoms: O_21  and  C_22
REMARK    6  A    between atoms: C_22  and  C_24
REMARK    7  A    between atoms: C_24  and  O_25
REMARK                            x       y       z     vdW  Elec       q    Type
REMARK                         _______ _______ _______ _____ _____    ______ ____
ROOT
ATOM      1 CL   UNL     1      36.611 -18.658 -21.588  0.00  0.00    -0.082 Cl
ATOM      2  C   UNL     1      34.604 -21.834 -19.091  0.00  0.00    +0.087 C 
ATOM      3  C   UNL     1      35.975 -21.612 -18.965  0.00  0.00    +0.145 C 
ATOM      4  C   UNL     1      33.852 -21.074 -19.987  0.00  0.00    +0.008 C 
ATOM      5  C   UNL     1      36.596 -20.629 -19.737  0.00  0.00    +0.048 C 
ATOM      6  C   UNL     1      34.474 -20.092 -20.760  0.00  0.00    +0.012 C 
ATOM      7  C   UNL     1      35.845 -19.870 -20.634  0.00  0.00    +0.061 C 
ENDROOT
BRANCH   2  10
ATOM      8  O   UNL     1      33.634 -23.949 -18.799  0.00  0.00    -0.270 OA
ATOM      9  N   UNL     1      33.682 -22.546 -16.953  0.00  0.00    -0.297 N 
ATOM     10  C   UNL     1      33.936 -22.854 -18.294  0.00  0.00    +0.249 C 
ATOM     11  H   UNL     1      33.949 -21.658 -16.621  0.00  0.00    +0.150 HD
BRANCH   9  12
ATOM     12  C   UNL     1      33.051 -23.461 -16.031  0.00  0.00    +0.119 C 
BRANCH  12  15
ATOM     13 BR   UNL     1      27.047 -22.233 -15.311  0.00  0.00    -0.049 Br
ATOM     14  F   UNL     1      31.896 -22.905 -13.513  0.00  0.00    -0.204 F 
ATOM     15  C   UNL     1      31.591 -23.161 -15.853  0.00  0.00    +0.025 C 
ATOM     16  C   UNL     1      31.090 -22.896 -14.584  0.00  0.00    +0.138 C 
ATOM     17  C   UNL     1      30.754 -23.152 -16.962  0.00  0.00    +0.000 C 
ATOM     18  C   UNL     1      29.732 -22.619 -14.422  0.00  0.00    +0.036 C 
ATOM     19  C   UNL     1      29.396 -22.876 -16.800  0.00  0.00    +0.007 C 
ATOM     20  C   UNL     1      28.885 -22.609 -15.530  0.00  0.00    +0.037 C 
ENDBRANCH  12  15
ENDBRANCH   9  12
ENDBRANCH   2  10
BRANCH   3  21
ATOM     21  O   UNL     1      36.725 -22.344 -18.095  0.00  0.00    -0.464 OA
BRANCH  21  22
ATOM     22  C   UNL     1      37.160 -21.688 -16.904  0.00  0.00    +0.314 C 
BRANCH  22  24
ATOM     23  O   UNL     1      36.251 -22.805 -14.947  0.00  0.00    -0.246 OA
ATOM     24  C   UNL     1      37.154 -22.660 -15.757  0.00  0.00    +0.359 C 
BRANCH  24  25
ATOM     25  O   UNL     1      38.310 -23.371 -15.741  0.00  0.00    -0.478 OA
ATOM     26  H   UNL     1      39.132 -22.934 -15.849  0.00  0.00    +0.295 HD
ENDBRANCH  24  25
ENDBRANCH  22  24
ENDBRANCH  21  22
ENDBRANCH   3  21
TORSDOF 7
ENDMDL
MODEL 8
REMARK VINA RESULT:      -8.8      7.193     10.415
REMARK  Name = 16058629
REMARK  7 active torsions:
REMARK  status: ('A' for Active; 'I' for Inactive)
REMARK    1  A    between atoms: C_2  and  C_10
REMARK    2  A    between atoms: C_3  and  O_21
REMARK    3  A    between atoms: N_9  and  C_12
REMARK    4  A    between atoms: C_12  and  C_15
REMARK    5  A    between atoms: O_21  and  C_22
REMARK    6  A    between atoms: C_22  and  C_24
REMARK    7  A    between atoms: C_24  and  O_25
REMARK                            x       y       z     vdW  Elec       q    Type
REMARK                         _______ _______ _______ _____ _____    ______ ____
ROOT
ATOM      1 CL   UNL     1      32.684 -15.641 -26.617  0.00  0.00    -0.082 Cl
ATOM      2  C   UNL     1      33.768 -11.722 -24.664  0.00  0.00    +0.087 C 
ATOM      3  C   UNL     1      33.418 -12.819 -23.877  0.00  0.00    +0.145 C 
ATOM      4  C   UNL     1      33.784 -11.836 -26.055  0.00  0.00    +0.008 C 
ATOM      5  C   UNL     1      33.083 -14.031 -24.481  0.00  0.00    +0.048 C 
ATOM      6  C   UNL     1      33.448 -13.049 -26.658  0.00  0.00    +0.012 C 
ATOM      7  C   UNL     1      33.098 -14.145 -25.872  0.00  0.00    +0.061 C 
ENDROOT
BRANCH   2  10
ATOM      8  O   UNL     1      35.294 -10.035 -24.092  0.00  0.00    -0.270 OA
ATOM      9  N   UNL     1      33.085  -9.721 -23.458  0.00  0.00    -0.297 N 
ATOM     10  C   UNL     1      34.122 -10.447 -24.054  0.00  0.00    +0.249 C 
ATOM     11  H   UNL     1      32.181 -10.109 -23.465  0.00  0.00    +0.150 HD
BRANCH   9  12
ATOM     12  C   UNL     1      33.272  -8.431 -22.834  0.00  0.00    +0.119 C 
BRANCH  12  15
ATOM     13 BR   UNL     1      32.600  -3.803 -26.859  0.00  0.00    -0.049 Br
ATOM     14  F   UNL     1      30.825  -7.068 -23.201  0.00  0.00    -0.204 F 
ATOM     15  C   UNL     1      33.106  -7.305 -23.812  0.00  0.00    +0.025 C 
ATOM     16  C   UNL     1      31.873  -6.678 -23.941  0.00  0.00    +0.138 C 
ATOM     17  C   UNL     1      34.191  -6.900 -24.581  0.00  0.00    +0.000 C 
ATOM     18  C   UNL     1      31.721  -5.632 -24.851  0.00  0.00    +0.036 C 
ATOM     19  C   UNL     1      34.039  -5.854 -25.491  0.00  0.00    +0.007 C 
ATOM     20  C   UNL     1      32.804  -5.219 -25.627  0.00  0.00    +0.037 C 
ENDBRANCH  12  15
ENDBRANCH   9  12
ENDBRANCH   2  10
BRANCH   3  21
ATOM     21  O   UNL     1      33.397 -12.727 -22.518  0.00  0.00    -0.464 OA
BRANCH  21  22
ATOM     22  C   UNL     1      32.221 -13.190 -21.856  0.00  0.00    +0.314 C 
BRANCH  22  24
ATOM     23  O   UNL     1      31.560 -11.709 -20.048  0.00  0.00    -0.246 OA
ATOM     24  C   UNL     1      31.503 -12.030 -21.225  0.00  0.00    +0.359 C 
BRANCH  24  25
ATOM     25  O   UNL     1      30.767 -11.373 -22.156  0.00  0.00    -0.478 OA
ATOM     26  H   UNL     1      30.329 -11.852 -22.833  0.00  0.00    +0.295 HD
ENDBRANCH  24  25
ENDBRANCH  22  24
ENDBRANCH  21  22
ENDBRANCH   3  21
TORSDOF 7
ENDMDL
MODEL 9
REMARK VINA RESULT:      -8.8      5.548      8.631
REMARK  Name = 16058629
REMARK  7 active torsions:
REMARK  status: ('A' for Active; 'I' for Inactive)
REMARK    1  A    between atoms: C_2  and  C_10
REMARK    2  A    between atoms: C_3  and  O_21
REMARK    3  A    between atoms: N_9  and  C_12
REMARK    4  A    between atoms: C_12  and  C_15
REMARK    5  A    between atoms: O_21  and  C_22
REMARK    6  A    between atoms: C_22  and  C_24
REMARK    7  A    between atoms: C_24  and  O_25
REMARK                            x       y       z     vdW  Elec       q    Type
REMARK                         _______ _______ _______ _____ _____    ______ ____
ROOT
ATOM      1 CL   UNL     1      34.444 -18.109 -20.991  0.00  0.00    -0.082 Cl
ATOM      2  C   UNL     1      33.856 -14.467 -23.586  0.00  0.00    +0.087 C 
ATOM      3  C   UNL     1      33.170 -14.579 -22.377  0.00  0.00    +0.145 C 
ATOM      4  C   UNL     1      34.724 -15.479 -23.993  0.00  0.00    +0.008 C 
ATOM      5  C   UNL     1      33.352 -15.705 -21.574  0.00  0.00    +0.048 C 
ATOM      6  C   UNL     1      34.906 -16.606 -23.190  0.00  0.00    +0.012 C 
ATOM      7  C   UNL     1      34.220 -16.719 -21.981  0.00  0.00    +0.061 C 
ENDROOT
BRANCH   2  10
ATOM      8  O   UNL     1      33.112 -13.403 -25.539  0.00  0.00    -0.270 OA
ATOM      9  N   UNL     1      34.156 -12.078 -23.947  0.00  0.00    -0.297 N 
ATOM     10  C   UNL     1      33.680 -13.299 -24.439  0.00  0.00    +0.249 C 
ATOM     11  H   UNL     1      34.596 -12.071 -23.067  0.00  0.00    +0.150 HD
BRANCH   9  12
ATOM     12  C   UNL     1      34.034 -10.829 -24.663  0.00  0.00    +0.119 C 
BRANCH  12  15
ATOM     13 BR   UNL     1      31.854  -6.315 -21.065  0.00  0.00    -0.049 Br
ATOM     14  F   UNL     1      35.499  -8.480 -24.103  0.00  0.00    -0.204 F 
ATOM     15  C   UNL     1      33.506  -9.729 -23.789  0.00  0.00    +0.025 C 
ATOM     16  C   UNL     1      34.281  -8.600 -23.556  0.00  0.00    +0.138 C 
ATOM     17  C   UNL     1      32.244  -9.853 -23.220  0.00  0.00    +0.000 C 
ATOM     18  C   UNL     1      33.788  -7.580 -22.742  0.00  0.00    +0.036 C 
ATOM     19  C   UNL     1      31.751  -8.834 -22.406  0.00  0.00    +0.007 C 
ATOM     20  C   UNL     1      32.523  -7.697 -22.167  0.00  0.00    +0.037 C 
ENDBRANCH  12  15
ENDBRANCH   9  12
ENDBRANCH   2  10
BRANCH   3  21
ATOM     21  O   UNL     1      32.318 -13.600 -21.962  0.00  0.00    -0.464 OA
BRANCH  21  22
ATOM     22  C   UNL     1      32.394 -13.213 -20.592  0.00  0.00    +0.314 C 
BRANCH  22  24
ATOM     23  O   UNL     1      31.703 -11.177 -19.460  0.00  0.00    -0.246 OA
ATOM     24  C   UNL     1      31.552 -11.988 -20.361  0.00  0.00    +0.359 C 
BRANCH  24  25
ATOM     25  O   UNL     1      30.583 -11.902 -21.307  0.00  0.00    -0.478 OA
ATOM     26  H   UNL     1      29.976 -12.607 -21.422  0.00  0.00    +0.295 HD
ENDBRANCH  24  25
ENDBRANCH  22  24
ENDBRANCH  21  22
ENDBRANCH   3  21
TORSDOF 7
ENDMDL
