MODEL 1
REMARK VINA RESULT:      -7.8      0.000      0.000
REMARK  Name = 5288103
REMARK  5 active torsions:
REMARK  status: ('A' for Active; 'I' for Inactive)
REMARK    1  A    between atoms: C_1  and  N_3
REMARK    2  A    between atoms: C_1  and  C_9
REMARK    3  A    between atoms: N_3  and  C_6
REMARK    4  A    between atoms: C_6  and  C_7
REMARK    5  A    between atoms: C_9  and  C_10
REMARK                            x       y       z     vdW  Elec       q    Type
REMARK                         _______ _______ _______ _____ _____    ______ ____
ROOT
ATOM      1  C   UNL     1      35.328 -18.134 -23.214  0.00  0.00    -0.053 C 
ATOM      2  C   UNL     1      34.723 -19.115 -24.219  0.00  0.00    -0.023 C 
ENDROOT
BRANCH   1   3
ATOM      3  N   UNL     1      35.412 -16.816 -23.848  0.00  0.00    +0.390 N 
ATOM      4  C   UNL     1      34.916 -15.783 -22.942  0.00  0.00    -0.100 C 
ATOM      5  H   UNL     1      36.391 -16.616 -24.059  0.00  0.00    -0.079 HD
BRANCH   3   6
ATOM      6  C   UNL     1      34.660 -16.806 -25.101  0.00  0.00    -0.050 C 
BRANCH   6   7
ATOM      7  C   UNL     1      33.736 -15.629 -25.180  0.00  0.00    -0.049 C 
ATOM      8  C   UNL     1      33.035 -15.301 -26.271  0.00  0.00    -0.007 C 
ENDBRANCH   6   7
ENDBRANCH   3   6
ENDBRANCH   1   3
BRANCH   1   9
ATOM      9  C   UNL     1      34.499 -18.031 -21.920  0.00  0.00    +0.006 C 
BRANCH   9  10
ATOM     10  C   UNL     1      34.526 -19.286 -21.083  0.00  0.00    -0.024 C 
ATOM     11  C   UNL     1      33.331 -19.854 -20.672  0.00  0.00    -0.004 C 
ATOM     12  C   UNL     1      35.746 -19.847 -20.738  0.00  0.00    -0.004 C 
ATOM     13  C   UNL     1      33.356 -21.015 -19.898  0.00  0.00    -0.000 C 
ATOM     14  C   UNL     1      35.771 -21.007 -19.964  0.00  0.00    -0.000 C 
ATOM     15  C   UNL     1      34.575 -21.591 -19.544  0.00  0.00    -0.000 C 
ENDBRANCH   9  10
ENDBRANCH   1   9
TORSDOF 5
ENDMDL
MODEL 2
REMARK VINA RESULT:      -7.8      0.020      1.291
REMARK  Name = 5288103
REMARK  5 active torsions:
REMARK  status: ('A' for Active; 'I' for Inactive)
REMARK    1  A    between atoms: C_1  and  N_3
REMARK    2  A    between atoms: C_1  and  C_9
REMARK    3  A    between atoms: N_3  and  C_6
REMARK    4  A    between atoms: C_6  and  C_7
REMARK    5  A    between atoms: C_9  and  C_10
REMARK                            x       y       z     vdW  Elec       q    Type
REMARK                         _______ _______ _______ _____ _____    ______ ____
ROOT
ATOM      1  C   UNL     1      35.335 -18.121 -23.215  0.00  0.00    -0.053 C 
ATOM      2  C   UNL     1      34.730 -19.115 -24.208  0.00  0.00    -0.023 C 
ENDROOT
BRANCH   1   3
ATOM      3  N   UNL     1      35.406 -16.809 -23.862  0.00  0.00    +0.390 N 
ATOM      4  C   UNL     1      34.916 -15.770 -22.958  0.00  0.00    -0.100 C 
ATOM      5  H   UNL     1      36.381 -16.607 -24.084  0.00  0.00    -0.079 HD
BRANCH   3   6
ATOM      6  C   UNL     1      34.639 -16.812 -25.106  0.00  0.00    -0.050 C 
BRANCH   6   7
ATOM      7  C   UNL     1      33.736 -15.620 -25.199  0.00  0.00    -0.049 C 
ATOM      8  C   UNL     1      33.016 -15.312 -26.284  0.00  0.00    -0.007 C 
ENDBRANCH   6   7
ENDBRANCH   3   6
ENDBRANCH   1   3
BRANCH   1   9
ATOM      9  C   UNL     1      34.513 -18.013 -21.917  0.00  0.00    +0.006 C 
BRANCH   9  10
ATOM     10  C   UNL     1      34.532 -19.270 -21.083  0.00  0.00    -0.024 C 
ATOM     11  C   UNL     1      35.747 -19.829 -20.723  0.00  0.00    -0.004 C 
ATOM     12  C   UNL     1      33.332 -19.843 -20.691  0.00  0.00    -0.004 C 
ATOM     13  C   UNL     1      35.764 -20.992 -19.952  0.00  0.00    -0.000 C 
ATOM     14  C   UNL     1      33.348 -21.006 -19.920  0.00  0.00    -0.000 C 
ATOM     15  C   UNL     1      34.565 -21.579 -19.551  0.00  0.00    -0.000 C 
ENDBRANCH   9  10
ENDBRANCH   1   9
TORSDOF 5
ENDMDL
MODEL 3
REMARK VINA RESULT:      -7.4      1.491      2.451
REMARK  Name = 5288103
REMARK  5 active torsions:
REMARK  status: ('A' for Active; 'I' for Inactive)
REMARK    1  A    between atoms: C_1  and  N_3
REMARK    2  A    between atoms: C_1  and  C_9
REMARK    3  A    between atoms: N_3  and  C_6
REMARK    4  A    between atoms: C_6  and  C_7
REMARK    5  A    between atoms: C_9  and  C_10
REMARK                            x       y       z     vdW  Elec       q    Type
REMARK                         _______ _______ _______ _____ _____    ______ ____
ROOT
ATOM      1  C   UNL     1      34.768 -18.399 -22.336  0.00  0.00    -0.053 C 
ATOM      2  C   UNL     1      34.858 -18.824 -23.802  0.00  0.00    -0.023 C 
ENDROOT
BRANCH   1   3
ATOM      3  N   UNL     1      34.463 -16.967 -22.288  0.00  0.00    +0.390 N 
ATOM      4  C   UNL     1      35.095 -16.275 -23.410  0.00  0.00    -0.100 C 
ATOM      5  H   UNL     1      33.453 -16.845 -22.363  0.00  0.00    -0.079 HD
BRANCH   3   6
ATOM      6  C   UNL     1      34.904 -16.396 -21.017  0.00  0.00    -0.050 C 
BRANCH   6   7
ATOM      7  C   UNL     1      34.000 -15.289 -20.567  0.00  0.00    -0.049 C 
ATOM      8  C   UNL     1      32.668 -15.318 -20.686  0.00  0.00    -0.007 C 
ENDBRANCH   6   7
ENDBRANCH   3   6
ENDBRANCH   1   3
BRANCH   1   9
ATOM      9  C   UNL     1      33.692 -19.181 -21.561  0.00  0.00    +0.006 C 
BRANCH   9  10
ATOM     10  C   UNL     1      34.258 -20.200 -20.602  0.00  0.00    -0.024 C 
ATOM     11  C   UNL     1      33.394 -21.020 -19.894  0.00  0.00    -0.004 C 
ATOM     12  C   UNL     1      35.632 -20.297 -20.446  0.00  0.00    -0.004 C 
ATOM     13  C   UNL     1      33.917 -21.961 -19.007  0.00  0.00    -0.000 C 
ATOM     14  C   UNL     1      36.155 -21.238 -19.559  0.00  0.00    -0.000 C 
ATOM     15  C   UNL     1      35.297 -22.071 -18.840  0.00  0.00    -0.000 C 
ENDBRANCH   9  10
ENDBRANCH   1   9
TORSDOF 5
ENDMDL
MODEL 4
REMARK VINA RESULT:      -7.3      1.198      2.070
REMARK  Name = 5288103
REMARK  5 active torsions:
REMARK  status: ('A' for Active; 'I' for Inactive)
REMARK    1  A    between atoms: C_1  and  N_3
REMARK    2  A    between atoms: C_1  and  C_9
REMARK    3  A    between atoms: N_3  and  C_6
REMARK    4  A    between atoms: C_6  and  C_7
REMARK    5  A    between atoms: C_9  and  C_10
REMARK                            x       y       z     vdW  Elec       q    Type
REMARK                         _______ _______ _______ _____ _____    ______ ____
ROOT
ATOM      1  C   UNL     1      34.543 -16.750 -21.767  0.00  0.00    -0.053 C 
ATOM      2  C   UNL     1      34.588 -15.747 -20.614  0.00  0.00    -0.023 C 
ENDROOT
BRANCH   1   3
ATOM      3  N   UNL     1      34.850 -16.038 -23.010  0.00  0.00    +0.390 N 
ATOM      4  C   UNL     1      34.597 -14.608 -22.853  0.00  0.00    -0.100 C 
ATOM      5  H   UNL     1      35.839 -16.168 -23.226  0.00  0.00    -0.079 HD
BRANCH   3   6
ATOM      6  C   UNL     1      34.062 -16.581 -24.115  0.00  0.00    -0.050 C 
BRANCH   6   7
ATOM      7  C   UNL     1      34.804 -17.660 -24.843  0.00  0.00    -0.049 C 
ATOM      8  C   UNL     1      34.438 -18.947 -24.846  0.00  0.00    -0.007 C 
ENDBRANCH   6   7
ENDBRANCH   3   6
ENDBRANCH   1   3
BRANCH   1   9
ATOM      9  C   UNL     1      35.539 -17.909 -21.578  0.00  0.00    +0.006 C 
BRANCH   9  10
ATOM     10  C   UNL     1      34.926 -19.135 -20.945  0.00  0.00    -0.024 C 
ATOM     11  C   UNL     1      33.547 -19.259 -20.899  0.00  0.00    -0.004 C 
ATOM     12  C   UNL     1      35.755 -20.115 -20.421  0.00  0.00    -0.004 C 
ATOM     13  C   UNL     1      32.981 -20.391 -20.313  0.00  0.00    -0.000 C 
ATOM     14  C   UNL     1      35.189 -21.248 -19.836  0.00  0.00    -0.000 C 
ATOM     15  C   UNL     1      33.802 -21.386 -19.783  0.00  0.00    -0.000 C 
ENDBRANCH   9  10
ENDBRANCH   1   9
TORSDOF 5
ENDMDL
MODEL 5
REMARK VINA RESULT:      -7.3      1.073      1.597
REMARK  Name = 5288103
REMARK  5 active torsions:
REMARK  status: ('A' for Active; 'I' for Inactive)
REMARK    1  A    between atoms: C_1  and  N_3
REMARK    2  A    between atoms: C_1  and  C_9
REMARK    3  A    between atoms: N_3  and  C_6
REMARK    4  A    between atoms: C_6  and  C_7
REMARK    5  A    between atoms: C_9  and  C_10
REMARK                            x       y       z     vdW  Elec       q    Type
REMARK                         _______ _______ _______ _____ _____    ______ ____
ROOT
ATOM      1  C   UNL     1      34.443 -16.687 -21.995  0.00  0.00    -0.053 C 
ATOM      2  C   UNL     1      34.770 -16.053 -20.643  0.00  0.00    -0.023 C 
ENDROOT
BRANCH   1   3
ATOM      3  N   UNL     1      34.767 -15.721 -23.048  0.00  0.00    +0.390 N 
ATOM      4  C   UNL     1      34.321 -14.383 -22.665  0.00  0.00    -0.100 C 
ATOM      5  H   UNL     1      35.779 -15.699 -23.172  0.00  0.00    -0.079 HD
BRANCH   3   6
ATOM      6  C   UNL     1      34.156 -16.124 -24.313  0.00  0.00    -0.050 C 
BRANCH   6   7
ATOM      7  C   UNL     1      33.430 -14.985 -24.962  0.00  0.00    -0.049 C 
ATOM      8  C   UNL     1      33.036 -14.982 -26.241  0.00  0.00    -0.007 C 
ENDBRANCH   6   7
ENDBRANCH   3   6
ENDBRANCH   1   3
BRANCH   1   9
ATOM      9  C   UNL     1      35.221 -17.993 -22.237  0.00  0.00    +0.006 C 
BRANCH   9  10
ATOM     10  C   UNL     1      34.793 -19.128 -21.339  0.00  0.00    -0.024 C 
ATOM     11  C   UNL     1      33.442 -19.367 -21.143  0.00  0.00    -0.004 C 
ATOM     12  C   UNL     1      35.759 -19.910 -20.725  0.00  0.00    -0.004 C 
ATOM     13  C   UNL     1      33.046 -20.415 -20.312  0.00  0.00    -0.000 C 
ATOM     14  C   UNL     1      35.363 -20.959 -19.894  0.00  0.00    -0.000 C 
ATOM     15  C   UNL     1      34.006 -21.211 -19.689  0.00  0.00    -0.000 C 
ENDBRANCH   9  10
ENDBRANCH   1   9
TORSDOF 5
ENDMDL
MODEL 6
REMARK VINA RESULT:      -6.9      4.533      8.172
REMARK  Name = 5288103
REMARK  5 active torsions:
REMARK  status: ('A' for Active; 'I' for Inactive)
REMARK    1  A    between atoms: C_1  and  N_3
REMARK    2  A    between atoms: C_1  and  C_9
REMARK    3  A    between atoms: N_3  and  C_6
REMARK    4  A    between atoms: C_6  and  C_7
REMARK    5  A    between atoms: C_9  and  C_10
REMARK                            x       y       z     vdW  Elec       q    Type
REMARK                         _______ _______ _______ _____ _____    ______ ____
ROOT
ATOM      1  C   UNL     1      33.348 -22.934 -16.785  0.00  0.00    -0.053 C 
ATOM      2  C   UNL     1      31.905 -23.314 -16.456  0.00  0.00    -0.023 C 
ENDROOT
BRANCH   1   3
ATOM      3  N   UNL     1      34.233 -23.617 -15.838  0.00  0.00    +0.390 N 
ATOM      4  C   UNL     1      33.455 -24.213 -14.756  0.00  0.00    -0.100 C 
ATOM      5  H   UNL     1      34.725 -24.364 -16.330  0.00  0.00    -0.079 HD
BRANCH   3   6
ATOM      6  C   UNL     1      35.225 -22.684 -15.306  0.00  0.00    -0.050 C 
BRANCH   6   7
ATOM      7  C   UNL     1      36.581 -22.927 -15.894  0.00  0.00    -0.049 C 
ATOM      8  C   UNL     1      37.320 -21.981 -16.485  0.00  0.00    -0.007 C 
ENDBRANCH   6   7
ENDBRANCH   3   6
ENDBRANCH   1   3
BRANCH   1   9
ATOM      9  C   UNL     1      33.743 -23.313 -18.225  0.00  0.00    +0.006 C 
BRANCH   9  10
ATOM     10  C   UNL     1      34.029 -22.123 -19.107  0.00  0.00    -0.024 C 
ATOM     11  C   UNL     1      35.335 -21.853 -19.484  0.00  0.00    -0.004 C 
ATOM     12  C   UNL     1      32.979 -21.319 -19.525  0.00  0.00    -0.004 C 
ATOM     13  C   UNL     1      35.599 -20.753 -20.299  0.00  0.00    -0.000 C 
ATOM     14  C   UNL     1      33.243 -20.218 -20.340  0.00  0.00    -0.000 C 
ATOM     15  C   UNL     1      34.553 -19.936 -20.727  0.00  0.00    -0.000 C 
ENDBRANCH   9  10
ENDBRANCH   1   9
TORSDOF 5
ENDMDL
MODEL 7
REMARK VINA RESULT:      -6.8      2.061      6.284
REMARK  Name = 5288103
REMARK  5 active torsions:
REMARK  status: ('A' for Active; 'I' for Inactive)
REMARK    1  A    between atoms: C_1  and  N_3
REMARK    2  A    between atoms: C_1  and  C_9
REMARK    3  A    between atoms: N_3  and  C_6
REMARK    4  A    between atoms: C_6  and  C_7
REMARK    5  A    between atoms: C_9  and  C_10
REMARK                            x       y       z     vdW  Elec       q    Type
REMARK                         _______ _______ _______ _____ _____    ______ ____
ROOT
ATOM      1  C   UNL     1      34.512 -20.015 -20.477  0.00  0.00    -0.053 C 
ATOM      2  C   UNL     1      32.989 -20.141 -20.532  0.00  0.00    -0.023 C 
ENDROOT
BRANCH   1   3
ATOM      3  N   UNL     1      35.068 -21.307 -20.067  0.00  0.00    +0.390 N 
ATOM      4  C   UNL     1      34.099 -22.043 -19.257  0.00  0.00    -0.100 C 
ATOM      5  H   UNL     1      35.270 -21.856 -20.903  0.00  0.00    -0.079 HD
BRANCH   3   6
ATOM      6  C   UNL     1      36.314 -21.113 -19.329  0.00  0.00    -0.050 C 
BRANCH   6   7
ATOM      7  C   UNL     1      36.299 -21.843 -18.020  0.00  0.00    -0.049 C 
ATOM      8  C   UNL     1      37.087 -21.535 -16.984  0.00  0.00    -0.007 C 
ENDBRANCH   6   7
ENDBRANCH   3   6
ENDBRANCH   1   3
BRANCH   1   9
ATOM      9  C   UNL     1      35.117 -19.600 -21.831  0.00  0.00    +0.006 C 
BRANCH   9  10
ATOM     10  C   UNL     1      34.957 -18.132 -22.140  0.00  0.00    -0.024 C 
ATOM     11  C   UNL     1      34.854 -17.225 -21.098  0.00  0.00    -0.004 C 
ATOM     12  C   UNL     1      34.916 -17.716 -23.462  0.00  0.00    -0.004 C 
ATOM     13  C   UNL     1      34.705 -15.868 -21.384  0.00  0.00    -0.000 C 
ATOM     14  C   UNL     1      34.768 -16.359 -23.749  0.00  0.00    -0.000 C 
ATOM     15  C   UNL     1      34.662 -15.435 -22.709  0.00  0.00    -0.000 C 
ENDBRANCH   9  10
ENDBRANCH   1   9
TORSDOF 5
ENDMDL
MODEL 8
REMARK VINA RESULT:      -6.8      1.889      5.767
REMARK  Name = 5288103
REMARK  5 active torsions:
REMARK  status: ('A' for Active; 'I' for Inactive)
REMARK    1  A    between atoms: C_1  and  N_3
REMARK    2  A    between atoms: C_1  and  C_9
REMARK    3  A    between atoms: N_3  and  C_6
REMARK    4  A    between atoms: C_6  and  C_7
REMARK    5  A    between atoms: C_9  and  C_10
REMARK                            x       y       z     vdW  Elec       q    Type
REMARK                         _______ _______ _______ _____ _____    ______ ____
ROOT
ATOM      1  C   UNL     1      34.389 -18.673 -22.356  0.00  0.00    -0.053 C 
ATOM      2  C   UNL     1      35.137 -19.005 -23.647  0.00  0.00    -0.023 C 
ENDROOT
BRANCH   1   3
ATOM      3  N   UNL     1      34.386 -19.863 -21.503  0.00  0.00    +0.390 N 
ATOM      4  C   UNL     1      33.172 -19.905 -20.691  0.00  0.00    -0.100 C 
ATOM      5  H   UNL     1      34.404 -20.692 -22.098  0.00  0.00    -0.079 HD
BRANCH   3   6
ATOM      6  C   UNL     1      35.575 -19.881 -20.652  0.00  0.00    -0.050 C 
BRANCH   6   7
ATOM      7  C   UNL     1      35.790 -21.229 -20.034  0.00  0.00    -0.049 C 
ATOM      8  C   UNL     1      36.449 -21.428 -18.887  0.00  0.00    -0.007 C 
ENDBRANCH   6   7
ENDBRANCH   3   6
ENDBRANCH   1   3
BRANCH   1   9
ATOM      9  C   UNL     1      35.023 -17.494 -21.594  0.00  0.00    +0.006 C 
BRANCH   9  10
ATOM     10  C   UNL     1      34.307 -16.182 -21.804  0.00  0.00    -0.024 C 
ATOM     11  C   UNL     1      33.296 -15.813 -20.931  0.00  0.00    -0.004 C 
ATOM     12  C   UNL     1      34.672 -15.371 -22.867  0.00  0.00    -0.004 C 
ATOM     13  C   UNL     1      32.634 -14.601 -21.125  0.00  0.00    -0.000 C 
ATOM     14  C   UNL     1      34.010 -14.159 -23.061  0.00  0.00    -0.000 C 
ATOM     15  C   UNL     1      32.991 -13.774 -22.189  0.00  0.00    -0.000 C 
ENDBRANCH   9  10
ENDBRANCH   1   9
TORSDOF 5
ENDMDL
MODEL 9
REMARK VINA RESULT:      -6.8      2.160      6.252
REMARK  Name = 5288103
REMARK  5 active torsions:
REMARK  status: ('A' for Active; 'I' for Inactive)
REMARK    1  A    between atoms: C_1  and  N_3
REMARK    2  A    between atoms: C_1  and  C_9
REMARK    3  A    between atoms: N_3  and  C_6
REMARK    4  A    between atoms: C_6  and  C_7
REMARK    5  A    between atoms: C_9  and  C_10
REMARK                            x       y       z     vdW  Elec       q    Type
REMARK                         _______ _______ _______ _____ _____    ______ ____
ROOT
ATOM      1  C   UNL     1      35.501 -20.490 -20.539  0.00  0.00    -0.053 C 
ATOM      2  C   UNL     1      36.827 -19.733 -20.456  0.00  0.00    -0.023 C 
ENDROOT
BRANCH   1   3
ATOM      3  N   UNL     1      35.285 -21.184 -19.267  0.00  0.00    +0.390 N 
ATOM      4  C   UNL     1      36.565 -21.524 -18.651  0.00  0.00    -0.100 C 
ATOM      5  H   UNL     1      34.780 -20.561 -18.637  0.00  0.00    -0.079 HD
BRANCH   3   6
ATOM      6  C   UNL     1      34.478 -22.384 -19.475  0.00  0.00    -0.050 C 
BRANCH   6   7
ATOM      7  C   UNL     1      33.364 -22.479 -18.477  0.00  0.00    -0.049 C 
ATOM      8  C   UNL     1      33.438 -23.177 -17.338  0.00  0.00    -0.007 C 
ENDBRANCH   6   7
ENDBRANCH   3   6
ENDBRANCH   1   3
BRANCH   1   9
ATOM      9  C   UNL     1      34.309 -19.559 -20.828  0.00  0.00    +0.006 C 
BRANCH   9  10
ATOM     10  C   UNL     1      34.521 -18.655 -22.017  0.00  0.00    -0.024 C 
ATOM     11  C   UNL     1      34.573 -17.283 -21.828  0.00  0.00    -0.004 C 
ATOM     12  C   UNL     1      34.658 -19.213 -23.279  0.00  0.00    -0.004 C 
ATOM     13  C   UNL     1      34.769 -16.448 -22.928  0.00  0.00    -0.000 C 
ATOM     14  C   UNL     1      34.854 -18.377 -24.379  0.00  0.00    -0.000 C 
ATOM     15  C   UNL     1      34.909 -16.995 -24.202  0.00  0.00    -0.000 C 
ENDBRANCH   9  10
ENDBRANCH   1   9
TORSDOF 5
ENDMDL
