MODEL 1
REMARK VINA RESULT:      -4.0      0.000      0.000
REMARK  Name = 439352
REMARK  7 active torsions:
REMARK  status: ('A' for Active; 'I' for Inactive)
REMARK    1  A    between atoms: C_1  and  O_2
REMARK    2  A    between atoms: C_1  and  C_4
REMARK    3  A    between atoms: C_1  and  C_10
REMARK    4  A    between atoms: C_4  and  O_5
REMARK    5  A    between atoms: C_4  and  C_7
REMARK    6  A    between atoms: C_7  and  S_8
REMARK    7  A    between atoms: C_10  and  S_11
REMARK                            x       y       z     vdW  Elec       q    Type
REMARK                         _______ _______ _______ _____ _____    ______ ____
ROOT
ATOM      1  C   UNL     1      36.949 -25.932 -15.081  0.00  0.00    +0.148 C 
ENDROOT
BRANCH   1   2
ATOM      2  O   UNL     1      36.446 -27.039 -15.827  0.00  0.00    -0.381 OA
ATOM      3  H   UNL     1      36.443 -26.819 -16.771  0.00  0.00    +0.210 HD
ENDBRANCH   1   2
BRANCH   1   4
ATOM      4  C   UNL     1      37.565 -26.414 -13.753  0.00  0.00    +0.148 C 
BRANCH   4   5
ATOM      5  O   UNL     1      36.579 -26.274 -12.730  0.00  0.00    -0.381 OA
ATOM      6  H   UNL     1      36.107 -27.115 -12.618  0.00  0.00    +0.210 HD
ENDBRANCH   4   5
BRANCH   4   7
ATOM      7  C   UNL     1      38.807 -25.599 -13.370  0.00  0.00    +0.085 C 
BRANCH   7   8
ATOM      8  S   UNL     1      39.986 -25.492 -14.755  0.00  0.00    -0.165 S 
ATOM      9  H   UNL     1      40.479 -26.730 -15.027  0.00  0.00    +0.102 HD
ENDBRANCH   7   8
ENDBRANCH   4   7
ENDBRANCH   1   4
BRANCH   1  10
ATOM     10  C   UNL     1      35.826 -24.892 -14.945  0.00  0.00    +0.085 C 
BRANCH  10  11
ATOM     11  S   UNL     1      36.314 -23.198 -15.403  0.00  0.00    -0.165 S 
ATOM     12  H   UNL     1      36.400 -23.101 -16.756  0.00  0.00    +0.102 HD
ENDBRANCH  10  11
ENDBRANCH   1  10
TORSDOF 7
ENDMDL
MODEL 2
REMARK VINA RESULT:      -3.9      2.109      2.420
REMARK  Name = 439352
REMARK  7 active torsions:
REMARK  status: ('A' for Active; 'I' for Inactive)
REMARK    1  A    between atoms: C_1  and  O_2
REMARK    2  A    between atoms: C_1  and  C_4
REMARK    3  A    between atoms: C_1  and  C_10
REMARK    4  A    between atoms: C_4  and  O_5
REMARK    5  A    between atoms: C_4  and  C_7
REMARK    6  A    between atoms: C_7  and  S_8
REMARK    7  A    between atoms: C_10  and  S_11
REMARK                            x       y       z     vdW  Elec       q    Type
REMARK                         _______ _______ _______ _____ _____    ______ ____
ROOT
ATOM      1  C   UNL     1      38.001 -25.872 -14.186  0.00  0.00    +0.148 C 
ENDROOT
BRANCH   1   2
ATOM      2  O   UNL     1      38.937 -26.841 -14.655  0.00  0.00    -0.381 OA
ATOM      3  H   UNL     1      38.834 -26.952 -15.613  0.00  0.00    +0.210 HD
ENDBRANCH   1   2
BRANCH   1   4
ATOM      4  C   UNL     1      38.030 -25.798 -12.646  0.00  0.00    +0.148 C 
BRANCH   4   5
ATOM      5  O   UNL     1      36.851 -26.432 -12.150  0.00  0.00    -0.381 OA
ATOM      6  H   UNL     1      37.077 -27.311 -11.806  0.00  0.00    +0.210 HD
ENDBRANCH   4   5
BRANCH   4   7
ATOM      7  C   UNL     1      38.072 -24.349 -12.146  0.00  0.00    +0.085 C 
BRANCH   7   8
ATOM      8  S   UNL     1      36.478 -23.850 -11.417  0.00  0.00    -0.165 S 
ATOM      9  H   UNL     1      35.478 -24.091 -12.306  0.00  0.00    +0.102 HD
ENDBRANCH   7   8
ENDBRANCH   4   7
ENDBRANCH   1   4
BRANCH   1  10
ATOM     10  C   UNL     1      36.629 -26.190 -14.802  0.00  0.00    +0.085 C 
BRANCH  10  11
ATOM     11  S   UNL     1      35.579 -24.728 -15.085  0.00  0.00    -0.165 S 
ATOM     12  H   UNL     1      35.637 -24.375 -16.396  0.00  0.00    +0.102 HD
ENDBRANCH  10  11
ENDBRANCH   1  10
TORSDOF 7
ENDMDL
MODEL 3
REMARK VINA RESULT:      -3.9      2.915      4.345
REMARK  Name = 439352
REMARK  7 active torsions:
REMARK  status: ('A' for Active; 'I' for Inactive)
REMARK    1  A    between atoms: C_1  and  O_2
REMARK    2  A    between atoms: C_1  and  C_4
REMARK    3  A    between atoms: C_1  and  C_10
REMARK    4  A    between atoms: C_4  and  O_5
REMARK    5  A    between atoms: C_4  and  C_7
REMARK    6  A    between atoms: C_7  and  S_8
REMARK    7  A    between atoms: C_10  and  S_11
REMARK                            x       y       z     vdW  Elec       q    Type
REMARK                         _______ _______ _______ _____ _____    ______ ____
ROOT
ATOM      1  C   UNL     1      36.950 -23.443 -12.067  0.00  0.00    +0.148 C 
ENDROOT
BRANCH   1   2
ATOM      2  O   UNL     1      37.326 -22.376 -11.198  0.00  0.00    -0.381 OA
ATOM      3  H   UNL     1      36.823 -21.580 -11.427  0.00  0.00    +0.210 HD
ENDBRANCH   1   2
BRANCH   1   4
ATOM      4  C   UNL     1      35.484 -23.850 -11.814  0.00  0.00    +0.148 C 
BRANCH   4   5
ATOM      5  O   UNL     1      35.480 -24.944 -10.897  0.00  0.00    -0.381 OA
ATOM      6  H   UNL     1      35.602 -24.609  -9.994  0.00  0.00    +0.210 HD
ENDBRANCH   4   5
BRANCH   4   7
ATOM      7  C   UNL     1      34.779 -24.274 -13.109  0.00  0.00    +0.085 C 
BRANCH   7   8
ATOM      8  S   UNL     1      35.400 -23.337 -14.543  0.00  0.00    -0.165 S 
ATOM      9  H   UNL     1      36.757 -23.407 -14.578  0.00  0.00    +0.102 HD
ENDBRANCH   7   8
ENDBRANCH   4   7
ENDBRANCH   1   4
BRANCH   1  10
ATOM     10  C   UNL     1      37.980 -24.574 -11.915  0.00  0.00    +0.085 C 
BRANCH  10  11
ATOM     11  S   UNL     1      38.667 -25.177 -13.491  0.00  0.00    -0.165 S 
ATOM     12  H   UNL     1      39.628 -24.319 -13.924  0.00  0.00    +0.102 HD
ENDBRANCH  10  11
ENDBRANCH   1  10
TORSDOF 7
ENDMDL
MODEL 4
REMARK VINA RESULT:      -3.9      2.334      3.905
REMARK  Name = 439352
REMARK  7 active torsions:
REMARK  status: ('A' for Active; 'I' for Inactive)
REMARK    1  A    between atoms: C_1  and  O_2
REMARK    2  A    between atoms: C_1  and  C_4
REMARK    3  A    between atoms: C_1  and  C_10
REMARK    4  A    between atoms: C_4  and  O_5
REMARK    5  A    between atoms: C_4  and  C_7
REMARK    6  A    between atoms: C_7  and  S_8
REMARK    7  A    between atoms: C_10  and  S_11
REMARK                            x       y       z     vdW  Elec       q    Type
REMARK                         _______ _______ _______ _____ _____    ______ ____
ROOT
ATOM      1  C   UNL     1      38.065 -25.373 -12.461  0.00  0.00    +0.148 C 
ENDROOT
BRANCH   1   2
ATOM      2  O   UNL     1      37.161 -26.280 -11.832  0.00  0.00    -0.381 OA
ATOM      3  H   UNL     1      36.638 -25.806 -11.166  0.00  0.00    +0.210 HD
ENDBRANCH   1   2
BRANCH   1   4
ATOM      4  C   UNL     1      37.517 -23.933 -12.388  0.00  0.00    +0.148 C 
BRANCH   4   5
ATOM      5  O   UNL     1      38.431 -23.150 -11.620  0.00  0.00    -0.381 OA
ATOM      6  H   UNL     1      38.901 -23.724 -10.993  0.00  0.00    +0.210 HD
ENDBRANCH   4   5
BRANCH   4   7
ATOM      7  C   UNL     1      36.133 -23.883 -11.728  0.00  0.00    +0.085 C 
BRANCH   7   8
ATOM      8  S   UNL     1      34.802 -24.091 -12.956  0.00  0.00    -0.165 S 
ATOM      9  H   UNL     1      34.859 -23.079 -13.862  0.00  0.00    +0.102 HD
ENDBRANCH   7   8
ENDBRANCH   4   7
ENDBRANCH   1   4
BRANCH   1  10
ATOM     10  C   UNL     1      38.360 -25.892 -13.877  0.00  0.00    +0.085 C 
BRANCH  10  11
ATOM     11  S   UNL     1      40.063 -25.581 -14.447  0.00  0.00    -0.165 S 
ATOM     12  H   UNL     1      40.392 -24.285 -14.206  0.00  0.00    +0.102 HD
ENDBRANCH  10  11
ENDBRANCH   1  10
TORSDOF 7
ENDMDL
MODEL 5
REMARK VINA RESULT:      -3.8     10.477     11.878
REMARK  Name = 439352
REMARK  7 active torsions:
REMARK  status: ('A' for Active; 'I' for Inactive)
REMARK    1  A    between atoms: C_1  and  O_2
REMARK    2  A    between atoms: C_1  and  C_4
REMARK    3  A    between atoms: C_1  and  C_10
REMARK    4  A    between atoms: C_4  and  O_5
REMARK    5  A    between atoms: C_4  and  C_7
REMARK    6  A    between atoms: C_7  and  S_8
REMARK    7  A    between atoms: C_10  and  S_11
REMARK                            x       y       z     vdW  Elec       q    Type
REMARK                         _______ _______ _______ _____ _____    ______ ____
ROOT
ATOM      1  C   UNL     1      35.387 -17.998 -22.028  0.00  0.00    +0.148 C 
ENDROOT
BRANCH   1   2
ATOM      2  O   UNL     1      35.631 -17.932 -20.624  0.00  0.00    -0.381 OA
ATOM      3  H   UNL     1      36.372 -17.332 -20.452  0.00  0.00    +0.210 HD
ENDBRANCH   1   2
BRANCH   1   4
ATOM      4  C   UNL     1      34.773 -16.675 -22.529  0.00  0.00    +0.148 C 
BRANCH   4   5
ATOM      5  O   UNL     1      35.659 -16.115 -23.497  0.00  0.00    -0.381 OA
ATOM      6  H   UNL     1      35.200 -15.414 -23.988  0.00  0.00    +0.210 HD
ENDBRANCH   4   5
BRANCH   4   7
ATOM      7  C   UNL     1      34.575 -15.671 -21.386  0.00  0.00    +0.085 C 
BRANCH   7   8
ATOM      8  S   UNL     1      32.813 -15.490 -20.958  0.00  0.00    -0.165 S 
ATOM      9  H   UNL     1      32.241 -16.719 -20.859  0.00  0.00    +0.102 HD
ENDBRANCH   7   8
ENDBRANCH   4   7
ENDBRANCH   1   4
BRANCH   1  10
ATOM     10  C   UNL     1      34.555 -19.258 -22.314  0.00  0.00    +0.085 C 
BRANCH  10  11
ATOM     11  S   UNL     1      33.481 -19.775 -20.935  0.00  0.00    -0.165 S 
ATOM     12  H   UNL     1      34.172 -19.691 -19.768  0.00  0.00    +0.102 HD
ENDBRANCH  10  11
ENDBRANCH   1  10
TORSDOF 7
ENDMDL
MODEL 6
REMARK VINA RESULT:      -3.8     11.570     12.610
REMARK  Name = 439352
REMARK  7 active torsions:
REMARK  status: ('A' for Active; 'I' for Inactive)
REMARK    1  A    between atoms: C_1  and  O_2
REMARK    2  A    between atoms: C_1  and  C_4
REMARK    3  A    between atoms: C_1  and  C_10
REMARK    4  A    between atoms: C_4  and  O_5
REMARK    5  A    between atoms: C_4  and  C_7
REMARK    6  A    between atoms: C_7  and  S_8
REMARK    7  A    between atoms: C_10  and  S_11
REMARK                            x       y       z     vdW  Elec       q    Type
REMARK                         _______ _______ _______ _____ _____    ______ ____
ROOT
ATOM      1  C   UNL     1      34.747 -15.461 -22.539  0.00  0.00    +0.148 C 
ENDROOT
BRANCH   1   2
ATOM      2  O   UNL     1      35.587 -16.178 -23.442  0.00  0.00    -0.381 OA
ATOM      3  H   UNL     1      36.165 -15.554 -23.910  0.00  0.00    +0.210 HD
ENDBRANCH   1   2
BRANCH   1   4
ATOM      4  C   UNL     1      34.500 -16.291 -21.263  0.00  0.00    +0.148 C 
BRANCH   4   5
ATOM      5  O   UNL     1      34.893 -15.504 -20.139  0.00  0.00    -0.381 OA
ATOM      6  H   UNL     1      34.262 -15.638 -19.414  0.00  0.00    +0.210 HD
ENDBRANCH   4   5
BRANCH   4   7
ATOM      7  C   UNL     1      35.304 -17.598 -21.268  0.00  0.00    +0.085 C 
BRANCH   7   8
ATOM      8  S   UNL     1      34.209 -19.054 -21.290  0.00  0.00    -0.165 S 
ATOM      9  H   UNL     1      33.389 -19.021 -20.206  0.00  0.00    +0.102 HD
ENDBRANCH   7   8
ENDBRANCH   4   7
ENDBRANCH   1   4
BRANCH   1  10
ATOM     10  C   UNL     1      33.482 -15.030 -23.297  0.00  0.00    +0.085 C 
BRANCH  10  11
ATOM     11  S   UNL     1      32.537 -13.703 -22.481  0.00  0.00    -0.165 S 
ATOM     12  H   UNL     1      33.181 -12.518 -22.650  0.00  0.00    +0.102 HD
ENDBRANCH  10  11
ENDBRANCH   1  10
TORSDOF 7
ENDMDL
MODEL 7
REMARK VINA RESULT:      -3.8     11.249     12.586
REMARK  Name = 439352
REMARK  7 active torsions:
REMARK  status: ('A' for Active; 'I' for Inactive)
REMARK    1  A    between atoms: C_1  and  O_2
REMARK    2  A    between atoms: C_1  and  C_4
REMARK    3  A    between atoms: C_1  and  C_10
REMARK    4  A    between atoms: C_4  and  O_5
REMARK    5  A    between atoms: C_4  and  C_7
REMARK    6  A    between atoms: C_7  and  S_8
REMARK    7  A    between atoms: C_10  and  S_11
REMARK                            x       y       z     vdW  Elec       q    Type
REMARK                         _______ _______ _______ _____ _____    ______ ____
ROOT
ATOM      1  C   UNL     1      34.885 -16.686 -22.493  0.00  0.00    +0.148 C 
ENDROOT
BRANCH   1   2
ATOM      2  O   UNL     1      35.647 -16.076 -23.533  0.00  0.00    -0.381 OA
ATOM      3  H   UNL     1      36.414 -16.633 -23.741  0.00  0.00    +0.210 HD
ENDBRANCH   1   2
BRANCH   1   4
ATOM      4  C   UNL     1      34.558 -15.656 -21.393  0.00  0.00    +0.148 C 
BRANCH   4   5
ATOM      5  O   UNL     1      35.066 -16.154 -20.155  0.00  0.00    -0.381 OA
ATOM      6  H   UNL     1      36.019 -15.974 -20.100  0.00  0.00    +0.210 HD
ENDBRANCH   4   5
BRANCH   4   7
ATOM      7  C   UNL     1      33.048 -15.422 -21.260  0.00  0.00    +0.085 C 
BRANCH   7   8
ATOM      8  S   UNL     1      32.535 -13.890 -22.102  0.00  0.00    -0.165 S 
ATOM      9  H   UNL     1      33.284 -12.850 -21.647  0.00  0.00    +0.102 HD
ENDBRANCH   7   8
ENDBRANCH   4   7
ENDBRANCH   1   4
BRANCH   1  10
ATOM     10  C   UNL     1      35.635 -17.939 -22.017  0.00  0.00    +0.085 C 
BRANCH  10  11
ATOM     11  S   UNL     1      34.571 -19.396 -21.758  0.00  0.00    -0.165 S 
ATOM     12  H   UNL     1      33.625 -19.443 -22.733  0.00  0.00    +0.102 HD
ENDBRANCH  10  11
ENDBRANCH   1  10
TORSDOF 7
ENDMDL
MODEL 8
REMARK VINA RESULT:      -3.7     11.310     12.225
REMARK  Name = 439352
REMARK  7 active torsions:
REMARK  status: ('A' for Active; 'I' for Inactive)
REMARK    1  A    between atoms: C_1  and  O_2
REMARK    2  A    between atoms: C_1  and  C_4
REMARK    3  A    between atoms: C_1  and  C_10
REMARK    4  A    between atoms: C_4  and  O_5
REMARK    5  A    between atoms: C_4  and  C_7
REMARK    6  A    between atoms: C_7  and  S_8
REMARK    7  A    between atoms: C_10  and  S_11
REMARK                            x       y       z     vdW  Elec       q    Type
REMARK                         _______ _______ _______ _____ _____    ______ ____
ROOT
ATOM      1  C   UNL     1      34.962 -17.448 -21.438  0.00  0.00    +0.148 C 
ENDROOT
BRANCH   1   2
ATOM      2  O   UNL     1      35.732 -18.164 -20.474  0.00  0.00    -0.381 OA
ATOM      3  H   UNL     1      36.672 -17.953 -20.590  0.00  0.00    +0.210 HD
ENDBRANCH   1   2
BRANCH   1   4
ATOM      4  C   UNL     1      35.650 -17.497 -22.817  0.00  0.00    +0.148 C 
BRANCH   4   5
ATOM      5  O   UNL     1      35.667 -16.173 -23.352  0.00  0.00    -0.381 OA
ATOM      6  H   UNL     1      34.793 -15.767 -23.236  0.00  0.00    +0.210 HD
ENDBRANCH   4   5
BRANCH   4   7
ATOM      7  C   UNL     1      34.910 -18.424 -23.791  0.00  0.00    +0.085 C 
BRANCH   7   8
ATOM      8  S   UNL     1      34.363 -17.525 -25.279  0.00  0.00    -0.165 S 
ATOM      9  H   UNL     1      33.154 -18.003 -25.678  0.00  0.00    +0.102 HD
ENDBRANCH   7   8
ENDBRANCH   4   7
ENDBRANCH   1   4
BRANCH   1  10
ATOM     10  C   UNL     1      34.692 -16.038 -20.889  0.00  0.00    +0.085 C 
BRANCH  10  11
ATOM     11  S   UNL     1      32.945 -15.526 -20.970  0.00  0.00    -0.165 S 
ATOM     12  H   UNL     1      32.341 -15.789 -19.782  0.00  0.00    +0.102 HD
ENDBRANCH  10  11
ENDBRANCH   1  10
TORSDOF 7
ENDMDL
MODEL 9
REMARK VINA RESULT:      -3.7     11.448     12.617
REMARK  Name = 439352
REMARK  7 active torsions:
REMARK  status: ('A' for Active; 'I' for Inactive)
REMARK    1  A    between atoms: C_1  and  O_2
REMARK    2  A    between atoms: C_1  and  C_4
REMARK    3  A    between atoms: C_1  and  C_10
REMARK    4  A    between atoms: C_4  and  O_5
REMARK    5  A    between atoms: C_4  and  C_7
REMARK    6  A    between atoms: C_7  and  S_8
REMARK    7  A    between atoms: C_10  and  S_11
REMARK                            x       y       z     vdW  Elec       q    Type
REMARK                         _______ _______ _______ _____ _____    ______ ____
ROOT
ATOM      1  C   UNL     1      34.438 -15.875 -21.620  0.00  0.00    +0.148 C 
ENDROOT
BRANCH   1   2
ATOM      2  O   UNL     1      34.915 -15.710 -20.285  0.00  0.00    -0.381 OA
ATOM      3  H   UNL     1      35.536 -16.424 -20.072  0.00  0.00    +0.210 HD
ENDBRANCH   1   2
BRANCH   1   4
ATOM      4  C   UNL     1      35.351 -16.844 -22.399  0.00  0.00    +0.148 C 
BRANCH   4   5
ATOM      5  O   UNL     1      35.714 -16.217 -23.629  0.00  0.00    -0.381 OA
ATOM      6  H   UNL     1      34.932 -16.148 -24.200  0.00  0.00    +0.210 HD
ENDBRANCH   4   5
BRANCH   4   7
ATOM      7  C   UNL     1      34.646 -18.173 -22.699  0.00  0.00    +0.085 C 
BRANCH   7   8
ATOM      8  S   UNL     1      34.645 -19.270 -21.244  0.00  0.00    -0.165 S 
ATOM      9  H   UNL     1      33.650 -18.898 -20.396  0.00  0.00    +0.102 HD
ENDBRANCH   7   8
ENDBRANCH   4   7
ENDBRANCH   1   4
BRANCH   1  10
ATOM     10  C   UNL     1      34.272 -14.482 -22.247  0.00  0.00    +0.085 C 
BRANCH  10  11
ATOM     11  S   UNL     1      32.563 -13.851 -22.224  0.00  0.00    -0.165 S 
ATOM     12  H   UNL     1      32.103 -13.741 -23.499  0.00  0.00    +0.102 HD
ENDBRANCH  10  11
ENDBRANCH   1  10
TORSDOF 7
ENDMDL
