MODEL 1
REMARK VINA RESULT:      -4.0      0.000      0.000
REMARK  Name = 4033
REMARK  4 active torsions:
REMARK  status: ('A' for Active; 'I' for Inactive)
REMARK    1  A    between atoms: N_1  and  C_4
REMARK    2  A    between atoms: N_1  and  C_7
REMARK    3  A    between atoms: C_4  and  C_6
REMARK    4  A    between atoms: C_7  and  C_9
REMARK                            x       y       z     vdW  Elec       q    Type
REMARK                         _______ _______ _______ _____ _____    ______ ____
ROOT
ATOM      1  N   UNL     1      35.484 -16.809 -23.539  0.00  0.00    +0.387 N 
ATOM      2  C   UNL     1      34.792 -17.356 -24.706  0.00  0.00    -0.101 C 
ATOM      3  H   UNL     1      36.401 -16.478 -23.833  0.00  0.00    -0.080 HD
ENDROOT
BRANCH   1   4
ATOM      4  C   UNL     1      35.668 -17.843 -22.521  0.00  0.00    -0.060 C 
BRANCH   4   6
ATOM      5 CL   UNL     1      33.846 -19.582 -21.514  0.00  0.00    -0.116 Cl
ATOM      6  C   UNL     1      34.862 -19.081 -22.887  0.00  0.00    +0.072 C 
ENDBRANCH   4   6
ENDBRANCH   1   4
BRANCH   1   7
ATOM      7  C   UNL     1      34.739 -15.678 -22.988  0.00  0.00    -0.060 C 
BRANCH   7   9
ATOM      8 CL   UNL     1      32.951 -15.833 -20.953  0.00  0.00    -0.116 Cl
ATOM      9  C   UNL     1      34.652 -15.799 -21.474  0.00  0.00    +0.072 C 
ENDBRANCH   7   9
ENDBRANCH   1   7
TORSDOF 4
ENDMDL
MODEL 2
REMARK VINA RESULT:      -4.0      2.114      3.680
REMARK  Name = 4033
REMARK  4 active torsions:
REMARK  status: ('A' for Active; 'I' for Inactive)
REMARK    1  A    between atoms: N_1  and  C_4
REMARK    2  A    between atoms: N_1  and  C_7
REMARK    3  A    between atoms: C_4  and  C_6
REMARK    4  A    between atoms: C_7  and  C_9
REMARK                            x       y       z     vdW  Elec       q    Type
REMARK                         _______ _______ _______ _____ _____    ______ ____
ROOT
ATOM      1  N   UNL     1      35.401 -17.423 -23.978  0.00  0.00    +0.387 N 
ATOM      2  C   UNL     1      35.165 -16.494 -22.873  0.00  0.00    -0.101 C 
ATOM      3  H   UNL     1      36.393 -17.405 -24.209  0.00  0.00    -0.080 HD
ENDROOT
BRANCH   1   4
ATOM      4  C   UNL     1      34.641 -17.017 -25.159  0.00  0.00    -0.060 C 
BRANCH   4   6
ATOM      5 CL   UNL     1      32.963 -15.221 -26.308  0.00  0.00    -0.116 Cl
ATOM      6  C   UNL     1      33.847 -15.755 -24.858  0.00  0.00    +0.072 C 
ENDBRANCH   4   6
ENDBRANCH   1   4
BRANCH   1   7
ATOM      7  C   UNL     1      35.043 -18.785 -23.584  0.00  0.00    -0.060 C 
BRANCH   7   9
ATOM      8 CL   UNL     1      33.787 -19.621 -21.329  0.00  0.00    -0.116 Cl
ATOM      9  C   UNL     1      35.258 -18.969 -22.089  0.00  0.00    +0.072 C 
ENDBRANCH   7   9
ENDBRANCH   1   7
TORSDOF 4
ENDMDL
MODEL 3
REMARK VINA RESULT:      -4.0      2.285      3.565
REMARK  Name = 4033
REMARK  4 active torsions:
REMARK  status: ('A' for Active; 'I' for Inactive)
REMARK    1  A    between atoms: N_1  and  C_4
REMARK    2  A    between atoms: N_1  and  C_7
REMARK    3  A    between atoms: C_4  and  C_6
REMARK    4  A    between atoms: C_7  and  C_9
REMARK                            x       y       z     vdW  Elec       q    Type
REMARK                         _______ _______ _______ _____ _____    ______ ____
ROOT
ATOM      1  N   UNL     1      35.783 -18.202 -21.552  0.00  0.00    +0.387 N 
ATOM      2  C   UNL     1      34.994 -17.072 -21.062  0.00  0.00    -0.101 C 
ATOM      3  H   UNL     1      36.752 -18.065 -21.270  0.00  0.00    -0.080 HD
ENDROOT
BRANCH   1   4
ATOM      4  C   UNL     1      35.730 -18.267 -23.012  0.00  0.00    -0.060 C 
BRANCH   4   6
ATOM      5 CL   UNL     1      34.574 -17.239 -25.240  0.00  0.00    -0.116 Cl
ATOM      6  C   UNL     1      35.129 -16.985 -23.568  0.00  0.00    +0.072 C 
ENDBRANCH   4   6
ENDBRANCH   1   4
BRANCH   1   7
ATOM      7  C   UNL     1      35.302 -19.452 -20.967  0.00  0.00    -0.060 C 
BRANCH   7   9
ATOM      8 CL   UNL     1      33.023 -20.513 -19.946  0.00  0.00    -0.116 Cl
ATOM      9  C   UNL     1      33.823 -19.636 -21.272  0.00  0.00    +0.072 C 
ENDBRANCH   7   9
ENDBRANCH   1   7
TORSDOF 4
ENDMDL
MODEL 4
REMARK VINA RESULT:      -4.0      2.304      2.881
REMARK  Name = 4033
REMARK  4 active torsions:
REMARK  status: ('A' for Active; 'I' for Inactive)
REMARK    1  A    between atoms: N_1  and  C_4
REMARK    2  A    between atoms: N_1  and  C_7
REMARK    3  A    between atoms: C_4  and  C_6
REMARK    4  A    between atoms: C_7  and  C_9
REMARK                            x       y       z     vdW  Elec       q    Type
REMARK                         _______ _______ _______ _____ _____    ______ ____
ROOT
ATOM      1  N   UNL     1      34.985 -18.690 -20.868  0.00  0.00    +0.387 N 
ATOM      2  C   UNL     1      36.299 -19.317 -20.721  0.00  0.00    -0.101 C 
ATOM      3  H   UNL     1      34.626 -18.472 -19.939  0.00  0.00    -0.080 HD
ENDROOT
BRANCH   1   4
ATOM      4  C   UNL     1      34.052 -19.605 -21.523  0.00  0.00    -0.060 C 
BRANCH   4   6
ATOM      5 CL   UNL     1      33.443 -21.379 -19.563  0.00  0.00    -0.116 Cl
ATOM      6  C   UNL     1      32.940 -19.992 -20.559  0.00  0.00    +0.072 C 
ENDBRANCH   4   6
ENDBRANCH   1   4
BRANCH   1   7
ATOM      7  C   UNL     1      35.096 -17.444 -21.625  0.00  0.00    -0.060 C 
BRANCH   7   9
ATOM      8 CL   UNL     1      34.576 -15.018 -20.528  0.00  0.00    -0.116 Cl
ATOM      9  C   UNL     1      33.949 -16.512 -21.265  0.00  0.00    +0.072 C 
ENDBRANCH   7   9
ENDBRANCH   1   7
TORSDOF 4
ENDMDL
MODEL 5
REMARK VINA RESULT:      -4.0      2.490      3.292
REMARK  Name = 4033
REMARK  4 active torsions:
REMARK  status: ('A' for Active; 'I' for Inactive)
REMARK    1  A    between atoms: N_1  and  C_4
REMARK    2  A    between atoms: N_1  and  C_7
REMARK    3  A    between atoms: C_4  and  C_6
REMARK    4  A    between atoms: C_7  and  C_9
REMARK                            x       y       z     vdW  Elec       q    Type
REMARK                         _______ _______ _______ _____ _____    ______ ____
ROOT
ATOM      1  N   UNL     1      34.532 -18.368 -22.056  0.00  0.00    +0.387 N 
ATOM      2  C   UNL     1      34.925 -17.110 -21.422  0.00  0.00    -0.101 C 
ATOM      3  H   UNL     1      33.570 -18.281 -22.379  0.00  0.00    -0.080 HD
ENDROOT
BRANCH   1   4
ATOM      4  C   UNL     1      34.601 -19.469 -21.095  0.00  0.00    -0.060 C 
BRANCH   4   6
ATOM      5 CL   UNL     1      33.271 -21.252 -19.542  0.00  0.00    -0.116 Cl
ATOM      6  C   UNL     1      33.198 -19.928 -20.731  0.00  0.00    +0.072 C 
ENDBRANCH   4   6
ENDBRANCH   1   4
BRANCH   1   7
ATOM      7  C   UNL     1      35.385 -18.645 -23.211  0.00  0.00    -0.060 C 
BRANCH   7   9
ATOM      8 CL   UNL     1      34.722 -17.006 -25.269  0.00  0.00    -0.116 Cl
ATOM      9  C   UNL     1      34.561 -18.598 -24.490  0.00  0.00    +0.072 C 
ENDBRANCH   7   9
ENDBRANCH   1   7
TORSDOF 4
ENDMDL
MODEL 6
REMARK VINA RESULT:      -3.9      1.552      3.340
REMARK  Name = 4033
REMARK  4 active torsions:
REMARK  status: ('A' for Active; 'I' for Inactive)
REMARK    1  A    between atoms: N_1  and  C_4
REMARK    2  A    between atoms: N_1  and  C_7
REMARK    3  A    between atoms: C_4  and  C_6
REMARK    4  A    between atoms: C_7  and  C_9
REMARK                            x       y       z     vdW  Elec       q    Type
REMARK                         _______ _______ _______ _____ _____    ______ ____
ROOT
ATOM      1  N   UNL     1      34.583 -18.424 -22.275  0.00  0.00    +0.387 N 
ATOM      2  C   UNL     1      34.890 -19.070 -23.551  0.00  0.00    -0.101 C 
ATOM      3  H   UNL     1      33.591 -18.553 -22.078  0.00  0.00    -0.080 HD
ENDROOT
BRANCH   1   4
ATOM      4  C   UNL     1      34.860 -16.990 -22.347  0.00  0.00    -0.060 C 
BRANCH   4   6
ATOM      5 CL   UNL     1      33.135 -15.633 -20.753  0.00  0.00    -0.116 Cl
ATOM      6  C   UNL     1      34.742 -16.368 -20.964  0.00  0.00    +0.072 C 
ENDBRANCH   4   6
ENDBRANCH   1   4
BRANCH   1   7
ATOM      7  C   UNL     1      35.352 -19.039 -21.194  0.00  0.00    -0.060 C 
BRANCH   7   9
ATOM      8 CL   UNL     1      32.813 -19.810 -20.629  0.00  0.00    -0.116 Cl
ATOM      9  C   UNL     1      34.554 -20.172 -20.566  0.00  0.00    +0.072 C 
ENDBRANCH   7   9
ENDBRANCH   1   7
TORSDOF 4
ENDMDL
MODEL 7
REMARK VINA RESULT:      -3.9      3.336      3.936
REMARK  Name = 4033
REMARK  4 active torsions:
REMARK  status: ('A' for Active; 'I' for Inactive)
REMARK    1  A    between atoms: N_1  and  C_4
REMARK    2  A    between atoms: N_1  and  C_7
REMARK    3  A    between atoms: C_4  and  C_6
REMARK    4  A    between atoms: C_7  and  C_9
REMARK                            x       y       z     vdW  Elec       q    Type
REMARK                         _______ _______ _______ _____ _____    ______ ____
ROOT
ATOM      1  N   UNL     1      33.586 -15.391 -24.086  0.00  0.00    +0.387 N 
ATOM      2  C   UNL     1      34.547 -14.996 -23.057  0.00  0.00    -0.101 C 
ATOM      3  H   UNL     1      32.770 -15.794 -23.628  0.00  0.00    -0.080 HD
ENDROOT
BRANCH   1   4
ATOM      4  C   UNL     1      34.168 -16.400 -24.970  0.00  0.00    -0.060 C 
BRANCH   4   6
ATOM      5 CL   UNL     1      34.507 -19.083 -24.749  0.00  0.00    -0.116 Cl
ATOM      6  C   UNL     1      34.896 -17.453 -24.147  0.00  0.00    +0.072 C 
ENDBRANCH   4   6
ENDBRANCH   1   4
BRANCH   1   7
ATOM      7  C   UNL     1      33.156 -14.225 -24.857  0.00  0.00    -0.060 C 
BRANCH   7   9
ATOM      8 CL   UNL     1      33.440 -13.280 -27.384  0.00  0.00    -0.116 Cl
ATOM      9  C   UNL     1      32.944 -14.612 -26.313  0.00  0.00    +0.072 C 
ENDBRANCH   7   9
ENDBRANCH   1   7
TORSDOF 4
ENDMDL
MODEL 8
REMARK VINA RESULT:      -3.9      3.052      4.129
REMARK  Name = 4033
REMARK  4 active torsions:
REMARK  status: ('A' for Active; 'I' for Inactive)
REMARK    1  A    between atoms: N_1  and  C_4
REMARK    2  A    between atoms: N_1  and  C_7
REMARK    3  A    between atoms: C_4  and  C_6
REMARK    4  A    between atoms: C_7  and  C_9
REMARK                            x       y       z     vdW  Elec       q    Type
REMARK                         _______ _______ _______ _____ _____    ______ ____
ROOT
ATOM      1  N   UNL     1      33.809 -15.752 -24.221  0.00  0.00    +0.387 N 
ATOM      2  C   UNL     1      34.465 -16.599 -25.216  0.00  0.00    -0.101 C 
ATOM      3  H   UNL     1      33.042 -16.279 -23.804  0.00  0.00    -0.080 HD
ENDROOT
BRANCH   1   4
ATOM      4  C   UNL     1      33.259 -14.553 -24.852  0.00  0.00    -0.060 C 
BRANCH   4   6
ATOM      5 CL   UNL     1      33.419 -13.387 -27.296  0.00  0.00    -0.116 Cl
ATOM      6  C   UNL     1      32.992 -14.817 -26.326  0.00  0.00    +0.072 C 
ENDBRANCH   4   6
ENDBRANCH   1   4
BRANCH   1   7
ATOM      7  C   UNL     1      34.749 -15.387 -23.162  0.00  0.00    -0.060 C 
BRANCH   7   9
ATOM      8 CL   UNL     1      34.515 -15.342 -20.459  0.00  0.00    -0.116 Cl
ATOM      9  C   UNL     1      34.559 -16.299 -21.959  0.00  0.00    +0.072 C 
ENDBRANCH   7   9
ENDBRANCH   1   7
TORSDOF 4
ENDMDL
MODEL 9
REMARK VINA RESULT:      -3.9      2.004      2.442
REMARK  Name = 4033
REMARK  4 active torsions:
REMARK  status: ('A' for Active; 'I' for Inactive)
REMARK    1  A    between atoms: N_1  and  C_4
REMARK    2  A    between atoms: N_1  and  C_7
REMARK    3  A    between atoms: C_4  and  C_6
REMARK    4  A    between atoms: C_7  and  C_9
REMARK                            x       y       z     vdW  Elec       q    Type
REMARK                         _______ _______ _______ _____ _____    ______ ____
ROOT
ATOM      1  N   UNL     1      35.636 -17.480 -23.096  0.00  0.00    +0.387 N 
ATOM      2  C   UNL     1      35.305 -18.727 -23.786  0.00  0.00    -0.101 C 
ATOM      3  H   UNL     1      36.640 -17.323 -23.175  0.00  0.00    -0.080 HD
ENDROOT
BRANCH   1   4
ATOM      4  C   UNL     1      35.291 -17.572 -21.678  0.00  0.00    -0.060 C 
BRANCH   4   6
ATOM      5 CL   UNL     1      33.806 -19.627 -20.712  0.00  0.00    -0.116 Cl
ATOM      6  C   UNL     1      35.402 -19.015 -21.210  0.00  0.00    +0.072 C 
ENDBRANCH   4   6
ENDBRANCH   1   4
BRANCH   1   7
ATOM      7  C   UNL     1      34.942 -16.353 -23.718  0.00  0.00    -0.060 C 
BRANCH   7   9
ATOM      8 CL   UNL     1      33.435 -15.506 -25.810  0.00  0.00    -0.116 Cl
ATOM      9  C   UNL     1      34.603 -16.684 -25.164  0.00  0.00    +0.072 C 
ENDBRANCH   7   9
ENDBRANCH   1   7
TORSDOF 4
ENDMDL
