MODEL 1
REMARK VINA RESULT:      -9.4      0.000      0.000
REMARK  Name = 444894
REMARK  5 active torsions:
REMARK  status: ('A' for Active; 'I' for Inactive)
REMARK    1  A    between atoms: C_2  and  O_19
REMARK    2  A    between atoms: C_4  and  N_7
REMARK    3  A    between atoms: O_19  and  P_20
REMARK    4  A    between atoms: P_20  and  O_22
REMARK    5  A    between atoms: P_20  and  O_24
REMARK                            x       y       z     vdW  Elec       q    Type
REMARK                         _______ _______ _______ _____ _____    ______ ____
ROOT
ATOM      1  O   UNL     1      35.422 -17.137 -20.564  0.00  0.00    -0.337 OA
ATOM      2  C   UNL     1      34.293 -16.500 -22.528  0.00  0.00    +0.157 C 
ATOM      3  C   UNL     1      34.979 -17.817 -22.815  0.00  0.00    +0.084 C 
ATOM      4  C   UNL     1      35.428 -18.283 -21.435  0.00  0.00    +0.197 C 
ATOM      5  C   UNL     1      35.102 -15.979 -21.352  0.00  0.00    +0.145 C 
ATOM      6  C   UNL     1      34.355 -14.970 -20.499  0.00  0.00    +0.035 C 
ENDROOT
BRANCH   4   7
ATOM      7  N   UNL     1      34.584 -19.334 -20.862  0.00  0.00    -0.249 N 
ATOM      8  N   UNL     1      32.750 -20.525 -20.413  0.00  0.00    -0.242 NA
ATOM      9  N   UNL     1      36.217 -20.587 -19.571  0.00  0.00    -0.228 NA
ATOM     10  N   UNL     1      35.183 -22.480 -18.428  0.00  0.00    -0.229 NA
ATOM     11  C   UNL     1      34.980 -20.346 -20.031  0.00  0.00    +0.152 C 
ATOM     12  C   UNL     1      33.235 -19.486 -21.060  0.00  0.00    +0.223 C 
ATOM     13  C   UNL     1      33.830 -21.072 -19.766  0.00  0.00    +0.140 C 
ATOM     14  C   UNL     1      33.963 -22.176 -18.930  0.00  0.00    +0.143 C 
ATOM     15  C   UNL     1      36.219 -21.679 -18.774  0.00  0.00    +0.253 C 
ATOM     16  N   UNL     1      32.849 -22.971 -18.609  0.00  0.00    -0.342 N 
ATOM     17  H   UNL     1      32.954 -23.750 -18.016  0.00  0.00    +0.144 HD
ATOM     18  H   UNL     1      31.963 -22.748 -18.976  0.00  0.00    +0.144 HD
ENDBRANCH   4   7
BRANCH   2  19
ATOM     19  O   UNL     1      34.351 -15.637 -23.645  0.00  0.00    -0.273 OA
BRANCH  19  20
ATOM     20  P   UNL     1      33.297 -14.416 -23.723  0.00  0.00    +0.473 P 
ATOM     21  O   UNL     1      32.185 -14.468 -22.716  0.00  0.00    -0.227 OA
BRANCH  20  22
ATOM     22  O   UNL     1      32.830 -14.408 -25.271  0.00  0.00    -0.303 OA
ATOM     23  H   UNL     1      31.918 -14.083 -25.331  0.00  0.00    +0.222 HD
ENDBRANCH  20  22
BRANCH  20  24
ATOM     24  O   UNL     1      34.254 -13.116 -23.616  0.00  0.00    -0.303 OA
ATOM     25  H   UNL     1      33.752 -12.376 -23.241  0.00  0.00    +0.222 HD
ENDBRANCH  20  24
ENDBRANCH  19  20
ENDBRANCH   2  19
TORSDOF 5
ENDMDL
MODEL 2
REMARK VINA RESULT:      -9.0      9.649     11.168
REMARK  Name = 444894
REMARK  5 active torsions:
REMARK  status: ('A' for Active; 'I' for Inactive)
REMARK    1  A    between atoms: C_2  and  O_19
REMARK    2  A    between atoms: C_4  and  N_7
REMARK    3  A    between atoms: O_19  and  P_20
REMARK    4  A    between atoms: P_20  and  O_22
REMARK    5  A    between atoms: P_20  and  O_24
REMARK                            x       y       z     vdW  Elec       q    Type
REMARK                         _______ _______ _______ _____ _____    ______ ____
ROOT
ATOM      1  O   UNL     1      36.200 -24.060 -12.386  0.00  0.00    -0.337 OA
ATOM      2  C   UNL     1      38.023 -25.112 -13.439  0.00  0.00    +0.157 C 
ATOM      3  C   UNL     1      36.804 -25.972 -13.691  0.00  0.00    +0.084 C 
ATOM      4  C   UNL     1      35.651 -25.084 -13.235  0.00  0.00    +0.197 C 
ATOM      5  C   UNL     1      37.600 -24.331 -12.207  0.00  0.00    +0.145 C 
ATOM      6  C   UNL     1      38.355 -23.026 -12.026  0.00  0.00    +0.035 C 
ENDROOT
BRANCH   4   7
ATOM      7  N   UNL     1      34.914 -24.460 -14.336  0.00  0.00    -0.249 N 
ATOM      8  N   UNL     1      34.539 -23.480 -16.306  0.00  0.00    -0.242 NA
ATOM      9  N   UNL     1      32.644 -24.533 -13.473  0.00  0.00    -0.228 NA
ATOM     10  N   UNL     1      31.060 -23.562 -15.054  0.00  0.00    -0.229 NA
ATOM     11  C   UNL     1      33.567 -24.233 -14.399  0.00  0.00    +0.152 C 
ATOM     12  C   UNL     1      35.453 -23.989 -15.506  0.00  0.00    +0.223 C 
ATOM     13  C   UNL     1      33.356 -23.627 -15.627  0.00  0.00    +0.140 C 
ATOM     14  C   UNL     1      32.044 -23.287 -15.944  0.00  0.00    +0.143 C 
ATOM     15  C   UNL     1      31.416 -24.158 -13.891  0.00  0.00    +0.253 C 
ATOM     16  N   UNL     1      31.739 -22.670 -17.168  0.00  0.00    -0.342 N 
ATOM     17  H   UNL     1      30.806 -22.434 -17.382  0.00  0.00    +0.144 HD
ATOM     18  H   UNL     1      32.456 -22.473 -17.813  0.00  0.00    +0.144 HD
ENDBRANCH   4   7
BRANCH   2  19
ATOM     19  O   UNL     1      39.170 -25.904 -13.206  0.00  0.00    -0.273 OA
BRANCH  19  20
ATOM     20  P   UNL     1      40.327 -25.921 -14.331  0.00  0.00    +0.473 P 
ATOM     21  O   UNL     1      41.329 -27.032 -14.199  0.00  0.00    -0.227 OA
BRANCH  20  22
ATOM     22  O   UNL     1      40.940 -24.426 -14.276  0.00  0.00    -0.303 OA
ATOM     23  H   UNL     1      40.218 -23.779 -14.303  0.00  0.00    +0.222 HD
ENDBRANCH  20  22
BRANCH  20  24
ATOM     24  O   UNL     1      39.481 -25.926 -15.709  0.00  0.00    -0.303 OA
ATOM     25  H   UNL     1      38.542 -26.073 -15.512  0.00  0.00    +0.222 HD
ENDBRANCH  20  24
ENDBRANCH  19  20
ENDBRANCH   2  19
TORSDOF 5
ENDMDL
MODEL 3
REMARK VINA RESULT:      -8.9      8.174     10.314
REMARK  Name = 444894
REMARK  5 active torsions:
REMARK  status: ('A' for Active; 'I' for Inactive)
REMARK    1  A    between atoms: C_2  and  O_19
REMARK    2  A    between atoms: C_4  and  N_7
REMARK    3  A    between atoms: O_19  and  P_20
REMARK    4  A    between atoms: P_20  and  O_22
REMARK    5  A    between atoms: P_20  and  O_24
REMARK                            x       y       z     vdW  Elec       q    Type
REMARK                         _______ _______ _______ _____ _____    ______ ____
ROOT
ATOM      1  O   UNL     1      35.291 -22.241 -15.184  0.00  0.00    -0.337 OA
ATOM      2  C   UNL     1      36.334 -24.351 -15.208  0.00  0.00    +0.157 C 
ATOM      3  C   UNL     1      35.219 -24.415 -14.188  0.00  0.00    +0.084 C 
ATOM      4  C   UNL     1      34.435 -23.133 -14.447  0.00  0.00    +0.197 C 
ATOM      5  C   UNL     1      36.585 -22.855 -15.298  0.00  0.00    +0.145 C 
ATOM      6  C   UNL     1      37.243 -22.426 -16.597  0.00  0.00    +0.035 C 
ENDROOT
BRANCH   4   7
ATOM      7  N   UNL     1      33.191 -23.341 -15.191  0.00  0.00    -0.249 N 
ATOM      8  N   UNL     1      31.758 -23.342 -16.903  0.00  0.00    -0.242 NA
ATOM      9  N   UNL     1      31.771 -24.290 -13.463  0.00  0.00    -0.228 NA
ATOM     10  N   UNL     1      29.543 -24.794 -14.321  0.00  0.00    -0.229 NA
ATOM     11  C   UNL     1      32.022 -23.862 -14.709  0.00  0.00    +0.152 C 
ATOM     12  C   UNL     1      32.980 -23.043 -16.513  0.00  0.00    +0.223 C 
ATOM     13  C   UNL     1      31.149 -23.854 -15.785  0.00  0.00    +0.140 C 
ATOM     14  C   UNL     1      29.866 -24.344 -15.557  0.00  0.00    +0.143 C 
ATOM     15  C   UNL     1      30.501 -24.740 -13.365  0.00  0.00    +0.253 C 
ATOM     16  N   UNL     1      28.916 -24.375 -16.592  0.00  0.00    -0.342 N 
ATOM     17  H   UNL     1      28.011 -24.724 -16.420  0.00  0.00    +0.144 HD
ATOM     18  H   UNL     1      29.154 -24.048 -17.490  0.00  0.00    +0.144 HD
ENDBRANCH   4   7
BRANCH   2  19
ATOM     19  O   UNL     1      37.472 -25.062 -14.770  0.00  0.00    -0.273 OA
BRANCH  19  20
ATOM     20  P   UNL     1      37.437 -26.675 -14.833  0.00  0.00    +0.473 P 
ATOM     21  O   UNL     1      36.734 -27.251 -16.029  0.00  0.00    -0.227 OA
BRANCH  20  22
ATOM     22  O   UNL     1      36.827 -27.105 -13.399  0.00  0.00    -0.303 OA
ATOM     23  H   UNL     1      37.117 -28.004 -13.181  0.00  0.00    +0.222 HD
ENDBRANCH  20  22
BRANCH  20  24
ATOM     24  O   UNL     1      39.001 -27.069 -14.706  0.00  0.00    -0.303 OA
ATOM     25  H   UNL     1      39.304 -26.899 -13.801  0.00  0.00    +0.222 HD
ENDBRANCH  20  24
ENDBRANCH  19  20
ENDBRANCH   2  19
TORSDOF 5
ENDMDL
MODEL 4
REMARK VINA RESULT:      -8.7      7.823     10.195
REMARK  Name = 444894
REMARK  5 active torsions:
REMARK  status: ('A' for Active; 'I' for Inactive)
REMARK    1  A    between atoms: C_2  and  O_19
REMARK    2  A    between atoms: C_4  and  N_7
REMARK    3  A    between atoms: O_19  and  P_20
REMARK    4  A    between atoms: P_20  and  O_22
REMARK    5  A    between atoms: P_20  and  O_24
REMARK                            x       y       z     vdW  Elec       q    Type
REMARK                         _______ _______ _______ _____ _____    ______ ____
ROOT
ATOM      1  O   UNL     1      37.305 -24.691 -15.706  0.00  0.00    -0.337 OA
ATOM      2  C   UNL     1      36.324 -24.825 -13.572  0.00  0.00    +0.157 C 
ATOM      3  C   UNL     1      36.398 -23.359 -13.938  0.00  0.00    +0.084 C 
ATOM      4  C   UNL     1      36.766 -23.388 -15.416  0.00  0.00    +0.197 C 
ATOM      5  C   UNL     1      37.390 -25.423 -14.473  0.00  0.00    +0.145 C 
ATOM      6  C   UNL     1      37.197 -26.905 -14.743  0.00  0.00    +0.035 C 
ENDROOT
BRANCH   4   7
ATOM      7  N   UNL     1      35.640 -23.117 -16.312  0.00  0.00    -0.249 N 
ATOM      8  N   UNL     1      33.552 -23.130 -17.103  0.00  0.00    -0.242 NA
ATOM      9  N   UNL     1      36.735 -21.834 -18.060  0.00  0.00    -0.228 NA
ATOM     10  N   UNL     1      35.156 -21.168 -19.797  0.00  0.00    -0.229 NA
ATOM     11  C   UNL     1      35.672 -22.417 -17.486  0.00  0.00    +0.152 C 
ATOM     12  C   UNL     1      34.343 -23.525 -16.127  0.00  0.00    +0.223 C 
ATOM     13  C   UNL     1      34.370 -22.436 -17.959  0.00  0.00    +0.140 C 
ATOM     14  C   UNL     1      34.128 -21.780 -19.162  0.00  0.00    +0.143 C 
ATOM     15  C   UNL     1      36.378 -21.232 -19.215  0.00  0.00    +0.253 C 
ATOM     16  N   UNL     1      32.836 -21.748 -19.714  0.00  0.00    -0.342 N 
ATOM     17  H   UNL     1      32.676 -21.280 -20.566  0.00  0.00    +0.144 HD
ATOM     18  H   UNL     1      32.090 -22.192 -19.250  0.00  0.00    +0.144 HD
ENDBRANCH   4   7
BRANCH   2  19
ATOM     19  O   UNL     1      36.602 -25.027 -12.201  0.00  0.00    -0.273 OA
BRANCH  19  20
ATOM     20  P   UNL     1      35.911 -24.039 -11.128  0.00  0.00    +0.473 P 
ATOM     21  O   UNL     1      36.797 -22.948 -10.602  0.00  0.00    -0.227 OA
BRANCH  20  22
ATOM     22  O   UNL     1      35.311 -25.042 -10.011  0.00  0.00    -0.303 OA
ATOM     23  H   UNL     1      35.619 -24.770  -9.132  0.00  0.00    +0.222 HD
ENDBRANCH  20  22
BRANCH  20  24
ATOM     24  O   UNL     1      34.594 -23.527 -11.915  0.00  0.00    -0.303 OA
ATOM     25  H   UNL     1      33.809 -23.685 -11.368  0.00  0.00    +0.222 HD
ENDBRANCH  20  24
ENDBRANCH  19  20
ENDBRANCH   2  19
TORSDOF 5
ENDMDL
MODEL 5
REMARK VINA RESULT:      -8.7      9.037     10.731
REMARK  Name = 444894
REMARK  5 active torsions:
REMARK  status: ('A' for Active; 'I' for Inactive)
REMARK    1  A    between atoms: C_2  and  O_19
REMARK    2  A    between atoms: C_4  and  N_7
REMARK    3  A    between atoms: O_19  and  P_20
REMARK    4  A    between atoms: P_20  and  O_22
REMARK    5  A    between atoms: P_20  and  O_24
REMARK                            x       y       z     vdW  Elec       q    Type
REMARK                         _______ _______ _______ _____ _____    ______ ____
ROOT
ATOM      1  O   UNL     1      35.244 -24.660 -15.848  0.00  0.00    -0.337 OA
ATOM      2  C   UNL     1      36.270 -23.948 -13.854  0.00  0.00    +0.157 C 
ATOM      3  C   UNL     1      35.224 -22.915 -14.213  0.00  0.00    +0.084 C 
ATOM      4  C   UNL     1      34.434 -23.592 -15.326  0.00  0.00    +0.197 C 
ATOM      5  C   UNL     1      36.524 -24.610 -15.197  0.00  0.00    +0.145 C 
ATOM      6  C   UNL     1      37.097 -26.011 -15.085  0.00  0.00    +0.035 C 
ENDROOT
BRANCH   4   7
ATOM      7  N   UNL     1      33.142 -24.128 -14.892  0.00  0.00    -0.249 N 
ATOM      8  N   UNL     1      31.666 -25.329 -13.725  0.00  0.00    -0.242 NA
ATOM      9  N   UNL     1      31.632 -22.982 -16.412  0.00  0.00    -0.228 NA
ATOM     10  N   UNL     1      29.311 -23.617 -16.006  0.00  0.00    -0.229 NA
ATOM     11  C   UNL     1      31.911 -23.826 -15.408  0.00  0.00    +0.152 C 
ATOM     12  C   UNL     1      32.940 -25.035 -13.884  0.00  0.00    +0.223 C 
ATOM     13  C   UNL     1      31.012 -24.580 -14.671  0.00  0.00    +0.140 C 
ATOM     14  C   UNL     1      29.666 -24.453 -15.001  0.00  0.00    +0.143 C 
ATOM     15  C   UNL     1      30.300 -22.944 -16.640  0.00  0.00    +0.253 C 
ATOM     16  N   UNL     1      28.685 -25.179 -14.305  0.00  0.00    -0.342 N 
ATOM     17  H   UNL     1      27.735 -25.082 -14.547  0.00  0.00    +0.144 HD
ATOM     18  H   UNL     1      28.946 -25.785 -13.574  0.00  0.00    +0.144 HD
ENDBRANCH   4   7
BRANCH   2  19
ATOM     19  O   UNL     1      37.431 -23.341 -13.325  0.00  0.00    -0.273 OA
BRANCH  19  20
ATOM     20  P   UNL     1      37.779 -23.587 -11.768  0.00  0.00    +0.473 P 
ATOM     21  O   UNL     1      36.921 -22.832 -10.795  0.00  0.00    -0.227 OA
BRANCH  20  22
ATOM     22  O   UNL     1      39.364 -23.282 -11.674  0.00  0.00    -0.303 OA
ATOM     23  H   UNL     1      39.598 -22.588 -12.310  0.00  0.00    +0.222 HD
ENDBRANCH  20  22
BRANCH  20  24
ATOM     24  O   UNL     1      37.701 -25.198 -11.638  0.00  0.00    -0.303 OA
ATOM     25  H   UNL     1      38.570 -25.580 -11.839  0.00  0.00    +0.222 HD
ENDBRANCH  20  24
ENDBRANCH  19  20
ENDBRANCH   2  19
TORSDOF 5
ENDMDL
MODEL 6
REMARK VINA RESULT:      -8.7      7.435     10.182
REMARK  Name = 444894
REMARK  5 active torsions:
REMARK  status: ('A' for Active; 'I' for Inactive)
REMARK    1  A    between atoms: C_2  and  O_19
REMARK    2  A    between atoms: C_4  and  N_7
REMARK    3  A    between atoms: O_19  and  P_20
REMARK    4  A    between atoms: P_20  and  O_22
REMARK    5  A    between atoms: P_20  and  O_24
REMARK                            x       y       z     vdW  Elec       q    Type
REMARK                         _______ _______ _______ _____ _____    ______ ____
ROOT
ATOM      1  O   UNL     1      33.382 -23.887 -15.446  0.00  0.00    -0.337 OA
ATOM      2  C   UNL     1      34.500 -23.899 -13.376  0.00  0.00    +0.157 C 
ATOM      3  C   UNL     1      35.393 -24.608 -14.371  0.00  0.00    +0.084 C 
ATOM      4  C   UNL     1      34.735 -24.300 -15.710  0.00  0.00    +0.197 C 
ATOM      5  C   UNL     1      33.139 -24.027 -14.038  0.00  0.00    +0.145 C 
ATOM      6  C   UNL     1      32.142 -22.976 -13.583  0.00  0.00    +0.035 C 
ENDROOT
BRANCH   4   7
ATOM      7  N   UNL     1      35.421 -23.260 -16.481  0.00  0.00    -0.249 N 
ATOM      8  N   UNL     1      36.962 -21.740 -17.025  0.00  0.00    -0.242 NA
ATOM      9  N   UNL     1      33.936 -23.044 -18.391  0.00  0.00    -0.228 NA
ATOM     10  N   UNL     1      34.746 -21.362 -19.962  0.00  0.00    -0.229 NA
ATOM     11  C   UNL     1      35.026 -22.728 -17.677  0.00  0.00    +0.152 C 
ATOM     12  C   UNL     1      36.589 -22.632 -16.132  0.00  0.00    +0.223 C 
ATOM     13  C   UNL     1      35.994 -21.790 -17.996  0.00  0.00    +0.140 C 
ATOM     14  C   UNL     1      35.826 -21.093 -19.189  0.00  0.00    +0.143 C 
ATOM     15  C   UNL     1      33.881 -22.306 -19.522  0.00  0.00    +0.253 C 
ATOM     16  N   UNL     1      36.760 -20.124 -19.592  0.00  0.00    -0.342 N 
ATOM     17  H   UNL     1      36.631 -19.637 -20.438  0.00  0.00    +0.144 HD
ATOM     18  H   UNL     1      37.544 -19.931 -19.029  0.00  0.00    +0.144 HD
ENDBRANCH   4   7
BRANCH   2  19
ATOM     19  O   UNL     1      34.544 -24.525 -12.110  0.00  0.00    -0.273 OA
BRANCH  19  20
ATOM     20  P   UNL     1      35.889 -24.374 -11.230  0.00  0.00    +0.473 P 
ATOM     21  O   UNL     1      36.685 -23.128 -11.490  0.00  0.00    -0.227 OA
BRANCH  20  22
ATOM     22  O   UNL     1      36.675 -25.764 -11.484  0.00  0.00    -0.303 OA
ATOM     23  H   UNL     1      37.346 -25.634 -12.173  0.00  0.00    +0.222 HD
ENDBRANCH  20  22
BRANCH  20  24
ATOM     24  O   UNL     1      35.340 -24.528  -9.716  0.00  0.00    -0.303 OA
ATOM     25  H   UNL     1      36.029 -24.249  -9.093  0.00  0.00    +0.222 HD
ENDBRANCH  20  24
ENDBRANCH  19  20
ENDBRANCH   2  19
TORSDOF 5
ENDMDL
MODEL 7
REMARK VINA RESULT:      -8.6      8.395     10.556
REMARK  Name = 444894
REMARK  5 active torsions:
REMARK  status: ('A' for Active; 'I' for Inactive)
REMARK    1  A    between atoms: C_2  and  O_19
REMARK    2  A    between atoms: C_4  and  N_7
REMARK    3  A    between atoms: O_19  and  P_20
REMARK    4  A    between atoms: P_20  and  O_22
REMARK    5  A    between atoms: P_20  and  O_24
REMARK                            x       y       z     vdW  Elec       q    Type
REMARK                         _______ _______ _______ _____ _____    ______ ____
ROOT
ATOM      1  O   UNL     1      35.233 -24.401 -16.328  0.00  0.00    -0.337 OA
ATOM      2  C   UNL     1      35.543 -24.109 -14.014  0.00  0.00    +0.157 C 
ATOM      3  C   UNL     1      35.075 -22.783 -14.573  0.00  0.00    +0.084 C 
ATOM      4  C   UNL     1      34.631 -23.139 -15.987  0.00  0.00    +0.197 C 
ATOM      5  C   UNL     1      36.104 -24.786 -15.252  0.00  0.00    +0.145 C 
ATOM      6  C   UNL     1      36.151 -26.300 -15.148  0.00  0.00    +0.035 C 
ENDROOT
BRANCH   4   7
ATOM      7  N   UNL     1      33.178 -23.234 -16.144  0.00  0.00    -0.249 N 
ATOM      8  N   UNL     1      31.152 -22.945 -17.035  0.00  0.00    -0.242 NA
ATOM      9  N   UNL     1      32.584 -24.538 -14.182  0.00  0.00    -0.228 NA
ATOM     10  N   UNL     1      30.178 -24.930 -14.070  0.00  0.00    -0.229 NA
ATOM     11  C   UNL     1      32.301 -23.870 -15.311  0.00  0.00    +0.152 C 
ATOM     12  C   UNL     1      32.438 -22.693 -17.164  0.00  0.00    +0.223 C 
ATOM     13  C   UNL     1      31.052 -23.680 -15.881  0.00  0.00    +0.140 C 
ATOM     14  C   UNL     1      29.965 -24.240 -15.217  0.00  0.00    +0.143 C 
ATOM     15  C   UNL     1      31.455 -25.034 -13.631  0.00  0.00    +0.253 C 
ATOM     16  N   UNL     1      28.663 -24.098 -15.725  0.00  0.00    -0.342 N 
ATOM     17  H   UNL     1      27.901 -24.499 -15.247  0.00  0.00    +0.144 HD
ATOM     18  H   UNL     1      28.511 -23.598 -16.559  0.00  0.00    +0.144 HD
ENDBRANCH   4   7
BRANCH   2  19
ATOM     19  O   UNL     1      36.520 -23.927 -13.010  0.00  0.00    -0.273 OA
BRANCH  19  20
ATOM     20  P   UNL     1      36.277 -24.618 -11.572  0.00  0.00    +0.473 P 
ATOM     21  O   UNL     1      36.712 -23.802 -10.390  0.00  0.00    -0.227 OA
BRANCH  20  22
ATOM     22  O   UNL     1      36.988 -26.063 -11.713  0.00  0.00    -0.303 OA
ATOM     23  H   UNL     1      37.811 -25.971 -12.219  0.00  0.00    +0.222 HD
ENDBRANCH  20  22
BRANCH  20  24
ATOM     24  O   UNL     1      34.700 -24.974 -11.613  0.00  0.00    -0.303 OA
ATOM     25  H   UNL     1      34.578 -25.859 -11.991  0.00  0.00    +0.222 HD
ENDBRANCH  20  24
ENDBRANCH  19  20
ENDBRANCH   2  19
TORSDOF 5
ENDMDL
MODEL 8
REMARK VINA RESULT:      -8.5      7.907     10.327
REMARK  Name = 444894
REMARK  5 active torsions:
REMARK  status: ('A' for Active; 'I' for Inactive)
REMARK    1  A    between atoms: C_2  and  O_19
REMARK    2  A    between atoms: C_4  and  N_7
REMARK    3  A    between atoms: O_19  and  P_20
REMARK    4  A    between atoms: P_20  and  O_22
REMARK    5  A    between atoms: P_20  and  O_24
REMARK                            x       y       z     vdW  Elec       q    Type
REMARK                         _______ _______ _______ _____ _____    ______ ____
ROOT
ATOM      1  O   UNL     1      36.239 -23.389 -13.891  0.00  0.00    -0.337 OA
ATOM      2  C   UNL     1      38.198 -24.632 -14.278  0.00  0.00    +0.157 C 
ATOM      3  C   UNL     1      37.148 -25.144 -15.240  0.00  0.00    +0.084 C 
ATOM      4  C   UNL     1      36.035 -24.109 -15.121  0.00  0.00    +0.197 C 
ATOM      5  C   UNL     1      37.344 -23.991 -13.198  0.00  0.00    +0.145 C 
ATOM      6  C   UNL     1      38.077 -22.937 -12.389  0.00  0.00    +0.035 C 
ENDROOT
BRANCH   4   7
ATOM      7  N   UNL     1      35.985 -23.162 -16.237  0.00  0.00    -0.249 N 
ATOM      8  N   UNL     1      36.647 -21.567 -17.651  0.00  0.00    -0.242 NA
ATOM      9  N   UNL     1      33.764 -23.601 -17.118  0.00  0.00    -0.228 NA
ATOM     10  N   UNL     1      33.278 -22.186 -19.046  0.00  0.00    -0.229 NA
ATOM     11  C   UNL     1      34.947 -22.969 -17.105  0.00  0.00    +0.152 C 
ATOM     12  C   UNL     1      36.982 -22.295 -16.607  0.00  0.00    +0.223 C 
ATOM     13  C   UNL     1      35.377 -21.978 -17.973  0.00  0.00    +0.140 C 
ATOM     14  C   UNL     1      34.491 -21.589 -18.973  0.00  0.00    +0.143 C 
ATOM     15  C   UNL     1      32.993 -23.141 -18.128  0.00  0.00    +0.253 C 
ATOM     16  N   UNL     1      34.845 -20.592 -19.898  0.00  0.00    -0.342 N 
ATOM     17  H   UNL     1      34.210 -20.325 -20.602  0.00  0.00    +0.144 HD
ATOM     18  H   UNL     1      35.728 -20.160 -19.843  0.00  0.00    +0.144 HD
ENDBRANCH   4   7
BRANCH   2  19
ATOM     19  O   UNL     1      38.994 -25.688 -13.779  0.00  0.00    -0.273 OA
BRANCH  19  20
ATOM     20  P   UNL     1      40.495 -25.849 -14.350  0.00  0.00    +0.473 P 
ATOM     21  O   UNL     1      41.292 -26.967 -13.743  0.00  0.00    -0.227 OA
BRANCH  20  22
ATOM     22  O   UNL     1      41.133 -24.373 -14.180  0.00  0.00    -0.303 OA
ATOM     23  H   UNL     1      40.494 -23.708 -14.480  0.00  0.00    +0.222 HD
ENDBRANCH  20  22
BRANCH  20  24
ATOM     24  O   UNL     1      40.256 -25.970 -15.945  0.00  0.00    -0.303 OA
ATOM     25  H   UNL     1      39.461 -25.472 -16.191  0.00  0.00    +0.222 HD
ENDBRANCH  20  24
ENDBRANCH  19  20
ENDBRANCH   2  19
TORSDOF 5
ENDMDL
MODEL 9
REMARK VINA RESULT:      -8.5      6.360      9.195
REMARK  Name = 444894
REMARK  5 active torsions:
REMARK  status: ('A' for Active; 'I' for Inactive)
REMARK    1  A    between atoms: C_2  and  O_19
REMARK    2  A    between atoms: C_4  and  N_7
REMARK    3  A    between atoms: O_19  and  P_20
REMARK    4  A    between atoms: P_20  and  O_22
REMARK    5  A    between atoms: P_20  and  O_24
REMARK                            x       y       z     vdW  Elec       q    Type
REMARK                         _______ _______ _______ _____ _____    ______ ____
ROOT
ATOM      1  O   UNL     1      32.622 -13.141 -21.834  0.00  0.00    -0.337 OA
ATOM      2  C   UNL     1      33.515 -14.780 -23.268  0.00  0.00    +0.157 C 
ATOM      3  C   UNL     1      32.597 -13.911 -24.099  0.00  0.00    +0.084 C 
ATOM      4  C   UNL     1      32.303 -12.733 -23.177  0.00  0.00    +0.197 C 
ATOM      5  C   UNL     1      32.990 -14.530 -21.865  0.00  0.00    +0.145 C 
ATOM      6  C   UNL     1      34.009 -14.813 -20.776  0.00  0.00    +0.035 C 
ENDROOT
BRANCH   4   7
ATOM      7  N   UNL     1      33.053 -11.520 -23.509  0.00  0.00    -0.249 N 
ATOM      8  N   UNL     1      34.566 -10.205 -24.491  0.00  0.00    -0.242 NA
ATOM      9  N   UNL     1      31.956  -9.892 -22.078  0.00  0.00    -0.228 NA
ATOM     10  N   UNL     1      32.939  -7.674 -22.341  0.00  0.00    -0.229 NA
ATOM     11  C   UNL     1      32.863 -10.269 -22.992  0.00  0.00    +0.152 C 
ATOM     12  C   UNL     1      34.088 -11.429 -24.405  0.00  0.00    +0.223 C 
ATOM     13  C   UNL     1      33.809  -9.470 -23.613  0.00  0.00    +0.140 C 
ATOM     14  C   UNL     1      33.829  -8.125 -23.257  0.00  0.00    +0.143 C 
ATOM     15  C   UNL     1      32.072  -8.571 -21.816  0.00  0.00    +0.253 C 
ATOM     16  N   UNL     1      34.754  -7.242 -23.839  0.00  0.00    -0.342 N 
ATOM     17  H   UNL     1      34.758  -6.291 -23.580  0.00  0.00    +0.144 HD
ATOM     18  H   UNL     1      35.398  -7.572 -24.506  0.00  0.00    +0.144 HD
ENDBRANCH   4   7
BRANCH   2  19
ATOM     19  O   UNL     1      33.417 -16.138 -23.645  0.00  0.00    -0.273 OA
BRANCH  19  20
ATOM     20  P   UNL     1      34.688 -16.824 -24.365  0.00  0.00    +0.473 P 
ATOM     21  O   UNL     1      34.811 -16.554 -25.837  0.00  0.00    -0.227 OA
BRANCH  20  22
ATOM     22  O   UNL     1      34.568 -18.384 -23.956  0.00  0.00    -0.303 OA
ATOM     23  H   UNL     1      34.014 -18.847 -24.603  0.00  0.00    +0.222 HD
ENDBRANCH  20  22
BRANCH  20  24
ATOM     24  O   UNL     1      35.928 -16.298 -23.470  0.00  0.00    -0.303 OA
ATOM     25  H   UNL     1      35.751 -15.392 -23.173  0.00  0.00    +0.222 HD
ENDBRANCH  20  24
ENDBRANCH  19  20
ENDBRANCH   2  19
TORSDOF 5
ENDMDL
