MODEL 1
REMARK VINA RESULT:      -8.8      0.000      0.000
REMARK  Name = 38409
REMARK  6 active torsions:
REMARK  status: ('A' for Active; 'I' for Inactive)
REMARK    1  A    between atoms: C_3  and  C_10
REMARK    2  A    between atoms: C_4  and  O_16
REMARK    3  A    between atoms: C_10  and  C_12
REMARK    4  A    between atoms: O_16  and  C_17
REMARK    5  A    between atoms: C_17  and  C_19
REMARK    6  A    between atoms: C_19  and  O_20
REMARK                            x       y       z     vdW  Elec       q    Type
REMARK                         _______ _______ _______ _____ _____    ______ ____
ROOT
ATOM      1 CL   UNL     1      34.668 -15.943 -20.460  0.00  0.00    -0.081 Cl
ATOM      2 CL   UNL     1      33.300 -13.686 -22.258  0.00  0.00    -0.078 Cl
ATOM      3  C   UNL     1      34.989 -17.305 -22.774  0.00  0.00    +0.051 C 
ATOM      4  C   UNL     1      33.792 -15.328 -24.339  0.00  0.00    +0.151 C 
ATOM      5  C   UNL     1      34.509 -16.139 -22.178  0.00  0.00    +0.074 C 
ATOM      6  C   UNL     1      34.871 -17.483 -24.153  0.00  0.00    +0.007 C 
ATOM      7  C   UNL     1      33.910 -15.151 -22.961  0.00  0.00    +0.102 C 
ATOM      8  C   UNL     1      34.273 -16.495 -24.935  0.00  0.00    +0.038 C 
ENDROOT
BRANCH   3  10
ATOM      9  O   UNL     1      36.861 -18.444 -22.051  0.00  0.00    -0.286 OA
ATOM     10  C   UNL     1      35.623 -18.370 -22.008  0.00  0.00    +0.202 C 
BRANCH  10  12
ATOM     11  S   UNL     1      35.638 -20.528 -20.366  0.00  0.00    -0.083 S 
ATOM     12  C   UNL     1      34.815 -19.329 -21.227  0.00  0.00    +0.068 C 
ATOM     13  C   UNL     1      33.473 -19.364 -21.116  0.00  0.00    +0.010 C 
ATOM     14  C   UNL     1      33.071 -20.439 -20.272  0.00  0.00    +0.008 C 
ATOM     15  C   UNL     1      34.149 -21.154 -19.796  0.00  0.00    +0.036 C 
ENDBRANCH  10  12
ENDBRANCH   3  10
BRANCH   4  16
ATOM     16  O   UNL     1      33.212 -14.384 -25.134  0.00  0.00    -0.463 OA
BRANCH  16  17
ATOM     17  C   UNL     1      32.854 -14.783 -26.455  0.00  0.00    +0.314 C 
BRANCH  17  19
ATOM     18  O   UNL     1      34.307 -13.427 -27.850  0.00  0.00    -0.246 OA
ATOM     19  C   UNL     1      33.192 -13.687 -27.427  0.00  0.00    +0.359 C 
BRANCH  19  20
ATOM     20  O   UNL     1      32.070 -13.010 -27.779  0.00  0.00    -0.478 OA
ATOM     21  H   UNL     1      32.134 -12.132 -28.099  0.00  0.00    +0.295 HD
ENDBRANCH  19  20
ENDBRANCH  17  19
ENDBRANCH  16  17
ENDBRANCH   4  16
TORSDOF 6
ENDMDL
MODEL 2
REMARK VINA RESULT:      -8.8      2.092      2.485
REMARK  Name = 38409
REMARK  6 active torsions:
REMARK  status: ('A' for Active; 'I' for Inactive)
REMARK    1  A    between atoms: C_3  and  C_10
REMARK    2  A    between atoms: C_4  and  O_16
REMARK    3  A    between atoms: C_10  and  C_12
REMARK    4  A    between atoms: O_16  and  C_17
REMARK    5  A    between atoms: C_17  and  C_19
REMARK    6  A    between atoms: C_19  and  O_20
REMARK                            x       y       z     vdW  Elec       q    Type
REMARK                         _______ _______ _______ _____ _____    ______ ____
ROOT
ATOM      1 CL   UNL     1      34.813 -18.282 -24.838  0.00  0.00    -0.081 Cl
ATOM      2 CL   UNL     1      33.385 -15.641 -25.928  0.00  0.00    -0.078 Cl
ATOM      3  C   UNL     1      34.882 -17.014 -22.450  0.00  0.00    +0.051 C 
ATOM      4  C   UNL     1      33.633 -14.710 -23.410  0.00  0.00    +0.151 C 
ATOM      5  C   UNL     1      34.499 -16.934 -23.790  0.00  0.00    +0.074 C 
ATOM      6  C   UNL     1      34.639 -15.943 -21.591  0.00  0.00    +0.007 C 
ATOM      7  C   UNL     1      33.875 -15.781 -24.269  0.00  0.00    +0.102 C 
ATOM      8  C   UNL     1      34.015 -14.791 -22.070  0.00  0.00    +0.038 C 
ENDROOT
BRANCH   3  10
ATOM      9  O   UNL     1      36.758 -18.305 -22.076  0.00  0.00    -0.286 OA
ATOM     10  C   UNL     1      35.536 -18.192 -21.894  0.00  0.00    +0.202 C 
BRANCH  10  12
ATOM     11  S   UNL     1      35.627 -20.435 -20.374  0.00  0.00    -0.083 S 
ATOM     12  C   UNL     1      34.763 -19.213 -21.159  0.00  0.00    +0.068 C 
ATOM     13  C   UNL     1      33.423 -19.289 -21.035  0.00  0.00    +0.010 C 
ATOM     14  C   UNL     1      33.060 -20.419 -20.247  0.00  0.00    +0.008 C 
ATOM     15  C   UNL     1      34.162 -21.130 -19.823  0.00  0.00    +0.036 C 
ENDBRANCH  10  12
ENDBRANCH   3  10
BRANCH   4  16
ATOM     16  O   UNL     1      33.026 -13.569 -23.844  0.00  0.00    -0.463 OA
BRANCH  16  17
ATOM     17  C   UNL     1      33.743 -12.348 -23.672  0.00  0.00    +0.314 C 
BRANCH  17  19
ATOM     18  O   UNL     1      33.633 -12.127 -26.088  0.00  0.00    -0.246 OA
ATOM     19  C   UNL     1      34.093 -11.769 -25.014  0.00  0.00    +0.359 C 
BRANCH  19  20
ATOM     20  O   UNL     1      35.004 -10.775 -24.872  0.00  0.00    -0.478 OA
ATOM     21  H   UNL     1      35.919 -10.978 -24.855  0.00  0.00    +0.295 HD
ENDBRANCH  19  20
ENDBRANCH  17  19
ENDBRANCH  16  17
ENDBRANCH   4  16
TORSDOF 6
ENDMDL
MODEL 3
REMARK VINA RESULT:      -8.6      4.002      8.304
REMARK  Name = 38409
REMARK  6 active torsions:
REMARK  status: ('A' for Active; 'I' for Inactive)
REMARK    1  A    between atoms: C_3  and  C_10
REMARK    2  A    between atoms: C_4  and  O_16
REMARK    3  A    between atoms: C_10  and  C_12
REMARK    4  A    between atoms: O_16  and  C_17
REMARK    5  A    between atoms: C_17  and  C_19
REMARK    6  A    between atoms: C_19  and  O_20
REMARK                            x       y       z     vdW  Elec       q    Type
REMARK                         _______ _______ _______ _____ _____    ______ ____
ROOT
ATOM      1 CL   UNL     1      37.269 -19.244 -21.029  0.00  0.00    -0.081 Cl
ATOM      2 CL   UNL     1      36.880 -21.618 -18.929  0.00  0.00    -0.078 Cl
ATOM      3  C   UNL     1      34.589 -19.381 -21.371  0.00  0.00    +0.051 C 
ATOM      4  C   UNL     1      34.258 -21.455 -19.533  0.00  0.00    +0.151 C 
ATOM      5  C   UNL     1      35.696 -19.903 -20.701  0.00  0.00    +0.074 C 
ATOM      6  C   UNL     1      33.317 -19.895 -21.121  0.00  0.00    +0.007 C 
ATOM      7  C   UNL     1      35.530 -20.940 -19.782  0.00  0.00    +0.102 C 
ATOM      8  C   UNL     1      33.151 -20.932 -20.203  0.00  0.00    +0.038 C 
ENDROOT
BRANCH   3  10
ATOM      9  O   UNL     1      34.921 -18.609 -23.521  0.00  0.00    -0.286 OA
ATOM     10  C   UNL     1      34.702 -18.298 -22.339  0.00  0.00    +0.202 C 
BRANCH  10  12
ATOM     11  S   UNL     1      34.264 -15.737 -23.116  0.00  0.00    -0.083 S 
ATOM     12  C   UNL     1      34.577 -16.887 -21.919  0.00  0.00    +0.068 C 
ATOM     13  C   UNL     1      34.684 -16.397 -20.668  0.00  0.00    +0.010 C 
ATOM     14  C   UNL     1      34.500 -14.984 -20.671  0.00  0.00    +0.008 C 
ATOM     15  C   UNL     1      34.264 -14.495 -21.938  0.00  0.00    +0.036 C 
ENDBRANCH  10  12
ENDBRANCH   3  10
BRANCH   4  16
ATOM     16  O   UNL     1      34.059 -22.469 -18.643  0.00  0.00    -0.463 OA
BRANCH  16  17
ATOM     17  C   UNL     1      32.820 -22.476 -17.937  0.00  0.00    +0.314 C 
BRANCH  17  19
ATOM     18  O   UNL     1      32.030 -23.615 -15.943  0.00  0.00    -0.246 OA
ATOM     19  C   UNL     1      32.938 -23.336 -16.711  0.00  0.00    +0.359 C 
BRANCH  19  20
ATOM     20  O   UNL     1      34.214 -23.774 -16.566  0.00  0.00    -0.478 OA
ATOM     21  H   UNL     1      34.380 -24.674 -16.367  0.00  0.00    +0.295 HD
ENDBRANCH  19  20
ENDBRANCH  17  19
ENDBRANCH  16  17
ENDBRANCH   4  16
TORSDOF 6
ENDMDL
MODEL 4
REMARK VINA RESULT:      -8.5      3.861      8.242
REMARK  Name = 38409
REMARK  6 active torsions:
REMARK  status: ('A' for Active; 'I' for Inactive)
REMARK    1  A    between atoms: C_3  and  C_10
REMARK    2  A    between atoms: C_4  and  O_16
REMARK    3  A    between atoms: C_10  and  C_12
REMARK    4  A    between atoms: O_16  and  C_17
REMARK    5  A    between atoms: C_17  and  C_19
REMARK    6  A    between atoms: C_19  and  O_20
REMARK                            x       y       z     vdW  Elec       q    Type
REMARK                         _______ _______ _______ _____ _____    ______ ____
ROOT
ATOM      1 CL   UNL     1      37.191 -19.087 -20.914  0.00  0.00    -0.081 Cl
ATOM      2 CL   UNL     1      36.827 -21.939 -19.524  0.00  0.00    -0.078 Cl
ATOM      3  C   UNL     1      34.488 -18.989 -20.956  0.00  0.00    +0.051 C 
ATOM      4  C   UNL     1      34.179 -21.482 -19.740  0.00  0.00    +0.151 C 
ATOM      5  C   UNL     1      35.611 -19.734 -20.595  0.00  0.00    +0.074 C 
ATOM      6  C   UNL     1      33.210 -19.490 -20.708  0.00  0.00    +0.007 C 
ATOM      7  C   UNL     1      35.456 -20.980 -19.987  0.00  0.00    +0.102 C 
ATOM      8  C   UNL     1      33.055 -20.737 -20.100  0.00  0.00    +0.038 C 
ENDROOT
BRANCH   3  10
ATOM      9  O   UNL     1      34.651 -16.689 -20.850  0.00  0.00    -0.286 OA
ATOM     10  C   UNL     1      34.589 -17.681 -21.592  0.00  0.00    +0.202 C 
BRANCH  10  12
ATOM     11  S   UNL     1      34.561 -15.992 -23.713  0.00  0.00    -0.083 S 
ATOM     12  C   UNL     1      34.600 -17.552 -23.063  0.00  0.00    +0.068 C 
ATOM     13  C   UNL     1      34.639 -18.548 -23.969  0.00  0.00    +0.010 C 
ATOM     14  C   UNL     1      34.636 -18.018 -25.292  0.00  0.00    +0.008 C 
ATOM     15  C   UNL     1      34.596 -16.640 -25.297  0.00  0.00    +0.036 C 
ENDBRANCH  10  12
ENDBRANCH   3  10
BRANCH   4  16
ATOM     16  O   UNL     1      33.989 -22.696 -19.149  0.00  0.00    -0.463 OA
BRANCH  16  17
ATOM     17  C   UNL     1      33.168 -22.727 -17.984  0.00  0.00    +0.314 C 
BRANCH  17  19
ATOM     18  O   UNL     1      35.198 -23.239 -16.752  0.00  0.00    -0.246 OA
ATOM     19  C   UNL     1      33.979 -23.179 -16.801  0.00  0.00    +0.359 C 
BRANCH  19  20
ATOM     20  O   UNL     1      33.161 -23.516 -15.774  0.00  0.00    -0.478 OA
ATOM     21  H   UNL     1      32.766 -24.365 -15.749  0.00  0.00    +0.295 HD
ENDBRANCH  19  20
ENDBRANCH  17  19
ENDBRANCH  16  17
ENDBRANCH   4  16
TORSDOF 6
ENDMDL
MODEL 5
REMARK VINA RESULT:      -8.5      3.929      5.862
REMARK  Name = 38409
REMARK  6 active torsions:
REMARK  status: ('A' for Active; 'I' for Inactive)
REMARK    1  A    between atoms: C_3  and  C_10
REMARK    2  A    between atoms: C_4  and  O_16
REMARK    3  A    between atoms: C_10  and  C_12
REMARK    4  A    between atoms: O_16  and  C_17
REMARK    5  A    between atoms: C_17  and  C_19
REMARK    6  A    between atoms: C_19  and  O_20
REMARK                            x       y       z     vdW  Elec       q    Type
REMARK                         _______ _______ _______ _____ _____    ______ ____
ROOT
ATOM      1 CL   UNL     1      36.664 -21.848 -19.384  0.00  0.00    -0.081 Cl
ATOM      2 CL   UNL     1      36.777 -19.043 -20.906  0.00  0.00    -0.078 Cl
ATOM      3  C   UNL     1      33.981 -21.661 -19.664  0.00  0.00    +0.051 C 
ATOM      4  C   UNL     1      34.088 -19.210 -20.994  0.00  0.00    +0.151 C 
ATOM      5  C   UNL     1      35.213 -21.055 -19.913  0.00  0.00    +0.074 C 
ATOM      6  C   UNL     1      32.803 -21.042 -20.081  0.00  0.00    +0.007 C 
ATOM      7  C   UNL     1      35.266 -19.830 -20.578  0.00  0.00    +0.102 C 
ATOM      8  C   UNL     1      32.856 -19.816 -20.746  0.00  0.00    +0.038 C 
ENDROOT
BRANCH   3  10
ATOM      9  O   UNL     1      34.090 -23.966 -19.635  0.00  0.00    -0.286 OA
ATOM     10  C   UNL     1      33.864 -22.940 -18.975  0.00  0.00    +0.202 C 
BRANCH  10  12
ATOM     11  S   UNL     1      34.712 -23.129 -16.406  0.00  0.00    -0.083 S 
ATOM     12  C   UNL     1      33.475 -23.003 -17.551  0.00  0.00    +0.068 C 
ATOM     13  C   UNL     1      32.227 -22.972 -17.045  0.00  0.00    +0.010 C 
ATOM     14  C   UNL     1      32.265 -23.055 -15.623  0.00  0.00    +0.008 C 
ATOM     15  C   UNL     1      33.555 -23.145 -15.144  0.00  0.00    +0.036 C 
ENDBRANCH  10  12
ENDBRANCH   3  10
BRANCH   4  16
ATOM     16  O   UNL     1      34.102 -18.013 -21.646  0.00  0.00    -0.463 OA
BRANCH  16  17
ATOM     17  C   UNL     1      33.609 -16.881 -20.932  0.00  0.00    +0.314 C 
BRANCH  17  19
ATOM     18  O   UNL     1      34.911 -14.938 -20.278  0.00  0.00    -0.246 OA
ATOM     19  C   UNL     1      34.523 -15.707 -21.144  0.00  0.00    +0.359 C 
BRANCH  19  20
ATOM     20  O   UNL     1      34.869 -15.612 -22.452  0.00  0.00    -0.478 OA
ATOM     21  H   UNL     1      34.943 -14.770 -22.857  0.00  0.00    +0.295 HD
ENDBRANCH  19  20
ENDBRANCH  17  19
ENDBRANCH  16  17
ENDBRANCH   4  16
TORSDOF 6
ENDMDL
MODEL 6
REMARK VINA RESULT:      -8.3      6.967     11.304
REMARK  Name = 38409
REMARK  6 active torsions:
REMARK  status: ('A' for Active; 'I' for Inactive)
REMARK    1  A    between atoms: C_3  and  C_10
REMARK    2  A    between atoms: C_4  and  O_16
REMARK    3  A    between atoms: C_10  and  C_12
REMARK    4  A    between atoms: O_16  and  C_17
REMARK    5  A    between atoms: C_17  and  C_19
REMARK    6  A    between atoms: C_19  and  O_20
REMARK                            x       y       z     vdW  Elec       q    Type
REMARK                         _______ _______ _______ _____ _____    ______ ____
ROOT
ATOM      1 CL   UNL     1      32.209 -23.514 -16.896  0.00  0.00    -0.081 Cl
ATOM      2 CL   UNL     1      33.364 -23.607 -13.920  0.00  0.00    -0.078 Cl
ATOM      3  C   UNL     1      34.696 -22.735 -17.619  0.00  0.00    +0.051 C 
ATOM      4  C   UNL     1      35.698 -22.819 -15.016  0.00  0.00    +0.151 C 
ATOM      5  C   UNL     1      33.864 -23.108 -16.563  0.00  0.00    +0.074 C 
ATOM      6  C   UNL     1      36.029 -22.406 -17.374  0.00  0.00    +0.007 C 
ATOM      7  C   UNL     1      34.366 -23.150 -15.262  0.00  0.00    +0.102 C 
ATOM      8  C   UNL     1      36.530 -22.448 -16.072  0.00  0.00    +0.038 C 
ENDROOT
BRANCH   3  10
ATOM      9  O   UNL     1      33.981 -23.751 -19.565  0.00  0.00    -0.286 OA
ATOM     10  C   UNL     1      34.228 -22.675 -18.999  0.00  0.00    +0.202 C 
BRANCH  10  12
ATOM     11  S   UNL     1      35.468 -20.653 -20.313  0.00  0.00    -0.083 S 
ATOM     12  C   UNL     1      34.075 -21.380 -19.692  0.00  0.00    +0.068 C 
ATOM     13  C   UNL     1      32.933 -20.693 -19.893  0.00  0.00    +0.010 C 
ATOM     14  C   UNL     1      33.197 -19.487 -20.603  0.00  0.00    +0.008 C 
ATOM     15  C   UNL     1      34.536 -19.340 -20.895  0.00  0.00    +0.036 C 
ENDBRANCH  10  12
ENDBRANCH   3  10
BRANCH   4  16
ATOM     16  O   UNL     1      36.221 -22.849 -13.757  0.00  0.00    -0.463 OA
BRANCH  16  17
ATOM     17  C   UNL     1      37.198 -23.851 -13.486  0.00  0.00    +0.314 C 
BRANCH  17  19
ATOM     18  O   UNL     1      37.743 -24.565 -11.229  0.00  0.00    -0.246 OA
ATOM     19  C   UNL     1      37.714 -23.692 -12.083  0.00  0.00    +0.359 C 
BRANCH  19  20
ATOM     20  O   UNL     1      38.154 -22.424 -11.887  0.00  0.00    -0.478 OA
ATOM     21  H   UNL     1      39.052 -22.269 -11.670  0.00  0.00    +0.295 HD
ENDBRANCH  19  20
ENDBRANCH  17  19
ENDBRANCH  16  17
ENDBRANCH   4  16
TORSDOF 6
ENDMDL
MODEL 7
REMARK VINA RESULT:      -8.1      2.830      3.825
REMARK  Name = 38409
REMARK  6 active torsions:
REMARK  status: ('A' for Active; 'I' for Inactive)
REMARK    1  A    between atoms: C_3  and  C_10
REMARK    2  A    between atoms: C_4  and  O_16
REMARK    3  A    between atoms: C_10  and  C_12
REMARK    4  A    between atoms: O_16  and  C_17
REMARK    5  A    between atoms: C_17  and  C_19
REMARK    6  A    between atoms: C_19  and  O_20
REMARK                            x       y       z     vdW  Elec       q    Type
REMARK                         _______ _______ _______ _____ _____    ______ ____
ROOT
ATOM      1 CL   UNL     1      34.897 -17.423 -24.524  0.00  0.00    -0.081 Cl
ATOM      2 CL   UNL     1      33.234 -14.698 -24.621  0.00  0.00    -0.078 Cl
ATOM      3  C   UNL     1      34.989 -17.034 -21.849  0.00  0.00    +0.051 C 
ATOM      4  C   UNL     1      33.535 -14.654 -21.942  0.00  0.00    +0.151 C 
ATOM      5  C   UNL     1      34.538 -16.539 -23.073  0.00  0.00    +0.074 C 
ATOM      6  C   UNL     1      34.711 -16.340 -20.672  0.00  0.00    +0.007 C 
ATOM      7  C   UNL     1      33.811 -15.349 -23.119  0.00  0.00    +0.102 C 
ATOM      8  C   UNL     1      33.984 -15.150 -20.718  0.00  0.00    +0.038 C 
ENDROOT
BRANCH   3  10
ATOM      9  O   UNL     1      36.854 -18.314 -22.305  0.00  0.00    -0.286 OA
ATOM     10  C   UNL     1      35.751 -18.272 -21.740  0.00  0.00    +0.202 C 
BRANCH  10  12
ATOM     11  S   UNL     1      33.539 -19.646 -20.986  0.00  0.00    -0.083 S 
ATOM     12  C   UNL     1      35.215 -19.430 -20.997  0.00  0.00    +0.068 C 
ATOM     13  C   UNL     1      35.915 -20.355 -20.313  0.00  0.00    +0.010 C 
ATOM     14  C   UNL     1      35.037 -21.315 -19.732  0.00  0.00    +0.008 C 
ATOM     15  C   UNL     1      33.716 -21.049 -20.020  0.00  0.00    +0.036 C 
ENDBRANCH  10  12
ENDBRANCH   3  10
BRANCH   4  16
ATOM     16  O   UNL     1      32.828 -13.488 -21.950  0.00  0.00    -0.463 OA
BRANCH  16  17
ATOM     17  C   UNL     1      32.337 -13.020 -20.696  0.00  0.00    +0.314 C 
BRANCH  17  19
ATOM     18  O   UNL     1      30.966 -11.121 -20.054  0.00  0.00    -0.246 OA
ATOM     19  C   UNL     1      31.383 -11.880 -20.915  0.00  0.00    +0.359 C 
BRANCH  19  20
ATOM     20  O   UNL     1      31.038 -11.803 -22.225  0.00  0.00    -0.478 OA
ATOM     21  H   UNL     1      30.136 -11.722 -22.467  0.00  0.00    +0.295 HD
ENDBRANCH  19  20
ENDBRANCH  17  19
ENDBRANCH  16  17
ENDBRANCH   4  16
TORSDOF 6
ENDMDL
MODEL 8
REMARK VINA RESULT:      -8.0     10.349     11.375
REMARK  Name = 38409
REMARK  6 active torsions:
REMARK  status: ('A' for Active; 'I' for Inactive)
REMARK    1  A    between atoms: C_3  and  C_10
REMARK    2  A    between atoms: C_4  and  O_16
REMARK    3  A    between atoms: C_10  and  C_12
REMARK    4  A    between atoms: O_16  and  C_17
REMARK    5  A    between atoms: C_17  and  C_19
REMARK    6  A    between atoms: C_19  and  O_20
REMARK                            x       y       z     vdW  Elec       q    Type
REMARK                         _______ _______ _______ _____ _____    ______ ____
ROOT
ATOM      1 CL   UNL     1      33.924 -24.273 -12.909  0.00  0.00    -0.081 Cl
ATOM      2 CL   UNL     1      30.769 -24.467 -13.370  0.00  0.00    -0.078 Cl
ATOM      3  C   UNL     1      34.053 -23.538 -15.509  0.00  0.00    +0.051 C 
ATOM      4  C   UNL     1      31.296 -23.710 -15.903  0.00  0.00    +0.151 C 
ATOM      5  C   UNL     1      33.219 -23.915 -14.455  0.00  0.00    +0.074 C 
ATOM      6  C   UNL     1      33.508 -23.246 -16.759  0.00  0.00    +0.007 C 
ATOM      7  C   UNL     1      31.841 -24.001 -14.653  0.00  0.00    +0.102 C 
ATOM      8  C   UNL     1      32.129 -23.332 -16.956  0.00  0.00    +0.038 C 
ENDROOT
BRANCH   3  10
ATOM      9  O   UNL     1      36.004 -22.305 -15.495  0.00  0.00    -0.286 OA
ATOM     10  C   UNL     1      35.499 -23.430 -15.360  0.00  0.00    +0.202 C 
BRANCH  10  12
ATOM     11  S   UNL     1      37.811 -24.383 -14.312  0.00  0.00    -0.083 S 
ATOM     12  C   UNL     1      36.324 -24.623 -15.078  0.00  0.00    +0.068 C 
ATOM     13  C   UNL     1      36.027 -25.906 -15.363  0.00  0.00    +0.010 C 
ATOM     14  C   UNL     1      37.078 -26.766 -14.932  0.00  0.00    +0.008 C 
ATOM     15  C   UNL     1      38.110 -26.068 -14.344  0.00  0.00    +0.036 C 
ENDBRANCH  10  12
ENDBRANCH   3  10
BRANCH   4  16
ATOM     16  O   UNL     1      29.954 -23.784 -16.132  0.00  0.00    -0.463 OA
BRANCH  16  17
ATOM     17  C   UNL     1      29.211 -22.571 -16.025  0.00  0.00    +0.314 C 
BRANCH  17  19
ATOM     18  O   UNL     1      27.301 -21.674 -17.227  0.00  0.00    -0.246 OA
ATOM     19  C   UNL     1      28.026 -22.617 -16.949  0.00  0.00    +0.359 C 
BRANCH  19  20
ATOM     20  O   UNL     1      27.865 -23.870 -17.443  0.00  0.00    -0.478 OA
ATOM     21  H   UNL     1      28.549 -24.266 -17.945  0.00  0.00    +0.295 HD
ENDBRANCH  19  20
ENDBRANCH  17  19
ENDBRANCH  16  17
ENDBRANCH   4  16
TORSDOF 6
ENDMDL
MODEL 9
REMARK VINA RESULT:      -8.0      9.985     11.275
REMARK  Name = 38409
REMARK  6 active torsions:
REMARK  status: ('A' for Active; 'I' for Inactive)
REMARK    1  A    between atoms: C_3  and  C_10
REMARK    2  A    between atoms: C_4  and  O_16
REMARK    3  A    between atoms: C_10  and  C_12
REMARK    4  A    between atoms: O_16  and  C_17
REMARK    5  A    between atoms: C_17  and  C_19
REMARK    6  A    between atoms: C_19  and  O_20
REMARK                            x       y       z     vdW  Elec       q    Type
REMARK                         _______ _______ _______ _____ _____    ______ ____
ROOT
ATOM      1 CL   UNL     1      35.621 -22.872 -16.519  0.00  0.00    -0.081 Cl
ATOM      2 CL   UNL     1      32.985 -22.328 -18.237  0.00  0.00    -0.078 Cl
ATOM      3  C   UNL     1      33.943 -23.814 -14.619  0.00  0.00    +0.051 C 
ATOM      4  C   UNL     1      31.644 -23.336 -16.127  0.00  0.00    +0.151 C 
ATOM      5  C   UNL     1      34.048 -23.258 -15.894  0.00  0.00    +0.074 C 
ATOM      6  C   UNL     1      32.689 -24.133 -14.099  0.00  0.00    +0.007 C 
ATOM      7  C   UNL     1      32.898 -23.019 -16.648  0.00  0.00    +0.102 C 
ATOM      8  C   UNL     1      31.539 -23.894 -14.852  0.00  0.00    +0.038 C 
ENDROOT
BRANCH   3  10
ATOM      9  O   UNL     1      35.189 -23.487 -12.704  0.00  0.00    -0.286 OA
ATOM     10  C   UNL     1      35.108 -24.087 -13.787  0.00  0.00    +0.202 C 
BRANCH  10  12
ATOM     11  S   UNL     1      37.743 -24.725 -13.741  0.00  0.00    -0.083 S 
ATOM     12  C   UNL     1      36.155 -25.029 -14.233  0.00  0.00    +0.068 C 
ATOM     13  C   UNL     1      35.994 -26.124 -15.000  0.00  0.00    +0.010 C 
ATOM     14  C   UNL     1      37.245 -26.772 -15.211  0.00  0.00    +0.008 C 
ATOM     15  C   UNL     1      38.280 -26.116 -14.582  0.00  0.00    +0.036 C 
ENDBRANCH  10  12
ENDBRANCH   3  10
BRANCH   4  16
ATOM     16  O   UNL     1      30.499 -23.116 -16.835  0.00  0.00    -0.463 OA
BRANCH  16  17
ATOM     17  C   UNL     1      29.282 -23.058 -16.095  0.00  0.00    +0.314 C 
BRANCH  17  19
ATOM     18  O   UNL     1      27.638 -23.887 -17.679  0.00  0.00    -0.246 OA
ATOM     19  C   UNL     1      28.116 -22.963 -17.040  0.00  0.00    +0.359 C 
BRANCH  19  20
ATOM     20  O   UNL     1      27.656 -21.688 -17.089  0.00  0.00    -0.478 OA
ATOM     21  H   UNL     1      27.374 -21.261 -16.304  0.00  0.00    +0.295 HD
ENDBRANCH  19  20
ENDBRANCH  17  19
ENDBRANCH  16  17
ENDBRANCH   4  16
TORSDOF 6
ENDMDL
