MODEL 1
REMARK VINA RESULT:     -10.1      0.000      0.000
REMARK  Name = 448940
REMARK  3 active torsions:
REMARK  status: ('A' for Active; 'I' for Inactive)
REMARK    1  A    between atoms: N_3  and  C_20
REMARK    2  A    between atoms: C_4  and  C_15
REMARK    3  A    between atoms: C_20  and  C_21
REMARK                            x       y       z     vdW  Elec       q    Type
REMARK                         _______ _______ _______ _____ _____    ______ ____
ROOT
ATOM      1  O   UNL     1      32.153 -13.375 -20.627  0.00  0.00    -0.341 OA
ATOM      2  O   UNL     1      34.981 -15.301 -20.227  0.00  0.00    -0.272 OA
ATOM      3  N   UNL     1      33.873 -14.826 -22.228  0.00  0.00    -0.271 N 
ATOM      4  C   UNL     1      31.906 -13.353 -22.038  0.00  0.00    +0.158 C 
ATOM      5  C   UNL     1      32.574 -14.507 -22.800  0.00  0.00    +0.128 C 
ATOM      6  C   UNL     1      32.688 -14.592 -20.138  0.00  0.00    +0.227 C 
ATOM      7  C   UNL     1      33.984 -14.938 -20.844  0.00  0.00    +0.256 C 
ENDROOT
BRANCH   4  15
ATOM      8  S   UNL     1      32.372  -7.136 -23.210  0.00  0.00    +0.061 S 
ATOM      9  O   UNL     1      33.112  -6.671 -22.052  0.00  0.00    -0.154 OA
ATOM     10  O   UNL     1      31.719  -6.210 -24.113  0.00  0.00    -0.154 OA
ATOM     11  N   UNL     1      33.356  -8.231 -24.120  0.00  0.00    -0.193 N 
ATOM     12  C   UNL     1      31.964  -9.642 -22.833  0.00  0.00    +0.018 C 
ATOM     13  C   UNL     1      31.197  -8.369 -22.655  0.00  0.00    +0.200 C 
ATOM     14  C   UNL     1      33.142  -9.544 -23.581  0.00  0.00    +0.066 C 
ATOM     15  C   UNL     1      32.333 -12.005 -22.586  0.00  0.00    +0.006 C 
ATOM     16  C   UNL     1      31.558 -10.873 -22.327  0.00  0.00    -0.003 C 
ATOM     17  C   UNL     1      33.897 -10.673 -23.878  0.00  0.00    +0.016 C 
ATOM     18  C   UNL     1      33.494 -11.905 -23.361  0.00  0.00    -0.001 C 
ATOM     19  C   UNL     1      34.724  -7.801 -24.469  0.00  0.00    +0.139 C 
ENDBRANCH   4  15
BRANCH   3  20
ATOM     20  C   UNL     1      34.964 -15.170 -23.122  0.00  0.00    +0.120 C 
BRANCH  20  21
ATOM     21  C   UNL     1      34.885 -16.603 -23.576  0.00  0.00    -0.002 C 
ATOM     22  C   UNL     1      34.443 -16.889 -24.861  0.00  0.00    -0.003 C 
ATOM     23  C   UNL     1      35.253 -17.618 -22.705  0.00  0.00    -0.003 C 
ATOM     24  C   UNL     1      34.369 -18.217 -25.282  0.00  0.00    -0.000 C 
ATOM     25  C   UNL     1      35.179 -18.946 -23.126  0.00  0.00    -0.000 C 
ATOM     26  C   UNL     1      34.738 -19.246 -24.414  0.00  0.00    -0.000 C 
ENDBRANCH  20  21
ENDBRANCH   3  20
TORSDOF 3
ENDMDL
MODEL 2
REMARK VINA RESULT:      -9.4      3.479      8.337
REMARK  Name = 448940
REMARK  3 active torsions:
REMARK  status: ('A' for Active; 'I' for Inactive)
REMARK    1  A    between atoms: N_3  and  C_20
REMARK    2  A    between atoms: C_4  and  C_15
REMARK    3  A    between atoms: C_20  and  C_21
REMARK                            x       y       z     vdW  Elec       q    Type
REMARK                         _______ _______ _______ _____ _____    ______ ____
ROOT
ATOM      1  O   UNL     1      33.546 -13.700 -27.073  0.00  0.00    -0.341 OA
ATOM      2  O   UNL     1      35.404 -10.867 -26.450  0.00  0.00    -0.272 OA
ATOM      3  N   UNL     1      33.861 -11.881 -25.018  0.00  0.00    -0.271 N 
ATOM      4  C   UNL     1      32.798 -13.935 -25.873  0.00  0.00    +0.158 C 
ATOM      5  C   UNL     1      32.653 -12.692 -24.983  0.00  0.00    +0.128 C 
ATOM      6  C   UNL     1      33.749 -12.335 -27.387  0.00  0.00    +0.227 C 
ATOM      7  C   UNL     1      34.450 -11.615 -26.252  0.00  0.00    +0.256 C 
ENDROOT
BRANCH   4  15
ATOM      8  S   UNL     1      34.778 -17.854 -21.293  0.00  0.00    +0.061 S 
ATOM      9  O   UNL     1      33.568 -18.598 -20.998  0.00  0.00    -0.154 OA
ATOM     10  O   UNL     1      35.936 -17.917 -20.426  0.00  0.00    -0.154 OA
ATOM     11  N   UNL     1      35.262 -18.168 -22.925  0.00  0.00    -0.193 N 
ATOM     12  C   UNL     1      34.121 -16.102 -23.051  0.00  0.00    +0.018 C 
ATOM     13  C   UNL     1      34.319 -16.144 -21.568  0.00  0.00    +0.200 C 
ATOM     14  C   UNL     1      34.589 -17.213 -23.760  0.00  0.00    +0.066 C 
ATOM     15  C   UNL     1      33.436 -15.086 -25.119  0.00  0.00    +0.006 C 
ATOM     16  C   UNL     1      33.537 -15.036 -23.728  0.00  0.00    -0.003 C 
ATOM     17  C   UNL     1      34.530 -17.253 -25.149  0.00  0.00    +0.016 C 
ATOM     18  C   UNL     1      33.934 -16.187 -25.826  0.00  0.00    -0.001 C 
ATOM     19  C   UNL     1      35.353 -19.576 -23.358  0.00  0.00    +0.139 C 
ENDBRANCH   4  15
BRANCH   3  20
ATOM     20  C   UNL     1      34.316 -11.253 -23.791  0.00  0.00    +0.120 C 
BRANCH  20  21
ATOM     21  C   UNL     1      33.906  -9.807 -23.717  0.00  0.00    -0.002 C 
ATOM     22  C   UNL     1      34.849  -8.816 -23.957  0.00  0.00    -0.003 C 
ATOM     23  C   UNL     1      32.592  -9.484 -23.410  0.00  0.00    -0.003 C 
ATOM     24  C   UNL     1      34.469  -7.476 -23.888  0.00  0.00    -0.000 C 
ATOM     25  C   UNL     1      32.213  -8.143 -23.341  0.00  0.00    -0.000 C 
ATOM     26  C   UNL     1      33.150  -7.139 -23.580  0.00  0.00    -0.000 C 
ENDBRANCH  20  21
ENDBRANCH   3  20
TORSDOF 3
ENDMDL
MODEL 3
REMARK VINA RESULT:      -9.4      1.288      2.146
REMARK  Name = 448940
REMARK  3 active torsions:
REMARK  status: ('A' for Active; 'I' for Inactive)
REMARK    1  A    between atoms: N_3  and  C_20
REMARK    2  A    between atoms: C_4  and  C_15
REMARK    3  A    between atoms: C_20  and  C_21
REMARK                            x       y       z     vdW  Elec       q    Type
REMARK                         _______ _______ _______ _____ _____    ______ ____
ROOT
ATOM      1  O   UNL     1      32.009 -13.390 -19.859  0.00  0.00    -0.341 OA
ATOM      2  O   UNL     1      34.925 -15.163 -20.331  0.00  0.00    -0.272 OA
ATOM      3  N   UNL     1      33.553 -14.246 -21.984  0.00  0.00    -0.271 N 
ATOM      4  C   UNL     1      31.580 -13.009 -21.172  0.00  0.00    +0.158 C 
ATOM      5  C   UNL     1      32.181 -13.871 -22.292  0.00  0.00    +0.128 C 
ATOM      6  C   UNL     1      32.641 -14.655 -19.786  0.00  0.00    +0.227 C 
ATOM      7  C   UNL     1      33.845 -14.715 -20.705  0.00  0.00    +0.256 C 
ENDROOT
BRANCH   4  15
ATOM      8  S   UNL     1      33.021  -7.399 -23.761  0.00  0.00    +0.061 S 
ATOM      9  O   UNL     1      31.748  -7.001 -24.331  0.00  0.00    -0.154 OA
ATOM     10  O   UNL     1      34.249  -6.708 -24.094  0.00  0.00    -0.154 OA
ATOM     11  N   UNL     1      32.870  -7.508 -22.040  0.00  0.00    -0.193 N 
ATOM     12  C   UNL     1      32.657  -9.743 -22.779  0.00  0.00    +0.018 C 
ATOM     13  C   UNL     1      33.223  -9.158 -24.035  0.00  0.00    +0.200 C 
ATOM     14  C   UNL     1      32.430  -8.840 -21.734  0.00  0.00    +0.066 C 
ATOM     15  C   UNL     1      31.889 -11.538 -21.377  0.00  0.00    +0.006 C 
ATOM     16  C   UNL     1      32.381 -11.096 -22.605  0.00  0.00    -0.003 C 
ATOM     17  C   UNL     1      31.980  -9.279 -20.494  0.00  0.00    +0.016 C 
ATOM     18  C   UNL     1      31.694 -10.635 -20.325  0.00  0.00    -0.001 C 
ATOM     19  C   UNL     1      32.272  -6.363 -21.326  0.00  0.00    +0.139 C 
ENDBRANCH   4  15
BRANCH   3  20
ATOM     20  C   UNL     1      34.529 -14.266 -23.058  0.00  0.00    +0.120 C 
BRANCH  20  21
ATOM     21  C   UNL     1      34.526 -15.580 -23.792  0.00  0.00    -0.002 C 
ATOM     22  C   UNL     1      35.201 -16.666 -23.251  0.00  0.00    -0.003 C 
ATOM     23  C   UNL     1      33.850 -15.688 -24.999  0.00  0.00    -0.003 C 
ATOM     24  C   UNL     1      35.199 -17.884 -23.931  0.00  0.00    -0.000 C 
ATOM     25  C   UNL     1      33.848 -16.906 -25.679  0.00  0.00    -0.000 C 
ATOM     26  C   UNL     1      34.522 -18.004 -25.145  0.00  0.00    -0.000 C 
ENDBRANCH  20  21
ENDBRANCH   3  20
TORSDOF 3
ENDMDL
MODEL 4
REMARK VINA RESULT:      -9.3      2.846      8.662
REMARK  Name = 448940
REMARK  3 active torsions:
REMARK  status: ('A' for Active; 'I' for Inactive)
REMARK    1  A    between atoms: N_3  and  C_20
REMARK    2  A    between atoms: C_4  and  C_15
REMARK    3  A    between atoms: C_20  and  C_21
REMARK                            x       y       z     vdW  Elec       q    Type
REMARK                         _______ _______ _______ _____ _____    ______ ____
ROOT
ATOM      1  O   UNL     1      34.962 -10.813 -24.678  0.00  0.00    -0.341 OA
ATOM      2  O   UNL     1      35.005  -7.841 -22.937  0.00  0.00    -0.272 OA
ATOM      3  N   UNL     1      33.128  -9.107 -23.512  0.00  0.00    -0.271 N 
ATOM      4  C   UNL     1      33.584 -11.205 -24.725  0.00  0.00    +0.158 C 
ATOM      5  C   UNL     1      32.605 -10.045 -24.494  0.00  0.00    +0.128 C 
ATOM      6  C   UNL     1      35.183  -9.416 -24.742  0.00  0.00    +0.227 C 
ATOM      7  C   UNL     1      34.455  -8.699 -23.622  0.00  0.00    +0.256 C 
ENDROOT
BRANCH   4  15
ATOM      8  S   UNL     1      34.249 -16.465 -21.242  0.00  0.00    +0.061 S 
ATOM      9  O   UNL     1      35.203 -16.036 -20.237  0.00  0.00    -0.154 OA
ATOM     10  O   UNL     1      33.915 -17.863 -21.421  0.00  0.00    -0.154 OA
ATOM     11  N   UNL     1      32.794 -15.541 -21.085  0.00  0.00    -0.193 N 
ATOM     12  C   UNL     1      33.963 -14.480 -22.844  0.00  0.00    +0.018 C 
ATOM     13  C   UNL     1      34.744 -15.756 -22.811  0.00  0.00    +0.200 C 
ATOM     14  C   UNL     1      32.953 -14.358 -21.884  0.00  0.00    +0.066 C 
ATOM     15  C   UNL     1      33.363 -12.326 -23.729  0.00  0.00    +0.006 C 
ATOM     16  C   UNL     1      34.176 -13.460 -23.766  0.00  0.00    -0.003 C 
ATOM     17  C   UNL     1      32.112 -13.251 -21.865  0.00  0.00    +0.016 C 
ATOM     18  C   UNL     1      32.333 -12.225 -22.786  0.00  0.00    -0.001 C 
ATOM     19  C   UNL     1      32.185 -15.437 -19.745  0.00  0.00    +0.139 C 
ENDBRANCH   4  15
BRANCH   3  20
ATOM     20  C   UNL     1      32.212  -8.514 -22.556  0.00  0.00    +0.120 C 
BRANCH  20  21
ATOM     21  C   UNL     1      31.823  -7.114 -22.947  0.00  0.00    -0.002 C 
ATOM     22  C   UNL     1      31.893  -6.097 -22.005  0.00  0.00    -0.003 C 
ATOM     23  C   UNL     1      31.399  -6.859 -24.243  0.00  0.00    -0.003 C 
ATOM     24  C   UNL     1      31.533  -4.799 -22.367  0.00  0.00    -0.000 C 
ATOM     25  C   UNL     1      31.038  -5.561 -24.605  0.00  0.00    -0.000 C 
ATOM     26  C   UNL     1      31.105  -4.531 -23.668  0.00  0.00    -0.000 C 
ENDBRANCH  20  21
ENDBRANCH   3  20
TORSDOF 3
ENDMDL
MODEL 5
REMARK VINA RESULT:      -9.2      2.085      3.063
REMARK  Name = 448940
REMARK  3 active torsions:
REMARK  status: ('A' for Active; 'I' for Inactive)
REMARK    1  A    between atoms: N_3  and  C_20
REMARK    2  A    between atoms: C_4  and  C_15
REMARK    3  A    between atoms: C_20  and  C_21
REMARK                            x       y       z     vdW  Elec       q    Type
REMARK                         _______ _______ _______ _____ _____    ______ ____
ROOT
ATOM      1  O   UNL     1      31.990 -13.677 -19.883  0.00  0.00    -0.341 OA
ATOM      2  O   UNL     1      35.014 -15.229 -20.443  0.00  0.00    -0.272 OA
ATOM      3  N   UNL     1      33.617 -14.252 -22.040  0.00  0.00    -0.271 N 
ATOM      4  C   UNL     1      31.561 -13.208 -21.167  0.00  0.00    +0.158 C 
ATOM      5  C   UNL     1      32.230 -13.932 -22.344  0.00  0.00    +0.128 C 
ATOM      6  C   UNL     1      32.695 -14.905 -19.906  0.00  0.00    +0.227 C 
ATOM      7  C   UNL     1      33.916 -14.813 -20.801  0.00  0.00    +0.256 C 
ENDROOT
BRANCH   4  15
ATOM      8  S   UNL     1      32.304  -7.259 -23.242  0.00  0.00    +0.061 S 
ATOM      9  O   UNL     1      30.931  -6.860 -23.492  0.00  0.00    -0.154 OA
ATOM     10  O   UNL     1      33.421  -6.471 -23.721  0.00  0.00    -0.154 OA
ATOM     11  N   UNL     1      32.509  -7.584 -21.555  0.00  0.00    -0.193 N 
ATOM     12  C   UNL     1      32.206  -9.720 -22.520  0.00  0.00    +0.018 C 
ATOM     13  C   UNL     1      32.489  -8.959 -23.777  0.00  0.00    +0.200 C 
ATOM     14  C   UNL     1      32.174  -8.964 -21.343  0.00  0.00    +0.066 C 
ATOM     15  C   UNL     1      31.785 -11.709 -21.237  0.00  0.00    +0.006 C 
ATOM     16  C   UNL     1      32.005 -11.096 -22.471  0.00  0.00    -0.003 C 
ATOM     17  C   UNL     1      31.997  -9.572 -20.105  0.00  0.00    +0.016 C 
ATOM     18  C   UNL     1      31.786 -10.952 -20.060  0.00  0.00    -0.001 C 
ATOM     19  C   UNL     1      32.041  -6.566 -20.594  0.00  0.00    +0.139 C 
ENDBRANCH   4  15
BRANCH   3  20
ATOM     20  C   UNL     1      34.610 -14.122 -23.090  0.00  0.00    +0.120 C 
BRANCH  20  21
ATOM     21  C   UNL     1      33.974 -13.931 -24.441  0.00  0.00    -0.002 C 
ATOM     22  C   UNL     1      33.917 -12.660 -24.996  0.00  0.00    -0.003 C 
ATOM     23  C   UNL     1      33.453 -15.028 -25.112  0.00  0.00    -0.003 C 
ATOM     24  C   UNL     1      33.328 -12.483 -26.248  0.00  0.00    -0.000 C 
ATOM     25  C   UNL     1      32.863 -14.851 -26.364  0.00  0.00    -0.000 C 
ATOM     26  C   UNL     1      32.801 -13.579 -26.932  0.00  0.00    -0.000 C 
ENDBRANCH  20  21
ENDBRANCH   3  20
TORSDOF 3
ENDMDL
MODEL 6
REMARK VINA RESULT:      -8.7      2.765      7.660
REMARK  Name = 448940
REMARK  3 active torsions:
REMARK  status: ('A' for Active; 'I' for Inactive)
REMARK    1  A    between atoms: N_3  and  C_20
REMARK    2  A    between atoms: C_4  and  C_15
REMARK    3  A    between atoms: C_20  and  C_21
REMARK                            x       y       z     vdW  Elec       q    Type
REMARK                         _______ _______ _______ _____ _____    ______ ____
ROOT
ATOM      1  O   UNL     1      35.078 -10.779 -24.421  0.00  0.00    -0.341 OA
ATOM      2  O   UNL     1      34.331  -7.863 -22.744  0.00  0.00    -0.272 OA
ATOM      3  N   UNL     1      32.817  -9.365 -23.698  0.00  0.00    -0.271 N 
ATOM      4  C   UNL     1      33.810 -11.355 -24.760  0.00  0.00    +0.158 C 
ATOM      5  C   UNL     1      32.653 -10.347 -24.759  0.00  0.00    +0.128 C 
ATOM      6  C   UNL     1      35.111  -9.363 -24.451  0.00  0.00    +0.227 C 
ATOM      7  C   UNL     1      34.067  -8.775 -23.522  0.00  0.00    +0.256 C 
ENDROOT
BRANCH   4  15
ATOM      8  S   UNL     1      34.356 -16.677 -21.351  0.00  0.00    +0.061 S 
ATOM      9  O   UNL     1      35.165 -16.230 -20.232  0.00  0.00    -0.154 OA
ATOM     10  O   UNL     1      34.120 -18.084 -21.600  0.00  0.00    -0.154 OA
ATOM     11  N   UNL     1      32.845 -15.833 -21.340  0.00  0.00    -0.193 N 
ATOM     12  C   UNL     1      34.148 -14.662 -22.927  0.00  0.00    +0.018 C 
ATOM     13  C   UNL     1      34.988 -15.897 -22.835  0.00  0.00    +0.200 C 
ATOM     14  C   UNL     1      33.030 -14.620 -22.087  0.00  0.00    +0.066 C 
ATOM     15  C   UNL     1      33.538 -12.516 -23.823  0.00  0.00    +0.006 C 
ATOM     16  C   UNL     1      34.410 -13.605 -23.794  0.00  0.00    -0.003 C 
ATOM     17  C   UNL     1      32.134 -13.559 -22.139  0.00  0.00    +0.016 C 
ATOM     18  C   UNL     1      32.403 -12.495 -23.003  0.00  0.00    -0.001 C 
ATOM     19  C   UNL     1      32.082 -15.800 -20.077  0.00  0.00    +0.139 C 
ENDBRANCH   4  15
BRANCH   3  20
ATOM     20  C   UNL     1      31.643  -8.923 -22.968  0.00  0.00    +0.120 C 
BRANCH  20  21
ATOM     21  C   UNL     1      31.600  -9.497 -21.577  0.00  0.00    -0.002 C 
ATOM     22  C   UNL     1      32.361  -8.913 -20.573  0.00  0.00    -0.003 C 
ATOM     23  C   UNL     1      30.801 -10.602 -21.317  0.00  0.00    -0.003 C 
ATOM     24  C   UNL     1      32.321  -9.445 -19.284  0.00  0.00    -0.000 C 
ATOM     25  C   UNL     1      30.762 -11.133 -20.028  0.00  0.00    -0.000 C 
ATOM     26  C   UNL     1      31.521 -10.555 -19.012  0.00  0.00    -0.000 C 
ENDBRANCH  20  21
ENDBRANCH   3  20
TORSDOF 3
ENDMDL
MODEL 7
REMARK VINA RESULT:      -8.7      3.245      8.552
REMARK  Name = 448940
REMARK  3 active torsions:
REMARK  status: ('A' for Active; 'I' for Inactive)
REMARK    1  A    between atoms: N_3  and  C_20
REMARK    2  A    between atoms: C_4  and  C_15
REMARK    3  A    between atoms: C_20  and  C_21
REMARK                            x       y       z     vdW  Elec       q    Type
REMARK                         _______ _______ _______ _____ _____    ______ ____
ROOT
ATOM      1  O   UNL     1      34.887 -11.569 -25.580  0.00  0.00    -0.341 OA
ATOM      2  O   UNL     1      35.201  -8.767 -23.599  0.00  0.00    -0.272 OA
ATOM      3  N   UNL     1      33.365 -10.207 -23.720  0.00  0.00    -0.271 N 
ATOM      4  C   UNL     1      33.608 -12.124 -25.250  0.00  0.00    +0.158 C 
ATOM      5  C   UNL     1      32.649 -11.119 -24.598  0.00  0.00    +0.128 C 
ATOM      6  C   UNL     1      34.946 -10.154 -25.544  0.00  0.00    +0.227 C 
ATOM      7  C   UNL     1      34.546  -9.628 -24.180  0.00  0.00    +0.256 C 
ENDROOT
BRANCH   4  15
ATOM      8  S   UNL     1      34.934 -17.971 -23.177  0.00  0.00    +0.061 S 
ATOM      9  O   UNL     1      36.385 -17.952 -23.148  0.00  0.00    -0.154 OA
ATOM     10  O   UNL     1      34.190 -19.207 -23.046  0.00  0.00    -0.154 OA
ATOM     11  N   UNL     1      34.322 -16.808 -22.052  0.00  0.00    -0.193 N 
ATOM     12  C   UNL     1      34.215 -15.702 -24.138  0.00  0.00    +0.018 C 
ATOM     13  C   UNL     1      34.401 -17.097 -24.647  0.00  0.00    +0.200 C 
ATOM     14  C   UNL     1      34.221 -15.555 -22.746  0.00  0.00    +0.066 C 
ATOM     15  C   UNL     1      33.819 -13.342 -24.372  0.00  0.00    +0.006 C 
ATOM     16  C   UNL     1      34.020 -14.594 -24.956  0.00  0.00    -0.003 C 
ATOM     17  C   UNL     1      33.980 -14.320 -22.156  0.00  0.00    +0.016 C 
ATOM     18  C   UNL     1      33.794 -13.207 -22.979  0.00  0.00    -0.001 C 
ATOM     19  C   UNL     1      34.852 -16.835 -20.675  0.00  0.00    +0.139 C 
ENDBRANCH   4  15
BRANCH   3  20
ATOM     20  C   UNL     1      32.747  -9.813 -22.467  0.00  0.00    +0.120 C 
BRANCH  20  21
ATOM     21  C   UNL     1      32.211  -8.408 -22.524  0.00  0.00    -0.002 C 
ATOM     22  C   UNL     1      31.397  -8.031 -23.584  0.00  0.00    -0.003 C 
ATOM     23  C   UNL     1      32.538  -7.510 -21.519  0.00  0.00    -0.003 C 
ATOM     24  C   UNL     1      30.900  -6.728 -23.637  0.00  0.00    -0.000 C 
ATOM     25  C   UNL     1      32.040  -6.207 -21.572  0.00  0.00    -0.000 C 
ATOM     26  C   UNL     1      31.221  -5.817 -22.631  0.00  0.00    -0.000 C 
ENDBRANCH  20  21
ENDBRANCH   3  20
TORSDOF 3
ENDMDL
MODEL 8
REMARK VINA RESULT:      -8.7      6.165     10.945
REMARK  Name = 448940
REMARK  3 active torsions:
REMARK  status: ('A' for Active; 'I' for Inactive)
REMARK    1  A    between atoms: N_3  and  C_20
REMARK    2  A    between atoms: C_4  and  C_15
REMARK    3  A    between atoms: C_20  and  C_21
REMARK                            x       y       z     vdW  Elec       q    Type
REMARK                         _______ _______ _______ _____ _____    ______ ____
ROOT
ATOM      1  O   UNL     1      34.942 -20.547 -22.397  0.00  0.00    -0.341 OA
ATOM      2  O   UNL     1      36.390 -17.480 -23.001  0.00  0.00    -0.272 OA
ATOM      3  N   UNL     1      34.731 -17.968 -21.431  0.00  0.00    -0.271 N 
ATOM      4  C   UNL     1      34.029 -20.328 -21.315  0.00  0.00    +0.158 C 
ATOM      5  C   UNL     1      33.618 -18.859 -21.142  0.00  0.00    +0.128 C 
ATOM      6  C   UNL     1      35.065 -19.462 -23.298  0.00  0.00    +0.227 C 
ATOM      7  C   UNL     1      35.492 -18.200 -22.574  0.00  0.00    +0.256 C 
ENDROOT
BRANCH   4  15
ATOM      8  S   UNL     1      34.958 -23.519 -15.911  0.00  0.00    +0.061 S 
ATOM      9  O   UNL     1      35.266 -24.849 -16.403  0.00  0.00    -0.154 OA
ATOM     10  O   UNL     1      34.667 -23.276 -14.513  0.00  0.00    -0.154 OA
ATOM     11  N   UNL     1      36.178 -22.413 -16.446  0.00  0.00    -0.193 N 
ATOM     12  C   UNL     1      34.409 -22.106 -17.983  0.00  0.00    +0.018 C 
ATOM     13  C   UNL     1      33.646 -22.845 -16.928  0.00  0.00    +0.200 C 
ATOM     14  C   UNL     1      35.774 -21.923 -17.733  0.00  0.00    +0.066 C 
ATOM     15  C   UNL     1      34.636 -20.889 -20.044  0.00  0.00    +0.006 C 
ATOM     16  C   UNL     1      33.837 -21.595 -19.144  0.00  0.00    -0.003 C 
ATOM     17  C   UNL     1      36.568 -21.185 -18.604  0.00  0.00    +0.016 C 
ATOM     18  C   UNL     1      35.994 -20.681 -19.772  0.00  0.00    -0.001 C 
ATOM     19  C   UNL     1      37.589 -22.779 -16.217  0.00  0.00    +0.139 C 
ENDBRANCH   4  15
BRANCH   3  20
ATOM     20  C   UNL     1      34.911 -16.785 -20.609  0.00  0.00    +0.120 C 
BRANCH  20  21
ATOM     21  C   UNL     1      34.107 -15.621 -21.120  0.00  0.00    -0.002 C 
ATOM     22  C   UNL     1      34.493 -14.987 -22.294  0.00  0.00    -0.003 C 
ATOM     23  C   UNL     1      32.992 -15.195 -20.412  0.00  0.00    -0.003 C 
ATOM     24  C   UNL     1      33.748 -13.907 -22.769  0.00  0.00    -0.000 C 
ATOM     25  C   UNL     1      32.247 -14.115 -20.887  0.00  0.00    -0.000 C 
ATOM     26  C   UNL     1      32.625 -13.471 -22.065  0.00  0.00    -0.000 C 
ENDBRANCH  20  21
ENDBRANCH   3  20
TORSDOF 3
ENDMDL
MODEL 9
REMARK VINA RESULT:      -8.6      5.892     10.881
REMARK  Name = 448940
REMARK  3 active torsions:
REMARK  status: ('A' for Active; 'I' for Inactive)
REMARK    1  A    between atoms: N_3  and  C_20
REMARK    2  A    between atoms: C_4  and  C_15
REMARK    3  A    between atoms: C_20  and  C_21
REMARK                            x       y       z     vdW  Elec       q    Type
REMARK                         _______ _______ _______ _____ _____    ______ ____
ROOT
ATOM      1  O   UNL     1      36.297 -19.197 -21.317  0.00  0.00    -0.341 OA
ATOM      2  O   UNL     1      35.380 -15.956 -20.594  0.00  0.00    -0.272 OA
ATOM      3  N   UNL     1      33.966 -17.723 -21.173  0.00  0.00    -0.271 N 
ATOM      4  C   UNL     1      35.068 -19.894 -21.557  0.00  0.00    +0.158 C 
ATOM      5  C   UNL     1      33.896 -18.971 -21.917  0.00  0.00    +0.128 C 
ATOM      6  C   UNL     1      36.307 -17.848 -21.748  0.00  0.00    +0.227 C 
ATOM      7  C   UNL     1      35.188 -17.061 -21.094  0.00  0.00    +0.256 C 
ENDROOT
BRANCH   4  15
ATOM      8  S   UNL     1      35.468 -23.074 -16.082  0.00  0.00    +0.061 S 
ATOM      9  O   UNL     1      35.328 -22.006 -15.110  0.00  0.00    -0.154 OA
ATOM     10  O   UNL     1      35.908 -24.399 -15.695  0.00  0.00    -0.154 OA
ATOM     11  N   UNL     1      34.015 -23.198 -17.013  0.00  0.00    -0.193 N 
ATOM     12  C   UNL     1      35.470 -21.939 -18.385  0.00  0.00    +0.018 C 
ATOM     13  C   UNL     1      36.489 -22.466 -17.424  0.00  0.00    +0.200 C 
ATOM     14  C   UNL     1      34.144 -22.301 -18.127  0.00  0.00    +0.066 C 
ATOM     15  C   UNL     1      34.750 -20.750 -20.347  0.00  0.00    +0.006 C 
ATOM     16  C   UNL     1      35.778 -21.157 -19.494  0.00  0.00    -0.003 C 
ATOM     17  C   UNL     1      33.120 -21.936 -18.994  0.00  0.00    +0.016 C 
ATOM     18  C   UNL     1      33.429 -21.142 -20.100  0.00  0.00    -0.001 C 
ATOM     19  C   UNL     1      32.733 -23.273 -16.284  0.00  0.00    +0.139 C 
ENDBRANCH   4  15
BRANCH   3  20
ATOM     20  C   UNL     1      32.735 -17.136 -20.676  0.00  0.00    +0.120 C 
BRANCH  20  21
ATOM     21  C   UNL     1      32.608 -15.688 -21.063  0.00  0.00    -0.002 C 
ATOM     22  C   UNL     1      32.369 -14.736 -20.081  0.00  0.00    -0.003 C 
ATOM     23  C   UNL     1      32.731 -15.323 -22.397  0.00  0.00    -0.003 C 
ATOM     24  C   UNL     1      32.252 -13.393 -20.440  0.00  0.00    -0.000 C 
ATOM     25  C   UNL     1      32.614 -13.980 -22.755  0.00  0.00    -0.000 C 
ATOM     26  C   UNL     1      32.374 -13.015 -21.778  0.00  0.00    -0.000 C 
ENDBRANCH  20  21
ENDBRANCH   3  20
TORSDOF 3
ENDMDL
