MODEL 1
REMARK VINA RESULT:     -10.1      0.000      0.000
REMARK  Name = 4969
REMARK  9 active torsions:
REMARK  status: ('A' for Active; 'I' for Inactive)
REMARK    1  A    between atoms: N_1  and  C_4
REMARK    2  A    between atoms: N_1  and  C_16
REMARK    3  A    between atoms: C_4  and  C_6
REMARK    4  A    between atoms: C_6  and  C_9
REMARK    5  A    between atoms: C_16  and  C_17
REMARK    6  A    between atoms: C_17  and  C_18
REMARK    7  A    between atoms: C_17  and  O_28
REMARK    8  A    between atoms: C_21  and  O_24
REMARK    9  A    between atoms: C_23  and  O_26
REMARK                            x       y       z     vdW  Elec       q    Type
REMARK                         _______ _______ _______ _____ _____    ______ ____
ROOT
ATOM      1  N   UNL     1      35.478 -17.059 -21.862  0.00  0.00    +0.387 N 
ATOM      2  H   UNL     1      36.097 -16.575 -22.512  0.00  0.00    -0.084 HD
ATOM      3  H   UNL     1      35.859 -17.018 -20.917  0.00  0.00    -0.084 HD
ENDROOT
BRANCH   1   4
ATOM      4  C   UNL     1      35.360 -18.463 -22.265  0.00  0.00    -0.057 C 
ATOM      5  C   UNL     1      35.401 -18.531 -23.792  0.00  0.00    -0.023 C 
BRANCH   4   6
ATOM      6  C   UNL     1      34.064 -19.076 -21.685  0.00  0.00    +0.005 C 
BRANCH   6   9
ATOM      7  O   UNL     1      32.535 -22.420 -18.391  0.00  0.00    -0.435 OA
ATOM      8  O   UNL     1      34.787 -23.081 -17.844  0.00  0.00    -0.435 OA
ATOM      9  C   UNL     1      34.293 -20.141 -20.666  0.00  0.00    -0.021 C 
ATOM     10  C   UNL     1      33.203 -20.746 -20.037  0.00  0.00    +0.036 C 
ATOM     11  C   UNL     1      35.607 -20.527 -20.346  0.00  0.00    -0.001 C 
ATOM     12  C   UNL     1      33.464 -21.725 -19.102  0.00  0.00    +0.176 C 
ATOM     13  C   UNL     1      34.751 -22.103 -18.789  0.00  0.00    +0.176 C 
ATOM     14  C   UNL     1      35.845 -21.521 -19.394  0.00  0.00    +0.040 C 
ATOM     15  C   UNL     1      33.379 -23.277 -17.596  0.00  0.00    +0.429 C 
ENDBRANCH   6   9
ENDBRANCH   4   6
ENDBRANCH   1   4
BRANCH   1  16
ATOM     16  C   UNL     1      34.177 -16.412 -21.870  0.00  0.00    -0.047 C 
BRANCH  16  17
ATOM     17  C   UNL     1      34.309 -14.896 -22.022  0.00  0.00    +0.112 C 
BRANCH  17  18
ATOM     18  C   UNL     1      33.943 -14.438 -23.414  0.00  0.00    +0.005 C 
ATOM     19  C   UNL     1      33.680 -15.384 -24.391  0.00  0.00    +0.038 C 
ATOM     20  C   UNL     1      33.878 -13.082 -23.686  0.00  0.00    +0.001 C 
ATOM     21  C   UNL     1      33.341 -14.962 -25.677  0.00  0.00    +0.167 C 
ATOM     22  C   UNL     1      33.541 -12.659 -24.971  0.00  0.00    +0.040 C 
ATOM     23  C   UNL     1      33.272 -13.598 -25.967  0.00  0.00    +0.167 C 
BRANCH  21  24
ATOM     24  O   UNL     1      33.082 -15.888 -26.640  0.00  0.00    -0.503 OA
ATOM     25  H   UNL     1      33.186 -16.800 -26.454  0.00  0.00    +0.292 HD
ENDBRANCH  21  24
BRANCH  23  26
ATOM     26  O   UNL     1      32.943 -13.173 -27.218  0.00  0.00    -0.503 OA
ATOM     27  H   UNL     1      33.160 -13.698 -27.963  0.00  0.00    +0.292 HD
ENDBRANCH  23  26
ENDBRANCH  17  18
BRANCH  17  28
ATOM     28  O   UNL     1      33.451 -14.241 -21.088  0.00  0.00    -0.382 OA
ATOM     29  H   UNL     1      32.795 -13.711 -21.568  0.00  0.00    +0.211 HD
ENDBRANCH  17  28
ENDBRANCH  16  17
ENDBRANCH   1  16
TORSDOF 9
ENDMDL
MODEL 2
REMARK VINA RESULT:     -10.0      1.726      2.647
REMARK  Name = 4969
REMARK  9 active torsions:
REMARK  status: ('A' for Active; 'I' for Inactive)
REMARK    1  A    between atoms: N_1  and  C_4
REMARK    2  A    between atoms: N_1  and  C_16
REMARK    3  A    between atoms: C_4  and  C_6
REMARK    4  A    between atoms: C_6  and  C_9
REMARK    5  A    between atoms: C_16  and  C_17
REMARK    6  A    between atoms: C_17  and  C_18
REMARK    7  A    between atoms: C_17  and  O_28
REMARK    8  A    between atoms: C_21  and  O_24
REMARK    9  A    between atoms: C_23  and  O_26
REMARK                            x       y       z     vdW  Elec       q    Type
REMARK                         _______ _______ _______ _____ _____    ______ ____
ROOT
ATOM      1  N   UNL     1      35.529 -16.781 -23.860  0.00  0.00    +0.387 N 
ATOM      2  H   UNL     1      35.208 -16.790 -24.828  0.00  0.00    -0.084 HD
ATOM      3  H   UNL     1      36.513 -16.512 -23.818  0.00  0.00    -0.084 HD
ENDROOT
BRANCH   1   4
ATOM      4  C   UNL     1      35.381 -18.123 -23.291  0.00  0.00    -0.057 C 
ATOM      5  C   UNL     1      34.678 -19.008 -24.321  0.00  0.00    -0.023 C 
BRANCH   4   6
ATOM      6  C   UNL     1      34.609 -18.052 -21.953  0.00  0.00    +0.005 C 
BRANCH   6   9
ATOM      7  O   UNL     1      32.833 -21.830 -19.318  0.00  0.00    -0.435 OA
ATOM      8  O   UNL     1      35.036 -22.601 -18.722  0.00  0.00    -0.435 OA
ATOM      9  C   UNL     1      34.759 -19.262 -21.094  0.00  0.00    -0.021 C 
ATOM     10  C   UNL     1      33.624 -19.938 -20.642  0.00  0.00    +0.036 C 
ATOM     11  C   UNL     1      36.046 -19.712 -20.746  0.00  0.00    -0.001 C 
ATOM     12  C   UNL     1      33.814 -21.050 -19.849  0.00  0.00    +0.176 C 
ATOM     13  C   UNL     1      35.073 -21.491 -19.509  0.00  0.00    +0.176 C 
ATOM     14  C   UNL     1      36.210 -20.842 -19.941  0.00  0.00    +0.040 C 
ATOM     15  C   UNL     1      33.614 -22.810 -18.606  0.00  0.00    +0.429 C 
ENDBRANCH   6   9
ENDBRANCH   4   6
ENDBRANCH   1   4
BRANCH   1  16
ATOM     16  C   UNL     1      34.748 -15.815 -23.107  0.00  0.00    -0.047 C 
BRANCH  16  17
ATOM     17  C   UNL     1      33.561 -15.301 -23.922  0.00  0.00    +0.112 C 
BRANCH  17  18
ATOM     18  C   UNL     1      33.251 -13.855 -23.612  0.00  0.00    +0.005 C 
ATOM     19  C   UNL     1      32.307 -13.559 -22.642  0.00  0.00    +0.038 C 
ATOM     20  C   UNL     1      33.914 -12.855 -24.304  0.00  0.00    +0.001 C 
ATOM     21  C   UNL     1      32.020 -12.224 -22.355  0.00  0.00    +0.167 C 
ATOM     22  C   UNL     1      33.626 -11.521 -24.018  0.00  0.00    +0.040 C 
ATOM     23  C   UNL     1      32.680 -11.205 -23.044  0.00  0.00    +0.167 C 
BRANCH  21  24
ATOM     24  O   UNL     1      31.093 -11.928 -21.402  0.00  0.00    -0.503 OA
ATOM     25  H   UNL     1      30.779 -12.600 -20.829  0.00  0.00    +0.292 HD
ENDBRANCH  21  24
BRANCH  23  26
ATOM     26  O   UNL     1      32.407  -9.899 -22.773  0.00  0.00    -0.503 OA
ATOM     27  H   UNL     1      31.524  -9.589 -22.798  0.00  0.00    +0.292 HD
ENDBRANCH  23  26
ENDBRANCH  17  18
BRANCH  17  28
ATOM     28  O   UNL     1      33.850 -15.413 -25.316  0.00  0.00    -0.382 OA
ATOM     29  H   UNL     1      33.462 -14.660 -25.789  0.00  0.00    +0.211 HD
ENDBRANCH  17  28
ENDBRANCH  16  17
ENDBRANCH   1  16
TORSDOF 9
ENDMDL
MODEL 3
REMARK VINA RESULT:     -10.0      1.751      2.331
REMARK  Name = 4969
REMARK  9 active torsions:
REMARK  status: ('A' for Active; 'I' for Inactive)
REMARK    1  A    between atoms: N_1  and  C_4
REMARK    2  A    between atoms: N_1  and  C_16
REMARK    3  A    between atoms: C_4  and  C_6
REMARK    4  A    between atoms: C_6  and  C_9
REMARK    5  A    between atoms: C_16  and  C_17
REMARK    6  A    between atoms: C_17  and  C_18
REMARK    7  A    between atoms: C_17  and  O_28
REMARK    8  A    between atoms: C_21  and  O_24
REMARK    9  A    between atoms: C_23  and  O_26
REMARK                            x       y       z     vdW  Elec       q    Type
REMARK                         _______ _______ _______ _____ _____    ______ ____
ROOT
ATOM      1  N   UNL     1      35.792 -17.637 -22.807  0.00  0.00    +0.387 N 
ATOM      2  H   UNL     1      36.361 -17.495 -23.642  0.00  0.00    -0.084 HD
ATOM      3  H   UNL     1      36.356 -17.497 -21.969  0.00  0.00    -0.084 HD
ENDROOT
BRANCH   1   4
ATOM      4  C   UNL     1      35.273 -19.008 -22.806  0.00  0.00    -0.057 C 
ATOM      5  C   UNL     1      34.838 -19.359 -24.229  0.00  0.00    -0.023 C 
BRANCH   4   6
ATOM      6  C   UNL     1      34.116 -19.138 -21.789  0.00  0.00    +0.005 C 
BRANCH   6   9
ATOM      7  O   UNL     1      32.563 -22.395 -18.420  0.00  0.00    -0.435 OA
ATOM      8  O   UNL     1      34.811 -23.031 -17.830  0.00  0.00    -0.435 OA
ATOM      9  C   UNL     1      34.338 -20.173 -20.738  0.00  0.00    -0.021 C 
ATOM     10  C   UNL     1      33.243 -20.765 -20.105  0.00  0.00    +0.036 C 
ATOM     11  C   UNL     1      35.650 -20.545 -20.394  0.00  0.00    -0.001 C 
ATOM     12  C   UNL     1      33.497 -21.716 -19.140  0.00  0.00    +0.176 C 
ATOM     13  C   UNL     1      34.782 -22.080 -18.802  0.00  0.00    +0.176 C 
ATOM     14  C   UNL     1      35.881 -21.511 -19.412  0.00  0.00    +0.040 C 
ATOM     15  C   UNL     1      33.402 -23.226 -17.592  0.00  0.00    +0.429 C 
ENDBRANCH   6   9
ENDBRANCH   4   6
ENDBRANCH   1   4
BRANCH   1  16
ATOM     16  C   UNL     1      34.702 -16.676 -22.802  0.00  0.00    -0.047 C 
BRANCH  16  17
ATOM     17  C   UNL     1      34.964 -15.542 -21.811  0.00  0.00    +0.112 C 
BRANCH  17  18
ATOM     18  C   UNL     1      33.933 -14.444 -21.929  0.00  0.00    +0.005 C 
ATOM     19  C   UNL     1      33.968 -13.596 -23.023  0.00  0.00    +0.038 C 
ATOM     20  C   UNL     1      32.974 -14.306 -20.940  0.00  0.00    +0.001 C 
ATOM     21  C   UNL     1      33.017 -12.582 -23.133  0.00  0.00    +0.167 C 
ATOM     22  C   UNL     1      32.023 -13.292 -21.048  0.00  0.00    +0.040 C 
ATOM     23  C   UNL     1      32.044 -12.430 -22.144  0.00  0.00    +0.167 C 
BRANCH  21  24
ATOM     24  O   UNL     1      33.048 -11.747 -24.208  0.00  0.00    -0.503 OA
ATOM     25  H   UNL     1      32.594 -10.928 -24.179  0.00  0.00    +0.292 HD
ENDBRANCH  21  24
BRANCH  23  26
ATOM     26  O   UNL     1      31.110 -11.443 -22.239  0.00  0.00    -0.503 OA
ATOM     27  H   UNL     1      30.378 -11.544 -22.815  0.00  0.00    +0.292 HD
ENDBRANCH  23  26
ENDBRANCH  17  18
BRANCH  17  28
ATOM     28  O   UNL     1      34.934 -16.050 -20.477  0.00  0.00    -0.382 OA
ATOM     29  H   UNL     1      34.852 -15.314 -19.852  0.00  0.00    +0.211 HD
ENDBRANCH  17  28
ENDBRANCH  16  17
ENDBRANCH   1  16
TORSDOF 9
ENDMDL
MODEL 4
REMARK VINA RESULT:      -9.9      2.131      7.989
REMARK  Name = 4969
REMARK  9 active torsions:
REMARK  status: ('A' for Active; 'I' for Inactive)
REMARK    1  A    between atoms: N_1  and  C_4
REMARK    2  A    between atoms: N_1  and  C_16
REMARK    3  A    between atoms: C_4  and  C_6
REMARK    4  A    between atoms: C_6  and  C_9
REMARK    5  A    between atoms: C_16  and  C_17
REMARK    6  A    between atoms: C_17  and  C_18
REMARK    7  A    between atoms: C_17  and  O_28
REMARK    8  A    between atoms: C_21  and  O_24
REMARK    9  A    between atoms: C_23  and  O_26
REMARK                            x       y       z     vdW  Elec       q    Type
REMARK                         _______ _______ _______ _____ _____    ______ ____
ROOT
ATOM      1  N   UNL     1      35.732 -17.120 -23.435  0.00  0.00    +0.387 N 
ATOM      2  H   UNL     1      35.843 -16.495 -22.637  0.00  0.00    -0.084 HD
ATOM      3  H   UNL     1      36.375 -16.855 -24.182  0.00  0.00    -0.084 HD
ENDROOT
BRANCH   1   4
ATOM      4  C   UNL     1      34.358 -17.021 -23.937  0.00  0.00    -0.057 C 
ATOM      5  C   UNL     1      34.218 -17.952 -25.142  0.00  0.00    -0.023 C 
BRANCH   4   6
ATOM      6  C   UNL     1      34.023 -15.553 -24.287  0.00  0.00    +0.005 C 
BRANCH   6   9
ATOM      7  O   UNL     1      31.748 -11.612 -22.373  0.00  0.00    -0.435 OA
ATOM      8  O   UNL     1      31.797 -12.523 -20.143  0.00  0.00    -0.435 OA
ATOM      9  C   UNL     1      33.438 -14.773 -23.159  0.00  0.00    -0.021 C 
ATOM     10  C   UNL     1      32.867 -13.521 -23.403  0.00  0.00    +0.036 C 
ATOM     11  C   UNL     1      33.466 -15.304 -21.857  0.00  0.00    -0.001 C 
ATOM     12  C   UNL     1      32.340 -12.837 -22.329  0.00  0.00    +0.176 C 
ATOM     13  C   UNL     1      32.367 -13.357 -21.054  0.00  0.00    +0.176 C 
ATOM     14  C   UNL     1      32.926 -14.590 -20.785  0.00  0.00    +0.040 C 
ATOM     15  C   UNL     1      31.407 -11.419 -20.986  0.00  0.00    +0.429 C 
ENDBRANCH   6   9
ENDBRANCH   4   6
ENDBRANCH   1   4
BRANCH   1  16
ATOM     16  C   UNL     1      36.030 -18.481 -23.022  0.00  0.00    -0.047 C 
BRANCH  16  17
ATOM     17  C   UNL     1      36.257 -18.568 -21.513  0.00  0.00    +0.112 C 
BRANCH  17  18
ATOM     18  C   UNL     1      35.292 -19.526 -20.854  0.00  0.00    +0.005 C 
ATOM     19  C   UNL     1      35.790 -20.568 -20.090  0.00  0.00    +0.038 C 
ATOM     20  C   UNL     1      33.931 -19.343 -21.028  0.00  0.00    +0.001 C 
ATOM     21  C   UNL     1      34.900 -21.454 -19.481  0.00  0.00    +0.167 C 
ATOM     22  C   UNL     1      33.041 -20.228 -20.421  0.00  0.00    +0.040 C 
ATOM     23  C   UNL     1      33.525 -21.283 -19.647  0.00  0.00    +0.167 C 
BRANCH  21  24
ATOM     24  O   UNL     1      35.385 -22.480 -18.729  0.00  0.00    -0.503 OA
ATOM     25  H   UNL     1      35.240 -23.366 -18.996  0.00  0.00    +0.292 HD
ENDBRANCH  21  24
BRANCH  23  26
ATOM     26  O   UNL     1      32.646 -22.141 -19.059  0.00  0.00    -0.503 OA
ATOM     27  H   UNL     1      31.724 -22.000 -19.144  0.00  0.00    +0.292 HD
ENDBRANCH  23  26
ENDBRANCH  17  18
BRANCH  17  28
ATOM     28  O   UNL     1      37.588 -19.013 -21.250  0.00  0.00    -0.382 OA
ATOM     29  H   UNL     1      37.562 -19.788 -20.668  0.00  0.00    +0.211 HD
ENDBRANCH  17  28
ENDBRANCH  16  17
ENDBRANCH   1  16
TORSDOF 9
ENDMDL
MODEL 5
REMARK VINA RESULT:      -9.9      9.799     12.365
REMARK  Name = 4969
REMARK  9 active torsions:
REMARK  status: ('A' for Active; 'I' for Inactive)
REMARK    1  A    between atoms: N_1  and  C_4
REMARK    2  A    between atoms: N_1  and  C_16
REMARK    3  A    between atoms: C_4  and  C_6
REMARK    4  A    between atoms: C_6  and  C_9
REMARK    5  A    between atoms: C_16  and  C_17
REMARK    6  A    between atoms: C_17  and  C_18
REMARK    7  A    between atoms: C_17  and  O_28
REMARK    8  A    between atoms: C_21  and  O_24
REMARK    9  A    between atoms: C_23  and  O_26
REMARK                            x       y       z     vdW  Elec       q    Type
REMARK                         _______ _______ _______ _____ _____    ______ ____
ROOT
ATOM      1  N   UNL     1      33.889 -24.668 -12.734  0.00  0.00    +0.387 N 
ATOM      2  H   UNL     1      34.148 -25.648 -12.840  0.00  0.00    -0.084 HD
ATOM      3  H   UNL     1      33.211 -24.563 -11.978  0.00  0.00    -0.084 HD
ENDROOT
BRANCH   1   4
ATOM      4  C   UNL     1      33.283 -24.192 -13.981  0.00  0.00    -0.057 C 
ATOM      5  C   UNL     1      34.332 -23.384 -14.747  0.00  0.00    -0.023 C 
BRANCH   4   6
ATOM      6  C   UNL     1      32.014 -23.364 -13.675  0.00  0.00    +0.005 C 
BRANCH   6   9
ATOM      7  O   UNL     1      28.571 -21.953 -16.920  0.00  0.00    -0.435 OA
ATOM      8  O   UNL     1      27.738 -24.198 -17.188  0.00  0.00    -0.435 OA
ATOM      9  C   UNL     1      30.876 -23.622 -14.604  0.00  0.00    -0.021 C 
ATOM     10  C   UNL     1      30.302 -22.563 -15.310  0.00  0.00    +0.036 C 
ATOM     11  C   UNL     1      30.389 -24.933 -14.760  0.00  0.00    -0.001 C 
ATOM     12  C   UNL     1      29.252 -22.851 -16.156  0.00  0.00    +0.176 C 
ATOM     13  C   UNL     1      28.775 -24.134 -16.310  0.00  0.00    +0.176 C 
ATOM     14  C   UNL     1      29.323 -25.198 -15.623  0.00  0.00    +0.040 C 
ATOM     15  C   UNL     1      27.615 -22.813 -17.571  0.00  0.00    +0.429 C 
ENDBRANCH   6   9
ENDBRANCH   4   6
ENDBRANCH   1   4
BRANCH   1  16
ATOM     16  C   UNL     1      35.074 -23.891 -12.410  0.00  0.00    -0.047 C 
BRANCH  16  17
ATOM     17  C   UNL     1      36.171 -24.773 -11.815  0.00  0.00    +0.112 C 
BRANCH  17  18
ATOM     18  C   UNL     1      37.223 -25.128 -12.840  0.00  0.00    +0.005 C 
ATOM     19  C   UNL     1      36.856 -25.847 -13.966  0.00  0.00    +0.038 C 
ATOM     20  C   UNL     1      38.533 -24.730 -12.633  0.00  0.00    +0.001 C 
ATOM     21  C   UNL     1      37.826 -26.175 -14.912  0.00  0.00    +0.167 C 
ATOM     22  C   UNL     1      39.504 -25.059 -13.578  0.00  0.00    +0.040 C 
ATOM     23  C   UNL     1      39.151 -25.781 -14.718  0.00  0.00    +0.167 C 
BRANCH  21  24
ATOM     24  O   UNL     1      37.469 -26.881 -16.021  0.00  0.00    -0.503 OA
ATOM     25  H   UNL     1      36.939 -27.649 -15.937  0.00  0.00    +0.292 HD
ENDBRANCH  21  24
BRANCH  23  26
ATOM     26  O   UNL     1      40.108 -26.097 -15.635  0.00  0.00    -0.503 OA
ATOM     27  H   UNL     1      40.025 -25.802 -16.520  0.00  0.00    +0.292 HD
ENDBRANCH  23  26
ENDBRANCH  17  18
BRANCH  17  28
ATOM     28  O   UNL     1      36.806 -24.090 -10.734  0.00  0.00    -0.382 OA
ATOM     29  H   UNL     1      36.569 -23.150 -10.761  0.00  0.00    +0.211 HD
ENDBRANCH  17  28
ENDBRANCH  16  17
ENDBRANCH   1  16
TORSDOF 9
ENDMDL
MODEL 6
REMARK VINA RESULT:      -9.7      4.561      7.999
REMARK  Name = 4969
REMARK  9 active torsions:
REMARK  status: ('A' for Active; 'I' for Inactive)
REMARK    1  A    between atoms: N_1  and  C_4
REMARK    2  A    between atoms: N_1  and  C_16
REMARK    3  A    between atoms: C_4  and  C_6
REMARK    4  A    between atoms: C_6  and  C_9
REMARK    5  A    between atoms: C_16  and  C_17
REMARK    6  A    between atoms: C_17  and  C_18
REMARK    7  A    between atoms: C_17  and  O_28
REMARK    8  A    between atoms: C_21  and  O_24
REMARK    9  A    between atoms: C_23  and  O_26
REMARK                            x       y       z     vdW  Elec       q    Type
REMARK                         _______ _______ _______ _____ _____    ______ ____
ROOT
ATOM      1  N   UNL     1      33.099 -23.248 -16.630  0.00  0.00    +0.387 N 
ATOM      2  H   UNL     1      32.495 -22.462 -16.397  0.00  0.00    -0.084 HD
ATOM      3  H   UNL     1      32.556 -23.991 -17.073  0.00  0.00    -0.084 HD
ENDROOT
BRANCH   1   4
ATOM      4  C   UNL     1      33.704 -23.773 -15.402  0.00  0.00    -0.057 C 
ATOM      5  C   UNL     1      32.766 -23.462 -14.235  0.00  0.00    -0.023 C 
BRANCH   4   6
ATOM      6  C   UNL     1      35.112 -23.168 -15.201  0.00  0.00    +0.005 C 
BRANCH   6   9
ATOM      7  O   UNL     1      39.836 -24.518 -14.716  0.00  0.00    -0.435 OA
ATOM      8  O   UNL     1      39.281 -26.862 -14.665  0.00  0.00    -0.435 OA
ATOM      9  C   UNL     1      36.199 -24.180 -15.059  0.00  0.00    -0.021 C 
ATOM     10  C   UNL     1      37.527 -23.762 -14.956  0.00  0.00    +0.036 C 
ATOM     11  C   UNL     1      35.875 -25.548 -15.029  0.00  0.00    -0.001 C 
ATOM     12  C   UNL     1      38.497 -24.734 -14.827  0.00  0.00    +0.176 C 
ATOM     13  C   UNL     1      38.180 -26.074 -14.797  0.00  0.00    +0.176 C 
ATOM     14  C   UNL     1      36.876 -26.514 -14.898  0.00  0.00    +0.040 C 
ATOM     15  C   UNL     1      40.326 -25.870 -14.614  0.00  0.00    +0.429 C 
ENDBRANCH   6   9
ENDBRANCH   4   6
ENDBRANCH   1   4
BRANCH   1  16
ATOM     16  C   UNL     1      34.126 -22.804 -17.558  0.00  0.00    -0.047 C 
BRANCH  16  17
ATOM     17  C   UNL     1      33.593 -22.740 -18.989  0.00  0.00    +0.112 C 
BRANCH  17  18
ATOM     18  C   UNL     1      34.018 -21.471 -19.690  0.00  0.00    +0.005 C 
ATOM     19  C   UNL     1      35.367 -21.177 -19.799  0.00  0.00    +0.038 C 
ATOM     20  C   UNL     1      33.051 -20.626 -20.209  0.00  0.00    +0.001 C 
ATOM     21  C   UNL     1      35.761 -20.006 -20.446  0.00  0.00    +0.167 C 
ATOM     22  C   UNL     1      33.444 -19.454 -20.855  0.00  0.00    +0.040 C 
ATOM     23  C   UNL     1      34.798 -19.144 -20.974  0.00  0.00    +0.167 C 
BRANCH  21  24
ATOM     24  O   UNL     1      37.086 -19.714 -20.556  0.00  0.00    -0.503 OA
ATOM     25  H   UNL     1      37.712 -20.165 -20.024  0.00  0.00    +0.292 HD
ENDBRANCH  21  24
BRANCH  23  26
ATOM     26  O   UNL     1      35.170 -17.997 -21.607  0.00  0.00    -0.503 OA
ATOM     27  H   UNL     1      34.682 -17.209 -21.474  0.00  0.00    +0.292 HD
ENDBRANCH  23  26
ENDBRANCH  17  18
BRANCH  17  28
ATOM     28  O   UNL     1      34.081 -23.855 -19.736  0.00  0.00    -0.382 OA
ATOM     29  H   UNL     1      33.604 -23.914 -20.579  0.00  0.00    +0.211 HD
ENDBRANCH  17  28
ENDBRANCH  16  17
ENDBRANCH   1  16
TORSDOF 9
ENDMDL
MODEL 7
REMARK VINA RESULT:      -9.6      2.423      9.242
REMARK  Name = 4969
REMARK  9 active torsions:
REMARK  status: ('A' for Active; 'I' for Inactive)
REMARK    1  A    between atoms: N_1  and  C_4
REMARK    2  A    between atoms: N_1  and  C_16
REMARK    3  A    between atoms: C_4  and  C_6
REMARK    4  A    between atoms: C_6  and  C_9
REMARK    5  A    between atoms: C_16  and  C_17
REMARK    6  A    between atoms: C_17  and  C_18
REMARK    7  A    between atoms: C_17  and  O_28
REMARK    8  A    between atoms: C_21  and  O_24
REMARK    9  A    between atoms: C_23  and  O_26
REMARK                            x       y       z     vdW  Elec       q    Type
REMARK                         _______ _______ _______ _____ _____    ______ ____
ROOT
ATOM      1  N   UNL     1      34.658 -16.458 -22.535  0.00  0.00    +0.387 N 
ATOM      2  H   UNL     1      35.276 -16.439 -23.345  0.00  0.00    -0.084 HD
ATOM      3  H   UNL     1      33.793 -16.950 -22.763  0.00  0.00    -0.084 HD
ENDROOT
BRANCH   1   4
ATOM      4  C   UNL     1      34.331 -15.083 -22.146  0.00  0.00    -0.057 C 
ATOM      5  C   UNL     1      34.131 -15.047 -20.630  0.00  0.00    -0.023 C 
BRANCH   4   6
ATOM      6  C   UNL     1      33.082 -14.595 -22.915  0.00  0.00    +0.005 C 
BRANCH   6   9
ATOM      7  O   UNL     1      31.329 -10.097 -21.883  0.00  0.00    -0.435 OA
ATOM      8  O   UNL     1      32.742  -9.043 -23.525  0.00  0.00    -0.435 OA
ATOM      9  C   UNL     1      33.018 -13.117 -23.103  0.00  0.00    -0.021 C 
ATOM     10  C   UNL     1      32.140 -12.356 -22.328  0.00  0.00    +0.036 C 
ATOM     11  C   UNL     1      33.843 -12.502 -24.061  0.00  0.00    -0.001 C 
ATOM     12  C   UNL     1      32.115 -10.993 -22.538  0.00  0.00    +0.176 C 
ATOM     13  C   UNL     1      32.923 -10.390 -23.476  0.00  0.00    +0.176 C 
ATOM     14  C   UNL     1      33.798 -11.119 -24.256  0.00  0.00    +0.040 C 
ATOM     15  C   UNL     1      31.731  -8.864 -22.512  0.00  0.00    +0.429 C 
ENDBRANCH   6   9
ENDBRANCH   4   6
ENDBRANCH   1   4
BRANCH   1  16
ATOM     16  C   UNL     1      35.319 -17.156 -21.445  0.00  0.00    -0.047 C 
BRANCH  16  17
ATOM     17  C   UNL     1      35.666 -18.593 -21.833  0.00  0.00    +0.112 C 
BRANCH  17  18
ATOM     18  C   UNL     1      34.901 -19.599 -21.004  0.00  0.00    +0.005 C 
ATOM     19  C   UNL     1      35.599 -20.547 -20.276  0.00  0.00    +0.038 C 
ATOM     20  C   UNL     1      33.517 -19.553 -20.991  0.00  0.00    +0.001 C 
ATOM     21  C   UNL     1      34.894 -21.475 -19.510  0.00  0.00    +0.167 C 
ATOM     22  C   UNL     1      32.811 -20.482 -20.227  0.00  0.00    +0.040 C 
ATOM     23  C   UNL     1      33.499 -21.442 -19.486  0.00  0.00    +0.167 C 
BRANCH  21  24
ATOM     24  O   UNL     1      35.577 -22.409 -18.791  0.00  0.00    -0.503 OA
ATOM     25  H   UNL     1      36.032 -23.099 -19.232  0.00  0.00    +0.292 HD
ENDBRANCH  21  24
BRANCH  23  26
ATOM     26  O   UNL     1      32.799 -22.344 -18.743  0.00  0.00    -0.503 OA
ATOM     27  H   UNL     1      33.054 -23.245 -18.736  0.00  0.00    +0.292 HD
ENDBRANCH  23  26
ENDBRANCH  17  18
BRANCH  17  28
ATOM     28  O   UNL     1      35.353 -18.810 -23.209  0.00  0.00    -0.382 OA
ATOM     29  H   UNL     1      35.432 -17.974 -23.695  0.00  0.00    +0.211 HD
ENDBRANCH  17  28
ENDBRANCH  16  17
ENDBRANCH   1  16
TORSDOF 9
ENDMDL
MODEL 8
REMARK VINA RESULT:      -9.6      1.932      8.452
REMARK  Name = 4969
REMARK  9 active torsions:
REMARK  status: ('A' for Active; 'I' for Inactive)
REMARK    1  A    between atoms: N_1  and  C_4
REMARK    2  A    between atoms: N_1  and  C_16
REMARK    3  A    between atoms: C_4  and  C_6
REMARK    4  A    between atoms: C_6  and  C_9
REMARK    5  A    between atoms: C_16  and  C_17
REMARK    6  A    between atoms: C_17  and  C_18
REMARK    7  A    between atoms: C_17  and  O_28
REMARK    8  A    between atoms: C_21  and  O_24
REMARK    9  A    between atoms: C_23  and  O_26
REMARK                            x       y       z     vdW  Elec       q    Type
REMARK                         _______ _______ _______ _____ _____    ______ ____
ROOT
ATOM      1  N   UNL     1      35.703 -17.910 -23.492  0.00  0.00    +0.387 N 
ATOM      2  H   UNL     1      36.232 -17.330 -22.842  0.00  0.00    -0.084 HD
ATOM      3  H   UNL     1      36.294 -18.188 -24.277  0.00  0.00    -0.084 HD
ENDROOT
BRANCH   1   4
ATOM      4  C   UNL     1      34.564 -17.144 -24.006  0.00  0.00    -0.057 C 
ATOM      5  C   UNL     1      34.170 -17.721 -25.366  0.00  0.00    -0.023 C 
BRANCH   4   6
ATOM      6  C   UNL     1      34.926 -15.643 -24.088  0.00  0.00    +0.005 C 
BRANCH   6   9
ATOM      7  O   UNL     1      32.696 -11.319 -23.245  0.00  0.00    -0.435 OA
ATOM      8  O   UNL     1      31.486 -12.182 -21.348  0.00  0.00    -0.435 OA
ATOM      9  C   UNL     1      34.000 -14.748 -23.335  0.00  0.00    -0.021 C 
ATOM     10  C   UNL     1      33.841 -13.419 -23.734  0.00  0.00    +0.036 C 
ATOM     11  C   UNL     1      33.293 -15.251 -22.228  0.00  0.00    -0.001 C 
ATOM     12  C   UNL     1      32.975 -12.630 -23.007  0.00  0.00    +0.176 C 
ATOM     13  C   UNL     1      32.283 -13.122 -21.923  0.00  0.00    +0.176 C 
ATOM     14  C   UNL     1      32.422 -14.431 -21.507  0.00  0.00    +0.040 C 
ATOM     15  C   UNL     1      31.753 -11.042 -22.191  0.00  0.00    +0.429 C 
ENDBRANCH   6   9
ENDBRANCH   4   6
ENDBRANCH   1   4
BRANCH   1  16
ATOM     16  C   UNL     1      35.247 -19.107 -22.804  0.00  0.00    -0.047 C 
BRANCH  16  17
ATOM     17  C   UNL     1      34.650 -18.770 -21.438  0.00  0.00    +0.112 C 
BRANCH  17  18
ATOM     18  C   UNL     1      34.663 -19.962 -20.510  0.00  0.00    +0.005 C 
ATOM     19  C   UNL     1      33.463 -20.463 -20.035  0.00  0.00    +0.038 C 
ATOM     20  C   UNL     1      35.875 -20.528 -20.151  0.00  0.00    +0.001 C 
ATOM     21  C   UNL     1      33.474 -21.564 -19.178  0.00  0.00    +0.167 C 
ATOM     22  C   UNL     1      35.887 -21.627 -19.294  0.00  0.00    +0.040 C 
ATOM     23  C   UNL     1      34.687 -22.146 -18.807  0.00  0.00    +0.167 C 
BRANCH  21  24
ATOM     24  O   UNL     1      32.296 -22.060 -18.709  0.00  0.00    -0.503 OA
ATOM     25  H   UNL     1      32.290 -22.837 -18.185  0.00  0.00    +0.292 HD
ENDBRANCH  21  24
BRANCH  23  26
ATOM     26  O   UNL     1      34.712 -23.220 -17.970  0.00  0.00    -0.503 OA
ATOM     27  H   UNL     1      35.461 -23.377 -17.431  0.00  0.00    +0.292 HD
ENDBRANCH  23  26
ENDBRANCH  17  18
BRANCH  17  28
ATOM     28  O   UNL     1      35.397 -17.715 -20.832  0.00  0.00    -0.382 OA
ATOM     29  H   UNL     1      34.806 -16.972 -20.632  0.00  0.00    +0.211 HD
ENDBRANCH  17  28
ENDBRANCH  16  17
ENDBRANCH   1  16
TORSDOF 9
ENDMDL
MODEL 9
REMARK VINA RESULT:      -9.6      4.623      7.858
REMARK  Name = 4969
REMARK  9 active torsions:
REMARK  status: ('A' for Active; 'I' for Inactive)
REMARK    1  A    between atoms: N_1  and  C_4
REMARK    2  A    between atoms: N_1  and  C_16
REMARK    3  A    between atoms: C_4  and  C_6
REMARK    4  A    between atoms: C_6  and  C_9
REMARK    5  A    between atoms: C_16  and  C_17
REMARK    6  A    between atoms: C_17  and  C_18
REMARK    7  A    between atoms: C_17  and  O_28
REMARK    8  A    between atoms: C_21  and  O_24
REMARK    9  A    between atoms: C_23  and  O_26
REMARK                            x       y       z     vdW  Elec       q    Type
REMARK                         _______ _______ _______ _____ _____    ______ ____
ROOT
ATOM      1  N   UNL     1      33.719 -23.654 -16.384  0.00  0.00    +0.387 N 
ATOM      2  H   UNL     1      32.729 -23.713 -16.623  0.00  0.00    -0.084 HD
ATOM      3  H   UNL     1      34.143 -24.582 -16.406  0.00  0.00    -0.084 HD
ENDROOT
BRANCH   1   4
ATOM      4  C   UNL     1      33.855 -23.104 -15.032  0.00  0.00    -0.057 C 
ATOM      5  C   UNL     1      35.238 -23.480 -14.498  0.00  0.00    -0.023 C 
BRANCH   4   6
ATOM      6  C   UNL     1      32.715 -23.624 -14.128  0.00  0.00    +0.005 C 
BRANCH   6   9
ATOM      7  O   UNL     1      28.958 -22.032 -16.907  0.00  0.00    -0.435 OA
ATOM      8  O   UNL     1      27.825 -24.155 -16.795  0.00  0.00    -0.435 OA
ATOM      9  C   UNL     1      31.410 -23.801 -14.828  0.00  0.00    -0.021 C 
ATOM     10  C   UNL     1      30.855 -22.736 -15.542  0.00  0.00    +0.036 C 
ATOM     11  C   UNL     1      30.748 -25.040 -14.763  0.00  0.00    -0.001 C 
ATOM     12  C   UNL     1      29.647 -22.947 -16.171  0.00  0.00    +0.176 C 
ATOM     13  C   UNL     1      28.998 -24.160 -16.108  0.00  0.00    +0.176 C 
ATOM     14  C   UNL     1      29.524 -25.227 -15.410  0.00  0.00    +0.040 C 
ATOM     15  C   UNL     1      27.806 -22.804 -17.299  0.00  0.00    +0.429 C 
ENDBRANCH   6   9
ENDBRANCH   4   6
ENDBRANCH   1   4
BRANCH   1  16
ATOM     16  C   UNL     1      34.395 -22.808 -17.353  0.00  0.00    -0.047 C 
BRANCH  16  17
ATOM     17  C   UNL     1      33.642 -22.773 -18.683  0.00  0.00    +0.112 C 
BRANCH  17  18
ATOM     18  C   UNL     1      34.000 -21.552 -19.498  0.00  0.00    +0.005 C 
ATOM     19  C   UNL     1      35.332 -21.207 -19.651  0.00  0.00    +0.038 C 
ATOM     20  C   UNL     1      32.989 -20.802 -20.075  0.00  0.00    +0.001 C 
ATOM     21  C   UNL     1      35.664 -20.081 -20.404  0.00  0.00    +0.167 C 
ATOM     22  C   UNL     1      33.319 -19.675 -20.827  0.00  0.00    +0.040 C 
ATOM     23  C   UNL     1      34.657 -19.314 -20.992  0.00  0.00    +0.167 C 
BRANCH  21  24
ATOM     24  O   UNL     1      36.973 -19.738 -20.557  0.00  0.00    -0.503 OA
ATOM     25  H   UNL     1      37.232 -19.176 -21.261  0.00  0.00    +0.292 HD
ENDBRANCH  21  24
BRANCH  23  26
ATOM     26  O   UNL     1      34.967 -18.211 -21.728  0.00  0.00    -0.503 OA
ATOM     27  H   UNL     1      34.661 -17.368 -21.461  0.00  0.00    +0.292 HD
ENDBRANCH  23  26
ENDBRANCH  17  18
BRANCH  17  28
ATOM     28  O   UNL     1      33.958 -23.937 -19.447  0.00  0.00    -0.382 OA
ATOM     29  H   UNL     1      33.724 -24.730 -18.940  0.00  0.00    +0.211 HD
ENDBRANCH  17  28
ENDBRANCH  16  17
ENDBRANCH   1  16
TORSDOF 9
ENDMDL
