MODEL 1
REMARK VINA RESULT:     -11.1      0.000      0.000
REMARK  Name = 10134493
REMARK  5 active torsions:
REMARK  status: ('A' for Active; 'I' for Inactive)
REMARK    1  A    between atoms: N_2  and  C_13
REMARK    2  A    between atoms: C_7  and  C_28
REMARK    3  A    between atoms: C_16  and  C_22
REMARK    4  A    between atoms: N_21  and  O_24
REMARK    5  A    between atoms: N_27  and  C_30
REMARK                            x       y       z     vdW  Elec       q    Type
REMARK                         _______ _______ _______ _____ _____    ______ ____
ROOT
ATOM      1  N   UNL     1      33.781 -15.655 -24.556  0.00  0.00    -0.185 N 
ATOM      2  N   UNL     1      35.417 -17.421 -21.743  0.00  0.00    -0.297 N 
ATOM      3  N   UNL     1      33.919 -16.547 -25.567  0.00  0.00    -0.151 NA
ATOM      4  N   UNL     1      35.045 -17.961 -23.972  0.00  0.00    -0.206 NA
ATOM      5  C   UNL     1      34.242 -15.868 -23.282  0.00  0.00    +0.102 C 
ATOM      6  C   UNL     1      33.930 -14.761 -22.525  0.00  0.00    +0.002 C 
ATOM      7  C   UNL     1      33.254 -13.849 -23.375  0.00  0.00    +0.067 C 
ATOM      8  C   UNL     1      34.918 -17.108 -22.985  0.00  0.00    +0.149 C 
ATOM      9  C   UNL     1      33.177 -14.427 -24.624  0.00  0.00    +0.094 C 
ATOM     10  C   UNL     1      34.228 -14.534 -21.094  0.00  0.00    +0.033 C 
ATOM     11  C   UNL     1      34.538 -17.639 -25.219  0.00  0.00    +0.219 C 
ATOM     12  H   UNL     1      35.719 -16.667 -21.187  0.00  0.00    +0.154 HD
ENDROOT
BRANCH   2  13
ATOM     13  C   UNL     1      35.541 -18.692 -21.191  0.00  0.00    +0.045 C 
ATOM     14  C   UNL     1      36.764 -19.383 -21.206  0.00  0.00    -0.008 C 
ATOM     15  C   UNL     1      34.426 -19.313 -20.603  0.00  0.00    +0.019 C 
ATOM     16  C   UNL     1      34.531 -20.587 -20.045  0.00  0.00    +0.057 C 
ATOM     17  C   UNL     1      36.870 -20.656 -20.648  0.00  0.00    -0.003 C 
ATOM     18  C   UNL     1      35.754 -21.258 -20.068  0.00  0.00    +0.004 C 
ATOM     19  C   UNL     1      37.976 -18.761 -21.821  0.00  0.00    +0.032 C 
BRANCH  16  22
ATOM     20  O   UNL     1      32.267 -20.637 -19.423  0.00  0.00    -0.268 OA
ATOM     21  N   UNL     1      33.555 -22.469 -18.871  0.00  0.00    -0.190 N 
ATOM     22  C   UNL     1      33.368 -21.215 -19.439  0.00  0.00    +0.268 C 
ATOM     23  H   UNL     1      34.432 -22.916 -18.873  0.00  0.00    +0.183 HD
BRANCH  21  24
ATOM     24  O   UNL     1      32.417 -23.061 -18.289  0.00  0.00    -0.263 OA
ATOM     25  C   UNL     1      32.665 -23.240 -16.900  0.00  0.00    +0.206 C 
ENDBRANCH  21  24
ENDBRANCH  16  22
ENDBRANCH   2  13
BRANCH   7  28
ATOM     26  O   UNL     1      33.195 -11.498 -23.527  0.00  0.00    -0.270 OA
ATOM     27  N   UNL     1      31.625 -12.518 -22.183  0.00  0.00    -0.301 N 
ATOM     28  C   UNL     1      32.729 -12.553 -23.052  0.00  0.00    +0.247 C 
ATOM     29  H   UNL     1      31.283 -13.370 -21.827  0.00  0.00    +0.150 HD
BRANCH  27  30
ATOM     30  C   UNL     1      30.964 -11.296 -21.786  0.00  0.00    +0.090 C 
ATOM     31  C   UNL     1      31.210 -10.989 -20.318  0.00  0.00    +0.023 C 
ENDBRANCH  27  30
ENDBRANCH   7  28
TORSDOF 5
ENDMDL
MODEL 2
REMARK VINA RESULT:     -10.3      3.062      5.621
REMARK  Name = 10134493
REMARK  5 active torsions:
REMARK  status: ('A' for Active; 'I' for Inactive)
REMARK    1  A    between atoms: N_2  and  C_13
REMARK    2  A    between atoms: C_7  and  C_28
REMARK    3  A    between atoms: C_16  and  C_22
REMARK    4  A    between atoms: N_21  and  O_24
REMARK    5  A    between atoms: N_27  and  C_30
REMARK                            x       y       z     vdW  Elec       q    Type
REMARK                         _______ _______ _______ _____ _____    ______ ____
ROOT
ATOM      1  N   UNL     1      32.182 -10.860 -21.742  0.00  0.00    -0.185 N 
ATOM      2  N   UNL     1      33.193 -13.606 -24.011  0.00  0.00    -0.297 N 
ATOM      3  N   UNL     1      31.594 -11.536 -20.727  0.00  0.00    -0.151 NA
ATOM      4  N   UNL     1      32.104 -13.544 -21.959  0.00  0.00    -0.206 NA
ATOM      5  C   UNL     1      32.726 -11.464 -22.847  0.00  0.00    +0.102 C 
ATOM      6  C   UNL     1      33.231 -10.479 -23.667  0.00  0.00    +0.002 C 
ATOM      7  C   UNL     1      32.982  -9.237 -23.030  0.00  0.00    +0.067 C 
ATOM      8  C   UNL     1      32.677 -12.903 -22.948  0.00  0.00    +0.149 C 
ATOM      9  C   UNL     1      32.332  -9.502 -21.844  0.00  0.00    +0.094 C 
ATOM     10  C   UNL     1      33.910 -10.651 -24.969  0.00  0.00    +0.033 C 
ATOM     11  C   UNL     1      31.589 -12.829 -20.892  0.00  0.00    +0.219 C 
ATOM     12  H   UNL     1      33.189 -13.151 -24.884  0.00  0.00    +0.154 HD
ENDROOT
BRANCH   2  13
ATOM     13  C   UNL     1      33.718 -14.894 -23.980  0.00  0.00    +0.045 C 
ATOM     14  C   UNL     1      33.774 -15.692 -25.135  0.00  0.00    -0.008 C 
ATOM     15  C   UNL     1      34.209 -15.423 -22.774  0.00  0.00    +0.019 C 
ATOM     16  C   UNL     1      34.739 -16.712 -22.725  0.00  0.00    +0.057 C 
ATOM     17  C   UNL     1      34.304 -16.980 -25.087  0.00  0.00    -0.003 C 
ATOM     18  C   UNL     1      34.787 -17.490 -23.882  0.00  0.00    +0.004 C 
ATOM     19  C   UNL     1      33.264 -15.170 -26.440  0.00  0.00    +0.032 C 
BRANCH  16  22
ATOM     20  O   UNL     1      35.188 -16.573 -20.424  0.00  0.00    -0.268 OA
ATOM     21  N   UNL     1      35.798 -18.518 -21.503  0.00  0.00    -0.190 N 
ATOM     22  C   UNL     1      35.243 -17.245 -21.469  0.00  0.00    +0.268 C 
ATOM     23  H   UNL     1      35.852 -19.040 -22.336  0.00  0.00    +0.183 HD
BRANCH  21  24
ATOM     24  O   UNL     1      36.280 -19.017 -20.278  0.00  0.00    -0.263 OA
ATOM     25  C   UNL     1      36.099 -20.428 -20.265  0.00  0.00    +0.206 C 
ENDBRANCH  21  24
ENDBRANCH  16  22
ENDBRANCH   2  13
BRANCH   7  28
ATOM     26  O   UNL     1      34.471  -7.448 -23.397  0.00  0.00    -0.270 OA
ATOM     27  N   UNL     1      32.288  -7.173 -24.084  0.00  0.00    -0.301 N 
ATOM     28  C   UNL     1      33.320  -7.919 -23.488  0.00  0.00    +0.247 C 
ATOM     29  H   UNL     1      31.392  -7.576 -24.139  0.00  0.00    +0.150 HD
BRANCH  27  30
ATOM     30  C   UNL     1      32.475  -5.845 -24.621  0.00  0.00    +0.090 C 
ATOM     31  C   UNL     1      31.204  -5.021 -24.506  0.00  0.00    +0.023 C 
ENDBRANCH  27  30
ENDBRANCH   7  28
TORSDOF 5
ENDMDL
MODEL 3
REMARK VINA RESULT:      -9.7      3.984     10.941
REMARK  Name = 10134493
REMARK  5 active torsions:
REMARK  status: ('A' for Active; 'I' for Inactive)
REMARK    1  A    between atoms: N_2  and  C_13
REMARK    2  A    between atoms: C_7  and  C_28
REMARK    3  A    between atoms: C_16  and  C_22
REMARK    4  A    between atoms: N_21  and  O_24
REMARK    5  A    between atoms: N_27  and  C_30
REMARK                            x       y       z     vdW  Elec       q    Type
REMARK                         _______ _______ _______ _____ _____    ______ ____
ROOT
ATOM      1  N   UNL     1      33.818 -13.035 -23.935  0.00  0.00    -0.185 N 
ATOM      2  N   UNL     1      31.906 -10.442 -22.112  0.00  0.00    -0.297 N 
ATOM      3  N   UNL     1      34.194 -12.373 -25.055  0.00  0.00    -0.151 NA
ATOM      4  N   UNL     1      33.024 -10.470 -24.149  0.00  0.00    -0.206 NA
ATOM      5  C   UNL     1      33.072 -12.474 -22.931  0.00  0.00    +0.102 C 
ATOM      6  C   UNL     1      32.879 -13.429 -21.957  0.00  0.00    +0.002 C 
ATOM      7  C   UNL     1      33.535 -14.609 -22.393  0.00  0.00    +0.067 C 
ATOM      8  C   UNL     1      32.654 -11.099 -23.060  0.00  0.00    +0.149 C 
ATOM      9  C   UNL     1      34.106 -14.337 -23.618  0.00  0.00    +0.094 C 
ATOM     10  C   UNL     1      32.134 -13.285 -20.688  0.00  0.00    +0.033 C 
ATOM     11  C   UNL     1      33.779 -11.138 -25.097  0.00  0.00    +0.219 C 
ATOM     12  H   UNL     1      31.286 -10.992 -21.582  0.00  0.00    +0.154 HD
ENDROOT
BRANCH   2  13
ATOM     13  C   UNL     1      31.934  -9.080 -21.827  0.00  0.00    +0.045 C 
ATOM     14  C   UNL     1      32.132  -8.608 -20.518  0.00  0.00    -0.008 C 
ATOM     15  C   UNL     1      31.762  -8.143 -22.860  0.00  0.00    +0.019 C 
ATOM     16  C   UNL     1      31.788  -6.774 -22.593  0.00  0.00    +0.057 C 
ATOM     17  C   UNL     1      32.158  -7.240 -20.250  0.00  0.00    -0.003 C 
ATOM     18  C   UNL     1      31.986  -6.323 -21.287  0.00  0.00    +0.004 C 
ATOM     19  C   UNL     1      32.319  -9.568 -19.389  0.00  0.00    +0.032 C 
BRANCH  16  22
ATOM     20  O   UNL     1      32.236  -5.937 -24.740  0.00  0.00    -0.268 OA
ATOM     21  N   UNL     1      30.729  -4.767 -23.444  0.00  0.00    -0.190 N 
ATOM     22  C   UNL     1      31.609  -5.817 -23.673  0.00  0.00    +0.268 C 
ATOM     23  H   UNL     1      30.246  -4.669 -22.591  0.00  0.00    +0.183 HD
BRANCH  21  24
ATOM     24  O   UNL     1      30.569  -3.851 -24.501  0.00  0.00    -0.263 OA
ATOM     25  C   UNL     1      31.207  -2.632 -24.139  0.00  0.00    +0.206 C 
ENDBRANCH  21  24
ENDBRANCH  16  22
ENDBRANCH   2  13
BRANCH   7  28
ATOM     26  O   UNL     1      32.708 -16.320 -21.001  0.00  0.00    -0.270 OA
ATOM     27  N   UNL     1      34.786 -16.631 -21.950  0.00  0.00    -0.301 N 
ATOM     28  C   UNL     1      33.621 -15.877 -21.726  0.00  0.00    +0.247 C 
ATOM     29  H   UNL     1      35.485 -16.250 -22.528  0.00  0.00    +0.150 HD
BRANCH  27  30
ATOM     30  C   UNL     1      35.009 -17.937 -21.376  0.00  0.00    +0.090 C 
ATOM     31  C   UNL     1      34.614 -19.039 -22.345  0.00  0.00    +0.023 C 
ENDBRANCH  27  30
ENDBRANCH   7  28
TORSDOF 5
ENDMDL
MODEL 4
REMARK VINA RESULT:      -9.6      1.769      8.278
REMARK  Name = 10134493
REMARK  5 active torsions:
REMARK  status: ('A' for Active; 'I' for Inactive)
REMARK    1  A    between atoms: N_2  and  C_13
REMARK    2  A    between atoms: C_7  and  C_28
REMARK    3  A    between atoms: C_16  and  C_22
REMARK    4  A    between atoms: N_21  and  O_24
REMARK    5  A    between atoms: N_27  and  C_30
REMARK                            x       y       z     vdW  Elec       q    Type
REMARK                         _______ _______ _______ _____ _____    ______ ____
ROOT
ATOM      1  N   UNL     1      36.355 -20.387 -20.260  0.00  0.00    -0.185 N 
ATOM      2  N   UNL     1      34.095 -18.290 -22.310  0.00  0.00    -0.297 N 
ATOM      3  N   UNL     1      37.565 -19.840 -20.525  0.00  0.00    -0.151 NA
ATOM      4  N   UNL     1      36.392 -18.299 -21.960  0.00  0.00    -0.206 NA
ATOM      5  C   UNL     1      35.178 -19.938 -20.803  0.00  0.00    +0.102 C 
ATOM      6  C   UNL     1      34.156 -20.723 -20.317  0.00  0.00    +0.002 C 
ATOM      7  C   UNL     1      34.741 -21.680 -19.448  0.00  0.00    +0.067 C 
ATOM      8  C   UNL     1      35.215 -18.818 -21.712  0.00  0.00    +0.149 C 
ATOM      9  C   UNL     1      36.100 -21.449 -19.432  0.00  0.00    +0.094 C 
ATOM     10  C   UNL     1      32.713 -20.615 -20.622  0.00  0.00    +0.033 C 
ATOM     11  C   UNL     1      37.514 -18.835 -21.353  0.00  0.00    +0.219 C 
ATOM     12  H   UNL     1      33.354 -18.913 -22.485  0.00  0.00    +0.154 HD
ENDROOT
BRANCH   2  13
ATOM     13  C   UNL     1      33.902 -16.965 -22.693  0.00  0.00    +0.045 C 
ATOM     14  C   UNL     1      34.270 -16.511 -23.970  0.00  0.00    -0.008 C 
ATOM     15  C   UNL     1      33.328 -16.051 -21.794  0.00  0.00    +0.019 C 
ATOM     16  C   UNL     1      33.127 -14.721 -22.161  0.00  0.00    +0.057 C 
ATOM     17  C   UNL     1      34.069 -15.181 -24.338  0.00  0.00    -0.003 C 
ATOM     18  C   UNL     1      33.498 -14.286 -23.434  0.00  0.00    +0.004 C 
ATOM     19  C   UNL     1      34.884 -17.448 -24.959  0.00  0.00    +0.032 C 
BRANCH  16  22
ATOM     20  O   UNL     1      32.611 -13.981 -19.993  0.00  0.00    -0.268 OA
ATOM     21  N   UNL     1      31.861 -12.695 -21.754  0.00  0.00    -0.190 N 
ATOM     22  C   UNL     1      32.531 -13.787 -21.219  0.00  0.00    +0.268 C 
ATOM     23  H   UNL     1      31.788 -12.554 -22.726  0.00  0.00    +0.183 HD
BRANCH  21  24
ATOM     24  O   UNL     1      31.290 -11.802 -20.827  0.00  0.00    -0.263 OA
ATOM     25  C   UNL     1      31.395 -10.484 -21.350  0.00  0.00    +0.206 C 
ENDBRANCH  21  24
ENDBRANCH  16  22
ENDBRANCH   2  13
BRANCH   7  28
ATOM     26  O   UNL     1      33.802 -23.826 -19.193  0.00  0.00    -0.270 OA
ATOM     27  N   UNL     1      33.808 -22.441 -17.350  0.00  0.00    -0.301 N 
ATOM     28  C   UNL     1      34.089 -22.716 -18.700  0.00  0.00    +0.247 C 
ATOM     29  H   UNL     1      34.049 -21.555 -16.994  0.00  0.00    +0.150 HD
BRANCH  27  30
ATOM     30  C   UNL     1      33.184 -23.391 -16.459  0.00  0.00    +0.090 C 
ATOM     31  C   UNL     1      31.692 -23.130 -16.333  0.00  0.00    +0.023 C 
ENDBRANCH  27  30
ENDBRANCH   7  28
TORSDOF 5
ENDMDL
MODEL 5
REMARK VINA RESULT:      -9.6      2.289      2.947
REMARK  Name = 10134493
REMARK  5 active torsions:
REMARK  status: ('A' for Active; 'I' for Inactive)
REMARK    1  A    between atoms: N_2  and  C_13
REMARK    2  A    between atoms: C_7  and  C_28
REMARK    3  A    between atoms: C_16  and  C_22
REMARK    4  A    between atoms: N_21  and  O_24
REMARK    5  A    between atoms: N_27  and  C_30
REMARK                            x       y       z     vdW  Elec       q    Type
REMARK                         _______ _______ _______ _____ _____    ______ ____
ROOT
ATOM      1  N   UNL     1      34.052 -16.135 -24.653  0.00  0.00    -0.185 N 
ATOM      2  N   UNL     1      34.776 -17.860 -21.458  0.00  0.00    -0.297 N 
ATOM      3  N   UNL     1      34.206 -17.135 -25.554  0.00  0.00    -0.151 NA
ATOM      4  N   UNL     1      34.730 -18.552 -23.676  0.00  0.00    -0.206 NA
ATOM      5  C   UNL     1      34.221 -16.293 -23.301  0.00  0.00    +0.102 C 
ATOM      6  C   UNL     1      33.987 -15.078 -22.696  0.00  0.00    +0.002 C 
ATOM      7  C   UNL     1      33.664 -14.155 -23.724  0.00  0.00    +0.067 C 
ATOM      8  C   UNL     1      34.584 -17.594 -22.793  0.00  0.00    +0.149 C 
ATOM      9  C   UNL     1      33.713 -14.835 -24.922  0.00  0.00    +0.094 C 
ATOM     10  C   UNL     1      34.051 -14.762 -21.254  0.00  0.00    +0.033 C 
ATOM     11  C   UNL     1      34.533 -18.276 -25.017  0.00  0.00    +0.219 C 
ATOM     12  H   UNL     1      35.105 -17.117 -20.904  0.00  0.00    +0.154 HD
ENDROOT
BRANCH   2  13
ATOM     13  C   UNL     1      34.553 -19.072 -20.810  0.00  0.00    +0.045 C 
ATOM     14  C   UNL     1      33.265 -19.623 -20.708  0.00  0.00    -0.008 C 
ATOM     15  C   UNL     1      35.630 -19.771 -20.240  0.00  0.00    +0.019 C 
ATOM     16  C   UNL     1      35.426 -20.986 -19.588  0.00  0.00    +0.057 C 
ATOM     17  C   UNL     1      33.060 -20.839 -20.056  0.00  0.00    -0.003 C 
ATOM     18  C   UNL     1      34.140 -21.520 -19.496  0.00  0.00    +0.004 C 
ATOM     19  C   UNL     1      32.090 -18.915 -21.300  0.00  0.00    +0.032 C 
BRANCH  16  22
ATOM     20  O   UNL     1      37.500 -22.081 -19.711  0.00  0.00    -0.268 OA
ATOM     21  N   UNL     1      36.501 -21.941 -17.637  0.00  0.00    -0.190 N 
ATOM     22  C   UNL     1      36.551 -21.698 -19.003  0.00  0.00    +0.268 C 
ATOM     23  H   UNL     1      35.741 -21.649 -17.083  0.00  0.00    +0.183 HD
BRANCH  21  24
ATOM     24  O   UNL     1      37.599 -22.632 -17.089  0.00  0.00    -0.263 OA
ATOM     25  C   UNL     1      37.306 -22.937 -15.731  0.00  0.00    +0.206 C 
ENDBRANCH  21  24
ENDBRANCH  16  22
ENDBRANCH   2  13
BRANCH   7  28
ATOM     26  O   UNL     1      32.337 -12.356 -22.980  0.00  0.00    -0.270 OA
ATOM     27  N   UNL     1      34.234 -11.851 -24.188  0.00  0.00    -0.301 N 
ATOM     28  C   UNL     1      33.341 -12.762 -23.599  0.00  0.00    +0.247 C 
ATOM     29  H   UNL     1      35.016 -12.206 -24.668  0.00  0.00    +0.150 HD
BRANCH  27  30
ATOM     30  C   UNL     1      34.064 -10.417 -24.123  0.00  0.00    +0.090 C 
ATOM     31  C   UNL     1      35.220  -9.695 -24.795  0.00  0.00    +0.023 C 
ENDBRANCH  27  30
ENDBRANCH   7  28
TORSDOF 5
ENDMDL
MODEL 6
REMARK VINA RESULT:      -9.4      3.131     10.052
REMARK  Name = 10134493
REMARK  5 active torsions:
REMARK  status: ('A' for Active; 'I' for Inactive)
REMARK    1  A    between atoms: N_2  and  C_13
REMARK    2  A    between atoms: C_7  and  C_28
REMARK    3  A    between atoms: C_16  and  C_22
REMARK    4  A    between atoms: N_21  and  O_24
REMARK    5  A    between atoms: N_27  and  C_30
REMARK                            x       y       z     vdW  Elec       q    Type
REMARK                         _______ _______ _______ _____ _____    ______ ____
ROOT
ATOM      1  N   UNL     1      34.079 -14.243 -23.753  0.00  0.00    -0.185 N 
ATOM      2  N   UNL     1      32.108 -11.753 -21.849  0.00  0.00    -0.297 N 
ATOM      3  N   UNL     1      34.217 -13.633 -24.954  0.00  0.00    -0.151 NA
ATOM      4  N   UNL     1      32.943 -11.814 -24.016  0.00  0.00    -0.206 NA
ATOM      5  C   UNL     1      33.405 -13.694 -22.691  0.00  0.00    +0.102 C 
ATOM      6  C   UNL     1      33.465 -14.583 -21.641  0.00  0.00    +0.002 C 
ATOM      7  C   UNL     1      34.203 -15.709 -22.089  0.00  0.00    +0.067 C 
ATOM      8  C   UNL     1      32.803 -12.392 -22.848  0.00  0.00    +0.149 C 
ATOM      9  C   UNL     1      34.569 -15.471 -23.397  0.00  0.00    +0.094 C 
ATOM     10  C   UNL     1      32.881 -14.426 -20.292  0.00  0.00    +0.033 C 
ATOM     11  C   UNL     1      33.646 -12.463 -25.016  0.00  0.00    +0.219 C 
ATOM     12  H   UNL     1      31.638 -12.327 -21.202  0.00  0.00    +0.154 HD
ENDROOT
BRANCH   2  13
ATOM     13  C   UNL     1      31.999 -10.379 -21.658  0.00  0.00    +0.045 C 
ATOM     14  C   UNL     1      31.867  -9.825 -20.373  0.00  0.00    -0.008 C 
ATOM     15  C   UNL     1      32.022  -9.512 -22.764  0.00  0.00    +0.019 C 
ATOM     16  C   UNL     1      31.915  -8.133 -22.591  0.00  0.00    +0.057 C 
ATOM     17  C   UNL     1      31.760  -8.445 -20.200  0.00  0.00    -0.003 C 
ATOM     18  C   UNL     1      31.784  -7.599 -21.308  0.00  0.00    +0.004 C 
ATOM     19  C   UNL     1      31.839 -10.708 -19.168  0.00  0.00    +0.032 C 
BRANCH  16  22
ATOM     20  O   UNL     1      30.915  -7.060 -24.425  0.00  0.00    -0.268 OA
ATOM     21  N   UNL     1      33.156  -6.654 -24.057  0.00  0.00    -0.190 N 
ATOM     22  C   UNL     1      31.940  -7.249 -23.746  0.00  0.00    +0.268 C 
ATOM     23  H   UNL     1      33.968  -6.819 -23.524  0.00  0.00    +0.183 HD
BRANCH  21  24
ATOM     24  O   UNL     1      33.161  -5.803 -25.178  0.00  0.00    -0.263 OA
ATOM     25  C   UNL     1      34.419  -5.926 -25.830  0.00  0.00    +0.206 C 
ENDBRANCH  21  24
ENDBRANCH  16  22
ENDBRANCH   2  13
BRANCH   7  28
ATOM     26  O   UNL     1      35.274 -16.892 -20.355  0.00  0.00    -0.270 OA
ATOM     27  N   UNL     1      33.964 -18.100 -21.817  0.00  0.00    -0.301 N 
ATOM     28  C   UNL     1      34.537 -16.900 -21.361  0.00  0.00    +0.247 C 
ATOM     29  H   UNL     1      33.386 -18.070 -22.613  0.00  0.00    +0.150 HD
BRANCH  27  30
ATOM     30  C   UNL     1      34.177 -19.377 -21.174  0.00  0.00    +0.090 C 
ATOM     31  C   UNL     1      32.885 -19.920 -20.587  0.00  0.00    +0.023 C 
ENDBRANCH  27  30
ENDBRANCH   7  28
TORSDOF 5
ENDMDL
MODEL 7
REMARK VINA RESULT:      -9.4      2.034      3.030
REMARK  Name = 10134493
REMARK  5 active torsions:
REMARK  status: ('A' for Active; 'I' for Inactive)
REMARK    1  A    between atoms: N_2  and  C_13
REMARK    2  A    between atoms: C_7  and  C_28
REMARK    3  A    between atoms: C_16  and  C_22
REMARK    4  A    between atoms: N_21  and  O_24
REMARK    5  A    between atoms: N_27  and  C_30
REMARK                            x       y       z     vdW  Elec       q    Type
REMARK                         _______ _______ _______ _____ _____    ______ ____
ROOT
ATOM      1  N   UNL     1      32.955 -14.481 -21.930  0.00  0.00    -0.185 N 
ATOM      2  N   UNL     1      34.098 -17.995 -22.164  0.00  0.00    -0.297 N 
ATOM      3  N   UNL     1      32.516 -14.412 -20.650  0.00  0.00    -0.151 NA
ATOM      4  N   UNL     1      33.155 -16.728 -20.459  0.00  0.00    -0.206 NA
ATOM      5  C   UNL     1      33.483 -15.613 -22.496  0.00  0.00    +0.102 C 
ATOM      6  C   UNL     1      33.821 -15.322 -23.799  0.00  0.00    +0.002 C 
ATOM      7  C   UNL     1      33.483 -13.963 -24.025  0.00  0.00    +0.067 C 
ATOM      8  C   UNL     1      33.584 -16.809 -21.694  0.00  0.00    +0.149 C 
ATOM      9  C   UNL     1      32.949 -13.469 -22.853  0.00  0.00    +0.094 C 
ATOM     10  C   UNL     1      34.422 -16.230 -24.799  0.00  0.00    +0.033 C 
ATOM     11  C   UNL     1      32.641 -15.531 -19.994  0.00  0.00    +0.219 C 
ATOM     12  H   UNL     1      33.984 -18.175 -23.124  0.00  0.00    +0.154 HD
ENDROOT
BRANCH   2  13
ATOM     13  C   UNL     1      34.762 -18.966 -21.420  0.00  0.00    +0.045 C 
ATOM     14  C   UNL     1      36.164 -19.035 -21.389  0.00  0.00    -0.008 C 
ATOM     15  C   UNL     1      34.026 -19.906 -20.679  0.00  0.00    +0.019 C 
ATOM     16  C   UNL     1      34.674 -20.887 -19.928  0.00  0.00    +0.057 C 
ATOM     17  C   UNL     1      36.813 -20.015 -20.638  0.00  0.00    -0.003 C 
ATOM     18  C   UNL     1      36.068 -20.940 -19.907  0.00  0.00    +0.004 C 
ATOM     19  C   UNL     1      36.988 -18.056 -22.161  0.00  0.00    +0.032 C 
BRANCH  16  22
ATOM     20  O   UNL     1      32.674 -21.973 -19.349  0.00  0.00    -0.268 OA
ATOM     21  N   UNL     1      34.584 -22.606 -18.222  0.00  0.00    -0.190 N 
ATOM     22  C   UNL     1      33.898 -21.852 -19.166  0.00  0.00    +0.268 C 
ATOM     23  H   UNL     1      35.551 -22.497 -18.071  0.00  0.00    +0.183 HD
BRANCH  21  24
ATOM     24  O   UNL     1      33.816 -23.536 -17.495  0.00  0.00    -0.263 OA
ATOM     25  C   UNL     1      34.026 -23.302 -16.107  0.00  0.00    +0.206 C 
ENDBRANCH  21  24
ENDBRANCH  16  22
ENDBRANCH   2  13
BRANCH   7  28
ATOM     26  O   UNL     1      33.148 -13.539 -26.318  0.00  0.00    -0.270 OA
ATOM     27  N   UNL     1      34.368 -11.995 -25.118  0.00  0.00    -0.301 N 
ATOM     28  C   UNL     1      33.642 -13.194 -25.226  0.00  0.00    +0.247 C 
ATOM     29  H   UNL     1      34.744 -11.754 -24.241  0.00  0.00    +0.150 HD
BRANCH  27  30
ATOM     30  C   UNL     1      34.589 -11.097 -26.228  0.00  0.00    +0.090 C 
ATOM     31  C   UNL     1      35.778 -10.186 -25.970  0.00  0.00    +0.023 C 
ENDBRANCH  27  30
ENDBRANCH   7  28
TORSDOF 5
ENDMDL
MODEL 8
REMARK VINA RESULT:      -9.3      2.889      9.596
REMARK  Name = 10134493
REMARK  5 active torsions:
REMARK  status: ('A' for Active; 'I' for Inactive)
REMARK    1  A    between atoms: N_2  and  C_13
REMARK    2  A    between atoms: C_7  and  C_28
REMARK    3  A    between atoms: C_16  and  C_22
REMARK    4  A    between atoms: N_21  and  O_24
REMARK    5  A    between atoms: N_27  and  C_30
REMARK                            x       y       z     vdW  Elec       q    Type
REMARK                         _______ _______ _______ _____ _____    ______ ____
ROOT
ATOM      1  N   UNL     1      33.912 -15.698 -25.396  0.00  0.00    -0.185 N 
ATOM      2  N   UNL     1      32.776 -13.122 -22.991  0.00  0.00    -0.297 N 
ATOM      3  N   UNL     1      33.548 -15.155 -26.582  0.00  0.00    -0.151 NA
ATOM      4  N   UNL     1      32.693 -13.297 -25.306  0.00  0.00    -0.206 NA
ATOM      5  C   UNL     1      33.695 -15.096 -24.183  0.00  0.00    +0.102 C 
ATOM      6  C   UNL     1      34.189 -15.924 -23.200  0.00  0.00    +0.002 C 
ATOM      7  C   UNL     1      34.725 -17.067 -23.847  0.00  0.00    +0.067 C 
ATOM      8  C   UNL     1      33.041 -13.810 -24.152  0.00  0.00    +0.149 C 
ATOM      9  C   UNL     1      34.540 -16.900 -25.203  0.00  0.00    +0.094 C 
ATOM     10  C   UNL     1      34.179 -15.696 -21.739  0.00  0.00    +0.033 C 
ATOM     11  C   UNL     1      32.965 -13.995 -26.470  0.00  0.00    +0.219 C 
ATOM     12  H   UNL     1      32.616 -13.663 -22.185  0.00  0.00    +0.154 HD
ENDROOT
BRANCH   2  13
ATOM     13  C   UNL     1      32.711 -11.740 -22.839  0.00  0.00    +0.045 C 
ATOM     14  C   UNL     1      31.828 -11.143 -21.924  0.00  0.00    -0.008 C 
ATOM     15  C   UNL     1      33.541 -10.909 -23.611  0.00  0.00    +0.019 C 
ATOM     16  C   UNL     1      33.489  -9.523 -23.472  0.00  0.00    +0.057 C 
ATOM     17  C   UNL     1      31.776  -9.757 -21.784  0.00  0.00    -0.003 C 
ATOM     18  C   UNL     1      32.606  -8.946 -22.558  0.00  0.00    +0.004 C 
ATOM     19  C   UNL     1      30.927 -11.987 -21.082  0.00  0.00    +0.032 C 
BRANCH  16  22
ATOM     20  O   UNL     1      35.242  -9.172 -24.995  0.00  0.00    -0.268 OA
ATOM     21  N   UNL     1      34.153  -7.305 -24.191  0.00  0.00    -0.190 N 
ATOM     22  C   UNL     1      34.355  -8.676 -24.278  0.00  0.00    +0.268 C 
ATOM     23  H   UNL     1      33.458  -6.917 -23.611  0.00  0.00    +0.183 HD
BRANCH  21  24
ATOM     24  O   UNL     1      35.001  -6.502 -24.978  0.00  0.00    -0.263 OA
ATOM     25  C   UNL     1      34.209  -5.838 -25.956  0.00  0.00    +0.206 C 
ENDBRANCH  21  24
ENDBRANCH  16  22
ENDBRANCH   2  13
BRANCH   7  28
ATOM     26  O   UNL     1      34.962 -19.379 -23.459  0.00  0.00    -0.270 OA
ATOM     27  N   UNL     1      36.471 -17.968 -22.437  0.00  0.00    -0.301 N 
ATOM     28  C   UNL     1      35.354 -18.213 -23.254  0.00  0.00    +0.247 C 
ATOM     29  H   UNL     1      36.752 -17.036 -22.296  0.00  0.00    +0.150 HD
BRANCH  27  30
ATOM     30  C   UNL     1      37.229 -19.016 -21.793  0.00  0.00    +0.090 C 
ATOM     31  C   UNL     1      36.537 -19.500 -20.529  0.00  0.00    +0.023 C 
ENDBRANCH  27  30
ENDBRANCH   7  28
TORSDOF 5
ENDMDL
MODEL 9
REMARK VINA RESULT:      -8.9      1.985      8.717
REMARK  Name = 10134493
REMARK  5 active torsions:
REMARK  status: ('A' for Active; 'I' for Inactive)
REMARK    1  A    between atoms: N_2  and  C_13
REMARK    2  A    between atoms: C_7  and  C_28
REMARK    3  A    between atoms: C_16  and  C_22
REMARK    4  A    between atoms: N_21  and  O_24
REMARK    5  A    between atoms: N_27  and  C_30
REMARK                            x       y       z     vdW  Elec       q    Type
REMARK                         _______ _______ _______ _____ _____    ______ ____
ROOT
ATOM      1  N   UNL     1      36.004 -19.719 -20.933  0.00  0.00    -0.185 N 
ATOM      2  N   UNL     1      33.444 -17.292 -22.061  0.00  0.00    -0.297 N 
ATOM      3  N   UNL     1      37.150 -19.134 -21.355  0.00  0.00    -0.151 NA
ATOM      4  N   UNL     1      35.761 -17.365 -22.220  0.00  0.00    -0.206 NA
ATOM      5  C   UNL     1      34.757 -19.180 -21.126  0.00  0.00    +0.102 C 
ATOM      6  C   UNL     1      33.831 -20.037 -20.572  0.00  0.00    +0.002 C 
ATOM      7  C   UNL     1      34.549 -21.131 -20.025  0.00  0.00    +0.067 C 
ATOM      8  C   UNL     1      34.643 -17.918 -21.817  0.00  0.00    +0.149 C 
ATOM      9  C   UNL     1      35.889 -20.908 -20.263  0.00  0.00    +0.094 C 
ATOM     10  C   UNL     1      32.362 -19.876 -20.537  0.00  0.00    +0.033 C 
ATOM     11  C   UNL     1      36.964 -18.000 -21.969  0.00  0.00    +0.219 C 
ATOM     12  H   UNL     1      32.659 -17.875 -22.176  0.00  0.00    +0.154 HD
ENDROOT
BRANCH   2  13
ATOM     13  C   UNL     1      33.226 -15.922 -22.162  0.00  0.00    +0.045 C 
ATOM     14  C   UNL     1      32.725 -15.177 -21.082  0.00  0.00    -0.008 C 
ATOM     15  C   UNL     1      33.507 -15.253 -23.366  0.00  0.00    +0.019 C 
ATOM     16  C   UNL     1      33.295 -13.881 -23.485  0.00  0.00    +0.057 C 
ATOM     17  C   UNL     1      32.513 -13.804 -21.200  0.00  0.00    -0.003 C 
ATOM     18  C   UNL     1      32.798 -13.156 -22.402  0.00  0.00    +0.004 C 
ATOM     19  C   UNL     1      32.411 -15.845 -19.782  0.00  0.00    +0.032 C 
BRANCH  16  22
ATOM     20  O   UNL     1      33.284 -13.717 -25.828  0.00  0.00    -0.268 OA
ATOM     21  N   UNL     1      34.246 -11.981 -24.653  0.00  0.00    -0.190 N 
ATOM     22  C   UNL     1      33.592 -13.203 -24.738  0.00  0.00    +0.268 C 
ATOM     23  H   UNL     1      34.501 -11.586 -23.787  0.00  0.00    +0.183 HD
BRANCH  21  24
ATOM     24  O   UNL     1      34.526 -11.341 -25.875  0.00  0.00    -0.263 OA
ATOM     25  C   UNL     1      35.440 -10.280 -25.628  0.00  0.00    +0.206 C 
ENDBRANCH  21  24
ENDBRANCH  16  22
ENDBRANCH   2  13
BRANCH   7  28
ATOM     26  O   UNL     1      34.105 -23.435 -19.812  0.00  0.00    -0.270 OA
ATOM     27  N   UNL     1      33.451 -22.060 -18.081  0.00  0.00    -0.301 N 
ATOM     28  C   UNL     1      34.031 -22.282 -19.342  0.00  0.00    +0.247 C 
ATOM     29  H   UNL     1      33.410 -21.138 -17.741  0.00  0.00    +0.150 HD
BRANCH  27  30
ATOM     30  C   UNL     1      32.914 -23.118 -17.257  0.00  0.00    +0.090 C 
ATOM     31  C   UNL     1      33.735 -23.301 -15.991  0.00  0.00    +0.023 C 
ENDBRANCH  27  30
ENDBRANCH   7  28
TORSDOF 5
ENDMDL
