MODEL 1
REMARK VINA RESULT:      -7.1      0.000      0.000
REMARK  Name = 68740
REMARK  9 active torsions:
REMARK  status: ('A' for Active; 'I' for Inactive)
REMARK    1  A    between atoms: C_1  and  P_2
REMARK    2  A    between atoms: C_1  and  P_8
REMARK    3  A    between atoms: C_1  and  O_14
REMARK    4  A    between atoms: C_1  and  C_16
REMARK    5  A    between atoms: P_2  and  O_4
REMARK    6  A    between atoms: P_2  and  O_6
REMARK    7  A    between atoms: P_8  and  O_10
REMARK    8  A    between atoms: P_8  and  O_12
REMARK    9  A    between atoms: C_16  and  N_17
REMARK                            x       y       z     vdW  Elec       q    Type
REMARK                         _______ _______ _______ _____ _____    ______ ____
ROOT
ATOM      1  C   UNL     1      36.697 -24.639 -13.739  0.00  0.00    +0.293 C 
ENDROOT
BRANCH   1   2
ATOM      2  P   UNL     1      38.220 -25.111 -14.638  0.00  0.00    +0.373 P 
ATOM      3  O   UNL     1      38.983 -23.965 -15.232  0.00  0.00    -0.255 OA
BRANCH   2   4
ATOM      4  O   UNL     1      37.706 -26.210 -15.708  0.00  0.00    -0.322 OA
ATOM      5  H   UNL     1      37.119 -25.784 -16.351  0.00  0.00    +0.220 HD
ENDBRANCH   2   4
BRANCH   2   6
ATOM      6  O   UNL     1      39.034 -26.006 -13.567  0.00  0.00    -0.322 OA
ATOM      7  H   UNL     1      39.610 -25.432 -13.039  0.00  0.00    +0.220 HD
ENDBRANCH   2   6
ENDBRANCH   1   2
BRANCH   1   8
ATOM      8  P   UNL     1      36.476 -24.981 -11.957  0.00  0.00    +0.373 P 
ATOM      9  O   UNL     1      37.214 -24.051 -11.040  0.00  0.00    -0.255 OA
BRANCH   8  10
ATOM     10  O   UNL     1      36.861 -26.543 -11.814  0.00  0.00    -0.322 OA
ATOM     11  H   UNL     1      37.821 -26.649 -11.899  0.00  0.00    +0.220 HD
ENDBRANCH   8  10
BRANCH   8  12
ATOM     12  O   UNL     1      34.870 -24.987 -11.765  0.00  0.00    -0.322 OA
ATOM     13  H   UNL     1      34.544 -24.075 -11.733  0.00  0.00    +0.220 HD
ENDBRANCH   8  12
ENDBRANCH   1   8
BRANCH   1  14
ATOM     14  O   UNL     1      35.746 -25.541 -14.330  0.00  0.00    -0.365 OA
ATOM     15  H   UNL     1      35.094 -25.034 -14.839  0.00  0.00    +0.212 HD
ENDBRANCH   1  14
BRANCH   1  16
ATOM     16  C   UNL     1      36.218 -23.220 -14.125  0.00  0.00    +0.148 C 
BRANCH  16  17
ATOM     17  N   UNL     1      35.456 -23.128 -15.363  0.00  0.00    -0.264 N 
ATOM     18  N   UNL     1      35.010 -22.758 -17.493  0.00  0.00    -0.225 NA
ATOM     19  C   UNL     1      34.136 -23.416 -15.508  0.00  0.00    +0.088 C 
ATOM     20  C   UNL     1      35.945 -22.739 -16.569  0.00  0.00    +0.168 C 
ATOM     21  C   UNL     1      33.880 -23.179 -16.838  0.00  0.00    +0.117 C 
ENDBRANCH  16  17
ENDBRANCH   1  16
TORSDOF 9
ENDMDL
MODEL 2
REMARK VINA RESULT:      -6.8      0.750      3.229
REMARK  Name = 68740
REMARK  9 active torsions:
REMARK  status: ('A' for Active; 'I' for Inactive)
REMARK    1  A    between atoms: C_1  and  P_2
REMARK    2  A    between atoms: C_1  and  P_8
REMARK    3  A    between atoms: C_1  and  O_14
REMARK    4  A    between atoms: C_1  and  C_16
REMARK    5  A    between atoms: P_2  and  O_4
REMARK    6  A    between atoms: P_2  and  O_6
REMARK    7  A    between atoms: P_8  and  O_10
REMARK    8  A    between atoms: P_8  and  O_12
REMARK    9  A    between atoms: C_16  and  N_17
REMARK                            x       y       z     vdW  Elec       q    Type
REMARK                         _______ _______ _______ _____ _____    ______ ____
ROOT
ATOM      1  C   UNL     1      37.324 -24.144 -13.315  0.00  0.00    +0.293 C 
ENDROOT
BRANCH   1   2
ATOM      2  P   UNL     1      36.262 -24.765 -11.960  0.00  0.00    +0.373 P 
ATOM      3  O   UNL     1      34.794 -24.524 -12.149  0.00  0.00    -0.255 OA
BRANCH   2   4
ATOM      4  O   UNL     1      36.896 -24.085 -10.636  0.00  0.00    -0.322 OA
ATOM      5  H   UNL     1      36.866 -24.719  -9.903  0.00  0.00    +0.220 HD
ENDBRANCH   2   4
BRANCH   2   6
ATOM      6  O   UNL     1      36.698 -26.314 -11.812  0.00  0.00    -0.322 OA
ATOM      7  H   UNL     1      37.440 -26.499 -12.408  0.00  0.00    +0.220 HD
ENDBRANCH   2   6
ENDBRANCH   1   2
BRANCH   1   8
ATOM      8  P   UNL     1      37.984 -25.246 -14.615  0.00  0.00    +0.373 P 
ATOM      9  O   UNL     1      36.942 -25.913 -15.465  0.00  0.00    -0.255 OA
BRANCH   8  10
ATOM     10  O   UNL     1      38.965 -26.247 -13.811  0.00  0.00    -0.322 OA
ATOM     11  H   UNL     1      39.547 -25.732 -13.231  0.00  0.00    +0.220 HD
ENDBRANCH   8  10
BRANCH   8  12
ATOM     12  O   UNL     1      39.018 -24.305 -15.427  0.00  0.00    -0.322 OA
ATOM     13  H   UNL     1      39.735 -24.027 -14.836  0.00  0.00    +0.220 HD
ENDBRANCH   8  12
ENDBRANCH   1   8
BRANCH   1  14
ATOM     14  O   UNL     1      38.517 -23.805 -12.587  0.00  0.00    -0.365 OA
ATOM     15  H   UNL     1      38.506 -24.250 -11.725  0.00  0.00    +0.212 HD
ENDBRANCH   1  14
BRANCH   1  16
ATOM     16  C   UNL     1      36.798 -22.810 -13.892  0.00  0.00    +0.148 C 
BRANCH  16  17
ATOM     17  N   UNL     1      35.935 -22.927 -15.060  0.00  0.00    -0.264 N 
ATOM     18  N   UNL     1      35.276 -22.806 -17.164  0.00  0.00    -0.225 NA
ATOM     19  C   UNL     1      34.661 -23.397 -15.064  0.00  0.00    +0.088 C 
ATOM     20  C   UNL     1      36.269 -22.584 -16.332  0.00  0.00    +0.168 C 
ATOM     21  C   UNL     1      34.270 -23.313 -16.380  0.00  0.00    +0.117 C 
ENDBRANCH  16  17
ENDBRANCH   1  16
TORSDOF 9
ENDMDL
MODEL 3
REMARK VINA RESULT:      -6.6      1.360      3.439
REMARK  Name = 68740
REMARK  9 active torsions:
REMARK  status: ('A' for Active; 'I' for Inactive)
REMARK    1  A    between atoms: C_1  and  P_2
REMARK    2  A    between atoms: C_1  and  P_8
REMARK    3  A    between atoms: C_1  and  O_14
REMARK    4  A    between atoms: C_1  and  C_16
REMARK    5  A    between atoms: P_2  and  O_4
REMARK    6  A    between atoms: P_2  and  O_6
REMARK    7  A    between atoms: P_8  and  O_10
REMARK    8  A    between atoms: P_8  and  O_12
REMARK    9  A    between atoms: C_16  and  N_17
REMARK                            x       y       z     vdW  Elec       q    Type
REMARK                         _______ _______ _______ _____ _____    ______ ____
ROOT
ATOM      1  C   UNL     1      36.811 -24.645 -13.826  0.00  0.00    +0.293 C 
ENDROOT
BRANCH   1   2
ATOM      2  P   UNL     1      36.526 -24.958 -12.046  0.00  0.00    +0.373 P 
ATOM      3  O   UNL     1      35.193 -24.504 -11.531  0.00  0.00    -0.255 OA
BRANCH   2   4
ATOM      4  O   UNL     1      37.800 -24.266 -11.328  0.00  0.00    -0.322 OA
ATOM      5  H   UNL     1      38.181 -23.599 -11.920  0.00  0.00    +0.220 HD
ENDBRANCH   2   4
BRANCH   2   6
ATOM      6  O   UNL     1      36.834 -26.535 -11.880  0.00  0.00    -0.322 OA
ATOM      7  H   UNL     1      36.429 -27.022 -12.614  0.00  0.00    +0.220 HD
ENDBRANCH   2   6
ENDBRANCH   1   2
BRANCH   1   8
ATOM      8  P   UNL     1      38.474 -24.755 -14.577  0.00  0.00    +0.373 P 
ATOM      9  O   UNL     1      39.612 -24.712 -13.600  0.00  0.00    -0.255 OA
BRANCH   8  10
ATOM     10  O   UNL     1      38.473 -23.581 -15.688  0.00  0.00    -0.322 OA
ATOM     11  H   UNL     1      38.795 -22.758 -15.289  0.00  0.00    +0.220 HD
ENDBRANCH   8  10
BRANCH   8  12
ATOM     12  O   UNL     1      38.402 -26.099 -15.474  0.00  0.00    -0.322 OA
ATOM     13  H   UNL     1      38.919 -26.799 -15.048  0.00  0.00    +0.220 HD
ENDBRANCH   8  12
ENDBRANCH   1   8
BRANCH   1  14
ATOM     14  O   UNL     1      36.552 -23.233 -13.896  0.00  0.00    -0.365 OA
ATOM     15  H   UNL     1      37.380 -22.746 -13.761  0.00  0.00    +0.212 HD
ENDBRANCH   1  14
BRANCH   1  16
ATOM     16  C   UNL     1      35.728 -25.310 -14.707  0.00  0.00    +0.148 C 
BRANCH  16  17
ATOM     17  N   UNL     1      34.584 -24.471 -15.038  0.00  0.00    -0.264 N 
ATOM     18  N   UNL     1      32.596 -23.526 -14.869  0.00  0.00    -0.225 NA
ATOM     19  C   UNL     1      34.477 -23.666 -16.127  0.00  0.00    +0.088 C 
ATOM     20  C   UNL     1      33.443 -24.362 -14.310  0.00  0.00    +0.168 C 
ATOM     21  C   UNL     1      33.235 -23.089 -16.003  0.00  0.00    +0.117 C 
ENDBRANCH  16  17
ENDBRANCH   1  16
TORSDOF 9
ENDMDL
MODEL 4
REMARK VINA RESULT:      -6.3      1.276      3.040
REMARK  Name = 68740
REMARK  9 active torsions:
REMARK  status: ('A' for Active; 'I' for Inactive)
REMARK    1  A    between atoms: C_1  and  P_2
REMARK    2  A    between atoms: C_1  and  P_8
REMARK    3  A    between atoms: C_1  and  O_14
REMARK    4  A    between atoms: C_1  and  C_16
REMARK    5  A    between atoms: P_2  and  O_4
REMARK    6  A    between atoms: P_2  and  O_6
REMARK    7  A    between atoms: P_8  and  O_10
REMARK    8  A    between atoms: P_8  and  O_12
REMARK    9  A    between atoms: C_16  and  N_17
REMARK                            x       y       z     vdW  Elec       q    Type
REMARK                         _______ _______ _______ _____ _____    ______ ____
ROOT
ATOM      1  C   UNL     1      37.001 -24.207 -13.872  0.00  0.00    +0.293 C 
ENDROOT
BRANCH   1   2
ATOM      2  P   UNL     1      37.302 -23.714 -12.135  0.00  0.00    +0.373 P 
ATOM      3  O   UNL     1      38.147 -22.487 -11.965  0.00  0.00    -0.255 OA
BRANCH   2   4
ATOM      4  O   UNL     1      37.907 -25.053 -11.458  0.00  0.00    -0.322 OA
ATOM      5  H   UNL     1      37.637 -25.094 -10.528  0.00  0.00    +0.220 HD
ENDBRANCH   2   4
BRANCH   2   6
ATOM      6  O   UNL     1      35.819 -23.630 -11.499  0.00  0.00    -0.322 OA
ATOM      7  H   UNL     1      35.794 -22.926 -10.831  0.00  0.00    +0.220 HD
ENDBRANCH   2   6
ENDBRANCH   1   2
BRANCH   1   8
ATOM      8  P   UNL     1      37.087 -25.951 -14.415  0.00  0.00    +0.373 P 
ATOM      9  O   UNL     1      37.254 -26.949 -13.308  0.00  0.00    -0.255 OA
BRANCH   8  10
ATOM     10  O   UNL     1      38.259 -25.950 -15.527  0.00  0.00    -0.322 OA
ATOM     11  H   UNL     1      38.340 -26.836 -15.912  0.00  0.00    +0.220 HD
ENDBRANCH   8  10
BRANCH   8  12
ATOM     12  O   UNL     1      35.749 -26.141 -15.303  0.00  0.00    -0.322 OA
ATOM     13  H   UNL     1      35.109 -26.679 -14.812  0.00  0.00    +0.220 HD
ENDBRANCH   8  12
ENDBRANCH   1   8
BRANCH   1  14
ATOM     14  O   UNL     1      38.157 -23.644 -14.515  0.00  0.00    -0.365 OA
ATOM     15  H   UNL     1      38.635 -24.342 -14.989  0.00  0.00    +0.212 HD
ENDBRANCH   1  14
BRANCH   1  16
ATOM     16  C   UNL     1      35.787 -23.466 -14.478  0.00  0.00    +0.148 C 
BRANCH  16  17
ATOM     17  N   UNL     1      36.005 -22.865 -15.786  0.00  0.00    -0.264 N 
ATOM     18  N   UNL     1      35.649 -22.315 -17.895  0.00  0.00    -0.225 NA
ATOM     19  C   UNL     1      37.075 -22.108 -16.145  0.00  0.00    +0.088 C 
ATOM     20  C   UNL     1      35.175 -22.968 -16.856  0.00  0.00    +0.168 C 
ATOM     21  C   UNL     1      36.833 -21.778 -17.458  0.00  0.00    +0.117 C 
ENDBRANCH  16  17
ENDBRANCH   1  16
TORSDOF 9
ENDMDL
MODEL 5
REMARK VINA RESULT:      -6.2      1.521      3.328
REMARK  Name = 68740
REMARK  9 active torsions:
REMARK  status: ('A' for Active; 'I' for Inactive)
REMARK    1  A    between atoms: C_1  and  P_2
REMARK    2  A    between atoms: C_1  and  P_8
REMARK    3  A    between atoms: C_1  and  O_14
REMARK    4  A    between atoms: C_1  and  C_16
REMARK    5  A    between atoms: P_2  and  O_4
REMARK    6  A    between atoms: P_2  and  O_6
REMARK    7  A    between atoms: P_8  and  O_10
REMARK    8  A    between atoms: P_8  and  O_12
REMARK    9  A    between atoms: C_16  and  N_17
REMARK                            x       y       z     vdW  Elec       q    Type
REMARK                         _______ _______ _______ _____ _____    ______ ____
ROOT
ATOM      1  C   UNL     1      37.359 -24.468 -13.798  0.00  0.00    +0.293 C 
ENDROOT
BRANCH   1   2
ATOM      2  P   UNL     1      37.426 -23.848 -12.078  0.00  0.00    +0.373 P 
ATOM      3  O   UNL     1      38.790 -23.437 -11.607  0.00  0.00    -0.255 OA
BRANCH   2   4
ATOM      4  O   UNL     1      36.742 -25.034 -11.217  0.00  0.00    -0.322 OA
ATOM      5  H   UNL     1      36.670 -24.760 -10.290  0.00  0.00    +0.220 HD
ENDBRANCH   2   4
BRANCH   2   6
ATOM      6  O   UNL     1      36.303 -22.687 -12.045  0.00  0.00    -0.322 OA
ATOM      7  H   UNL     1      35.864 -22.687 -11.180  0.00  0.00    +0.220 HD
ENDBRANCH   2   6
ENDBRANCH   1   2
BRANCH   1   8
ATOM      8  P   UNL     1      38.817 -25.200 -14.624  0.00  0.00    +0.373 P 
ATOM      9  O   UNL     1      39.689 -24.219 -15.350  0.00  0.00    -0.255 OA
BRANCH   8  10
ATOM     10  O   UNL     1      38.191 -26.378 -15.536  0.00  0.00    -0.322 OA
ATOM     11  H   UNL     1      37.297 -26.128 -15.818  0.00  0.00    +0.220 HD
ENDBRANCH   8  10
BRANCH   8  12
ATOM     12  O   UNL     1      39.557 -26.018 -13.440  0.00  0.00    -0.322 OA
ATOM     13  H   UNL     1      38.993 -26.026 -12.652  0.00  0.00    +0.220 HD
ENDBRANCH   8  12
ENDBRANCH   1   8
BRANCH   1  14
ATOM     14  O   UNL     1      37.202 -23.237 -14.522  0.00  0.00    -0.365 OA
ATOM     15  H   UNL     1      36.261 -23.089 -14.707  0.00  0.00    +0.212 HD
ENDBRANCH   1  14
BRANCH   1  16
ATOM     16  C   UNL     1      36.069 -25.276 -14.068  0.00  0.00    +0.148 C 
BRANCH  16  17
ATOM     17  N   UNL     1      34.924 -24.499 -14.523  0.00  0.00    -0.264 N 
ATOM     18  N   UNL     1      33.621 -23.333 -15.871  0.00  0.00    -0.225 NA
ATOM     19  C   UNL     1      33.842 -24.163 -13.773  0.00  0.00    +0.088 C 
ATOM     20  C   UNL     1      34.757 -23.986 -15.770  0.00  0.00    +0.168 C 
ATOM     21  C   UNL     1      33.046 -23.439 -14.629  0.00  0.00    +0.117 C 
ENDBRANCH  16  17
ENDBRANCH   1  16
TORSDOF 9
ENDMDL
MODEL 6
REMARK VINA RESULT:      -6.1      2.858      4.738
REMARK  Name = 68740
REMARK  9 active torsions:
REMARK  status: ('A' for Active; 'I' for Inactive)
REMARK    1  A    between atoms: C_1  and  P_2
REMARK    2  A    between atoms: C_1  and  P_8
REMARK    3  A    between atoms: C_1  and  O_14
REMARK    4  A    between atoms: C_1  and  C_16
REMARK    5  A    between atoms: P_2  and  O_4
REMARK    6  A    between atoms: P_2  and  O_6
REMARK    7  A    between atoms: P_8  and  O_10
REMARK    8  A    between atoms: P_8  and  O_12
REMARK    9  A    between atoms: C_16  and  N_17
REMARK                            x       y       z     vdW  Elec       q    Type
REMARK                         _______ _______ _______ _____ _____    ______ ____
ROOT
ATOM      1  C   UNL     1      36.446 -24.700 -13.447  0.00  0.00    +0.293 C 
ENDROOT
BRANCH   1   2
ATOM      2  P   UNL     1      35.668 -24.167 -11.879  0.00  0.00    +0.373 P 
ATOM      3  O   UNL     1      34.271 -23.639 -12.015  0.00  0.00    -0.255 OA
BRANCH   2   4
ATOM      4  O   UNL     1      36.733 -23.116 -11.263  0.00  0.00    -0.322 OA
ATOM      5  H   UNL     1      36.675 -22.278 -11.747  0.00  0.00    +0.220 HD
ENDBRANCH   2   4
BRANCH   2   6
ATOM      6  O   UNL     1      35.833 -25.451 -10.913  0.00  0.00    -0.322 OA
ATOM      7  H   UNL     1      35.070 -25.507 -10.317  0.00  0.00    +0.220 HD
ENDBRANCH   2   6
ENDBRANCH   1   2
BRANCH   1   8
ATOM      8  P   UNL     1      35.480 -24.924 -14.983  0.00  0.00    +0.373 P 
ATOM      9  O   UNL     1      35.711 -23.877 -16.032  0.00  0.00    -0.255 OA
BRANCH   8  10
ATOM     10  O   UNL     1      33.956 -25.058 -14.463  0.00  0.00    -0.322 OA
ATOM     11  H   UNL     1      33.378 -25.280 -15.210  0.00  0.00    +0.220 HD
ENDBRANCH   8  10
BRANCH   8  12
ATOM     12  O   UNL     1      35.837 -26.433 -15.443  0.00  0.00    -0.322 OA
ATOM     13  H   UNL     1      36.661 -26.430 -15.952  0.00  0.00    +0.220 HD
ENDBRANCH   8  12
ENDBRANCH   1   8
BRANCH   1  14
ATOM     14  O   UNL     1      36.799 -26.056 -13.124  0.00  0.00    -0.365 OA
ATOM     15  H   UNL     1      36.009 -26.533 -12.827  0.00  0.00    +0.212 HD
ENDBRANCH   1  14
BRANCH   1  16
ATOM     16  C   UNL     1      37.786 -23.971 -13.702  0.00  0.00    +0.148 C 
BRANCH  16  17
ATOM     17  N   UNL     1      38.894 -24.820 -14.119  0.00  0.00    -0.264 N 
ATOM     18  N   UNL     1      40.572 -26.248 -13.977  0.00  0.00    -0.225 NA
ATOM     19  C   UNL     1      39.352 -24.962 -15.390  0.00  0.00    +0.088 C 
ATOM     20  C   UNL     1      39.646 -25.602 -13.302  0.00  0.00    +0.168 C 
ATOM     21  C   UNL     1      40.393 -25.852 -15.279  0.00  0.00    +0.117 C 
ENDBRANCH  16  17
ENDBRANCH   1  16
TORSDOF 9
ENDMDL
MODEL 7
REMARK VINA RESULT:      -6.0      3.129      5.193
REMARK  Name = 68740
REMARK  9 active torsions:
REMARK  status: ('A' for Active; 'I' for Inactive)
REMARK    1  A    between atoms: C_1  and  P_2
REMARK    2  A    between atoms: C_1  and  P_8
REMARK    3  A    between atoms: C_1  and  O_14
REMARK    4  A    between atoms: C_1  and  C_16
REMARK    5  A    between atoms: P_2  and  O_4
REMARK    6  A    between atoms: P_2  and  O_6
REMARK    7  A    between atoms: P_8  and  O_10
REMARK    8  A    between atoms: P_8  and  O_12
REMARK    9  A    between atoms: C_16  and  N_17
REMARK                            x       y       z     vdW  Elec       q    Type
REMARK                         _______ _______ _______ _____ _____    ______ ____
ROOT
ATOM      1  C   UNL     1      34.462 -24.063 -14.245  0.00  0.00    +0.293 C 
ENDROOT
BRANCH   1   2
ATOM      2  P   UNL     1      32.636 -23.989 -14.333  0.00  0.00    +0.373 P 
ATOM      3  O   UNL     1      32.086 -23.507 -15.642  0.00  0.00    -0.255 OA
BRANCH   2   4
ATOM      4  O   UNL     1      32.229 -23.087 -13.054  0.00  0.00    -0.322 OA
ATOM      5  H   UNL     1      31.850 -23.655 -12.365  0.00  0.00    +0.220 HD
ENDBRANCH   2   4
BRANCH   2   6
ATOM      6  O   UNL     1      32.170 -25.471 -13.889  0.00  0.00    -0.322 OA
ATOM      7  H   UNL     1      31.587 -25.408 -13.116  0.00  0.00    +0.220 HD
ENDBRANCH   2   6
ENDBRANCH   1   2
BRANCH   1   8
ATOM      8  P   UNL     1      35.527 -23.370 -15.559  0.00  0.00    +0.373 P 
ATOM      9  O   UNL     1      36.065 -21.998 -15.277  0.00  0.00    -0.255 OA
BRANCH   8  10
ATOM     10  O   UNL     1      34.624 -23.498 -16.893  0.00  0.00    -0.322 OA
ATOM     11  H   UNL     1      35.154 -23.251 -17.667  0.00  0.00    +0.220 HD
ENDBRANCH   8  10
BRANCH   8  12
ATOM     12  O   UNL     1      36.655 -24.507 -15.778  0.00  0.00    -0.322 OA
ATOM     13  H   UNL     1      37.361 -24.393 -15.123  0.00  0.00    +0.220 HD
ENDBRANCH   8  12
ENDBRANCH   1   8
BRANCH   1  14
ATOM     14  O   UNL     1      34.681 -25.475 -14.406  0.00  0.00    -0.365 OA
ATOM     15  H   UNL     1      35.592 -25.628 -14.702  0.00  0.00    +0.212 HD
ENDBRANCH   1  14
BRANCH   1  16
ATOM     16  C   UNL     1      34.984 -23.721 -12.830  0.00  0.00    +0.148 C 
BRANCH  16  17
ATOM     17  N   UNL     1      36.332 -24.183 -12.528  0.00  0.00    -0.264 N 
ATOM     18  N   UNL     1      37.992 -25.570 -12.088  0.00  0.00    -0.225 NA
ATOM     19  C   UNL     1      37.428 -23.394 -12.376  0.00  0.00    +0.088 C 
ATOM     20  C   UNL     1      36.707 -25.476 -12.348  0.00  0.00    +0.168 C 
ATOM     21  C   UNL     1      38.447 -24.275 -12.103  0.00  0.00    +0.117 C 
ENDBRANCH  16  17
ENDBRANCH   1  16
TORSDOF 9
ENDMDL
MODEL 8
REMARK VINA RESULT:      -5.9      2.948      4.641
REMARK  Name = 68740
REMARK  9 active torsions:
REMARK  status: ('A' for Active; 'I' for Inactive)
REMARK    1  A    between atoms: C_1  and  P_2
REMARK    2  A    between atoms: C_1  and  P_8
REMARK    3  A    between atoms: C_1  and  O_14
REMARK    4  A    between atoms: C_1  and  C_16
REMARK    5  A    between atoms: P_2  and  O_4
REMARK    6  A    between atoms: P_2  and  O_6
REMARK    7  A    between atoms: P_8  and  O_10
REMARK    8  A    between atoms: P_8  and  O_12
REMARK    9  A    between atoms: C_16  and  N_17
REMARK                            x       y       z     vdW  Elec       q    Type
REMARK                         _______ _______ _______ _____ _____    ______ ____
ROOT
ATOM      1  C   UNL     1      36.247 -24.700 -13.269  0.00  0.00    +0.293 C 
ENDROOT
BRANCH   1   2
ATOM      2  P   UNL     1      36.611 -24.022 -11.609  0.00  0.00    +0.373 P 
ATOM      3  O   UNL     1      37.692 -24.741 -10.857  0.00  0.00    -0.255 OA
BRANCH   2   4
ATOM      4  O   UNL     1      35.169 -24.011 -10.877  0.00  0.00    -0.322 OA
ATOM      5  H   UNL     1      34.559 -24.593 -11.356  0.00  0.00    +0.220 HD
ENDBRANCH   2   4
BRANCH   2   6
ATOM      6  O   UNL     1      36.885 -22.455 -11.887  0.00  0.00    -0.322 OA
ATOM      7  H   UNL     1      36.100 -22.058 -12.296  0.00  0.00    +0.220 HD
ENDBRANCH   2   6
ENDBRANCH   1   2
BRANCH   1   8
ATOM      8  P   UNL     1      36.168 -23.639 -14.756  0.00  0.00    +0.373 P 
ATOM      9  O   UNL     1      35.919 -24.371 -16.041  0.00  0.00    -0.255 OA
BRANCH   8  10
ATOM     10  O   UNL     1      37.543 -22.792 -14.697  0.00  0.00    -0.322 OA
ATOM     11  H   UNL     1      37.781 -22.625 -13.772  0.00  0.00    +0.220 HD
ENDBRANCH   8  10
BRANCH   8  12
ATOM     12  O   UNL     1      35.049 -22.534 -14.378  0.00  0.00    -0.322 OA
ATOM     13  H   UNL     1      34.181 -22.960 -14.319  0.00  0.00    +0.220 HD
ENDBRANCH   8  12
ENDBRANCH   1   8
BRANCH   1  14
ATOM     14  O   UNL     1      34.870 -25.079 -13.108  0.00  0.00    -0.365 OA
ATOM     15  H   UNL     1      34.299 -24.389 -13.481  0.00  0.00    +0.212 HD
ENDBRANCH   1  14
BRANCH   1  16
ATOM     16  C   UNL     1      37.012 -26.018 -13.533  0.00  0.00    +0.148 C 
BRANCH  16  17
ATOM     17  N   UNL     1      38.370 -25.866 -14.037  0.00  0.00    -0.264 N 
ATOM     18  N   UNL     1      40.091 -25.995 -15.415  0.00  0.00    -0.225 NA
ATOM     19  C   UNL     1      39.407 -25.296 -13.370  0.00  0.00    +0.088 C 
ATOM     20  C   UNL     1      38.815 -26.272 -15.254  0.00  0.00    +0.168 C 
ATOM     21  C   UNL     1      40.465 -25.387 -14.243  0.00  0.00    +0.117 C 
ENDBRANCH  16  17
ENDBRANCH   1  16
TORSDOF 9
ENDMDL
MODEL 9
REMARK VINA RESULT:      -5.9      1.096      2.001
REMARK  Name = 68740
REMARK  9 active torsions:
REMARK  status: ('A' for Active; 'I' for Inactive)
REMARK    1  A    between atoms: C_1  and  P_2
REMARK    2  A    between atoms: C_1  and  P_8
REMARK    3  A    between atoms: C_1  and  O_14
REMARK    4  A    between atoms: C_1  and  C_16
REMARK    5  A    between atoms: P_2  and  O_4
REMARK    6  A    between atoms: P_2  and  O_6
REMARK    7  A    between atoms: P_8  and  O_10
REMARK    8  A    between atoms: P_8  and  O_12
REMARK    9  A    between atoms: C_16  and  N_17
REMARK                            x       y       z     vdW  Elec       q    Type
REMARK                         _______ _______ _______ _____ _____    ______ ____
ROOT
ATOM      1  C   UNL     1      36.897 -25.147 -13.394  0.00  0.00    +0.293 C 
ENDROOT
BRANCH   1   2
ATOM      2  P   UNL     1      38.390 -25.701 -14.296  0.00  0.00    +0.373 P 
ATOM      3  O   UNL     1      38.132 -26.674 -15.407  0.00  0.00    -0.255 OA
BRANCH   2   4
ATOM      4  O   UNL     1      39.361 -26.251 -13.125  0.00  0.00    -0.322 OA
ATOM      5  H   UNL     1      40.248 -26.401 -13.485  0.00  0.00    +0.220 HD
ENDBRANCH   2   4
BRANCH   2   6
ATOM      6  O   UNL     1      39.106 -24.321 -14.735  0.00  0.00    -0.322 OA
ATOM      7  H   UNL     1      39.311 -23.797 -13.945  0.00  0.00    +0.220 HD
ENDBRANCH   2   6
ENDBRANCH   1   2
BRANCH   1   8
ATOM      8  P   UNL     1      36.926 -23.720 -12.251  0.00  0.00    +0.373 P 
ATOM      9  O   UNL     1      37.933 -22.660 -12.591  0.00  0.00    -0.255 OA
BRANCH   8  10
ATOM     10  O   UNL     1      37.100 -24.398 -10.795  0.00  0.00    -0.322 OA
ATOM     11  H   UNL     1      36.335 -24.177 -10.241  0.00  0.00    +0.220 HD
ENDBRANCH   8  10
BRANCH   8  12
ATOM     12  O   UNL     1      35.390 -23.214 -12.231  0.00  0.00    -0.322 OA
ATOM     13  H   UNL     1      35.158 -22.924 -11.336  0.00  0.00    +0.220 HD
ENDBRANCH   8  12
ENDBRANCH   1   8
BRANCH   1  14
ATOM     14  O   UNL     1      36.709 -26.245 -12.486  0.00  0.00    -0.365 OA
ATOM     15  H   UNL     1      36.036 -26.008 -11.828  0.00  0.00    +0.212 HD
ENDBRANCH   1  14
BRANCH   1  16
ATOM     16  C   UNL     1      35.646 -25.141 -14.303  0.00  0.00    +0.148 C 
BRANCH  16  17
ATOM     17  N   UNL     1      35.615 -24.102 -15.323  0.00  0.00    -0.264 N 
ATOM     18  N   UNL     1      34.839 -22.816 -16.941  0.00  0.00    -0.225 NA
ATOM     19  C   UNL     1      36.640 -23.270 -15.643  0.00  0.00    +0.088 C 
ATOM     20  C   UNL     1      34.556 -23.802 -16.119  0.00  0.00    +0.168 C 
ATOM     21  C   UNL     1      36.137 -22.480 -16.649  0.00  0.00    +0.117 C 
ENDBRANCH  16  17
ENDBRANCH   1  16
TORSDOF 9
ENDMDL
