MODEL 1
REMARK VINA RESULT:      -3.6      0.000      0.000
REMARK  Name = 20055090
REMARK  7 active torsions:
REMARK  status: ('A' for Active; 'I' for Inactive)
REMARK    1  A    between atoms: C_6  and  O_23
REMARK    2  A    between atoms: C_9  and  C_25
REMARK    3  A    between atoms: C_20  and  O_32
REMARK    4  A    between atoms: C_25  and  O_27
REMARK    5  A    between atoms: C_25  and  C_29
REMARK    6  A    between atoms: C_29  and  C_30
REMARK    7  A    between atoms: O_32  and  C_34
REMARK                            x       y       z     vdW  Elec       q    Type
REMARK                         _______ _______ _______ _____ _____    ______ ____
ROOT
ATOM      1  O   UNL     1      34.945 -24.259 -17.081  0.00  0.00    -0.474 OA
ATOM      2  N   UNL     1      31.349 -24.482 -13.173  0.00  0.00    +0.387 N 
ATOM      3  C   UNL     1      33.480 -24.411 -15.120  0.00  0.00    +0.057 C 
ATOM      4  C   UNL     1      33.516 -23.521 -13.845  0.00  0.00    -0.010 C 
ATOM      5  C   UNL     1      34.887 -24.697 -15.686  0.00  0.00    +0.194 C 
ATOM      6  C   UNL     1      35.926 -23.992 -14.761  0.00  0.00    +0.132 C 
ATOM      7  C   UNL     1      32.020 -23.207 -13.523  0.00  0.00    -0.053 C 
ATOM      8  C   UNL     1      34.335 -24.275 -12.757  0.00  0.00    +0.003 C 
ATOM      9  C   UNL     1      35.756 -24.624 -13.330  0.00  0.00    +0.053 C 
ATOM     10  C   UNL     1      32.648 -25.691 -14.923  0.00  0.00    -0.015 C 
ATOM     11  C   UNL     1      32.935 -23.573 -16.215  0.00  0.00    +0.014 C 
ATOM     12  C   UNL     1      34.372 -22.272 -14.120  0.00  0.00    +0.001 C 
ATOM     13  C   UNL     1      31.308 -22.429 -14.708  0.00  0.00    +0.005 C 
ATOM     14  C   UNL     1      35.592 -22.519 -14.627  0.00  0.00    +0.031 C 
ATOM     15  C   UNL     1      31.271 -25.422 -14.296  0.00  0.00    -0.077 C 
ATOM     16  C   UNL     1      31.879 -22.685 -16.087  0.00  0.00    -0.025 C 
ATOM     17  C   UNL     1      33.768 -23.589 -17.310  0.00  0.00    +0.169 C 
ATOM     18  C   UNL     1      30.047 -24.295 -12.542  0.00  0.00    -0.101 C 
ATOM     19  C   UNL     1      31.536 -21.945 -17.218  0.00  0.00    -0.001 C 
ATOM     20  C   UNL     1      33.456 -22.858 -18.436  0.00  0.00    +0.182 C 
ATOM     21  C   UNL     1      32.306 -22.055 -18.394  0.00  0.00    +0.040 C 
ATOM     22  H   UNL     1      31.957 -24.908 -12.474  0.00  0.00    -0.080 HD
ENDROOT
BRANCH   6  23
ATOM     23  O   UNL     1      37.240 -24.188 -15.252  0.00  0.00    -0.352 OA
ATOM     24  C   UNL     1      37.747 -23.016 -15.883  0.00  0.00    +0.174 C 
ENDBRANCH   6  23
BRANCH   9  25
ATOM     25  C   UNL     1      36.857 -24.219 -12.344  0.00  0.00    +0.091 C 
ATOM     26  C   UNL     1      36.253 -23.963 -10.962  0.00  0.00    +0.029 C 
BRANCH  25  27
ATOM     27  O   UNL     1      37.440 -23.001 -12.815  0.00  0.00    -0.387 OA
ATOM     28  H   UNL     1      37.646 -23.085 -13.759  0.00  0.00    +0.210 HD
ENDBRANCH  25  27
BRANCH  25  29
ATOM     29  C   UNL     1      37.954 -25.302 -12.317  0.00  0.00    +0.027 C 
BRANCH  29  30
ATOM     30  C   UNL     1      39.301 -24.858 -12.902  0.00  0.00    +0.002 C 
ATOM     31  C   UNL     1      39.807 -25.851 -13.938  0.00  0.00    +0.000 C 
ENDBRANCH  29  30
ENDBRANCH  25  29
ENDBRANCH   9  25
BRANCH  20  32
ATOM     32  O   UNL     1      34.253 -22.869 -19.533  0.00  0.00    -0.421 OA
BRANCH  32  34
ATOM     33  O   UNL     1      34.561 -20.771 -20.523  0.00  0.00    -0.250 OA
ATOM     34  C   UNL     1      34.931 -21.660 -19.768  0.00  0.00    +0.322 C 
ATOM     35  C   UNL     1      36.193 -21.607 -18.957  0.00  0.00    +0.122 C 
ENDBRANCH  32  34
ENDBRANCH  20  32
TORSDOF 7
ENDMDL
MODEL 2
REMARK VINA RESULT:      -3.0     15.200     18.941
REMARK  Name = 20055090
REMARK  7 active torsions:
REMARK  status: ('A' for Active; 'I' for Inactive)
REMARK    1  A    between atoms: C_6  and  O_23
REMARK    2  A    between atoms: C_9  and  C_25
REMARK    3  A    between atoms: C_20  and  O_32
REMARK    4  A    between atoms: C_25  and  O_27
REMARK    5  A    between atoms: C_25  and  C_29
REMARK    6  A    between atoms: C_29  and  C_30
REMARK    7  A    between atoms: O_32  and  C_34
REMARK                            x       y       z     vdW  Elec       q    Type
REMARK                         _______ _______ _______ _____ _____    ______ ____
ROOT
ATOM      1  O   UNL     1      34.446  -8.110 -24.725  0.00  0.00    -0.474 OA
ATOM      2  N   UNL     1      31.958  -7.717 -20.044  0.00  0.00    +0.387 N 
ATOM      3  C   UNL     1      33.237  -7.690 -22.633  0.00  0.00    +0.057 C 
ATOM      4  C   UNL     1      31.729  -7.344 -22.469  0.00  0.00    -0.010 C 
ATOM      5  C   UNL     1      33.858  -7.057 -23.896  0.00  0.00    +0.194 C 
ATOM      6  C   UNL     1      32.745  -6.236 -24.617  0.00  0.00    +0.132 C 
ATOM      7  C   UNL     1      31.244  -8.195 -21.252  0.00  0.00    -0.053 C 
ATOM      8  C   UNL     1      31.602  -5.797 -22.351  0.00  0.00    +0.003 C 
ATOM      9  C   UNL     1      32.276  -5.127 -23.602  0.00  0.00    +0.053 C 
ATOM     10  C   UNL     1      34.050  -7.399 -21.360  0.00  0.00    -0.015 C 
ATOM     11  C   UNL     1      33.310  -9.123 -23.009  0.00  0.00    +0.014 C 
ATOM     12  C   UNL     1      30.989  -7.654 -23.783  0.00  0.00    +0.001 C 
ATOM     13  C   UNL     1      31.419  -9.751 -21.508  0.00  0.00    +0.005 C 
ATOM     14  C   UNL     1      31.539  -7.115 -24.885  0.00  0.00    +0.031 C 
ATOM     15  C   UNL     1      33.402  -7.967 -20.089  0.00  0.00    -0.077 C 
ATOM     16  C   UNL     1      32.531 -10.130 -22.463  0.00  0.00    -0.025 C 
ATOM     17  C   UNL     1      34.063  -9.296 -24.148  0.00  0.00    +0.169 C 
ATOM     18  C   UNL     1      31.371  -8.196 -18.798  0.00  0.00    -0.101 C 
ATOM     19  C   UNL     1      32.708 -11.414 -22.977  0.00  0.00    -0.001 C 
ATOM     20  C   UNL     1      34.244 -10.553 -24.682  0.00  0.00    +0.182 C 
ATOM     21  C   UNL     1      33.584 -11.625 -24.063  0.00  0.00    +0.040 C 
ATOM     22  H   UNL     1      31.835  -6.704 -20.058  0.00  0.00    -0.080 HD
ENDROOT
BRANCH   6  23
ATOM     23  O   UNL     1      33.247  -5.659 -25.808  0.00  0.00    -0.352 OA
ATOM     24  C   UNL     1      34.666  -5.754 -25.882  0.00  0.00    +0.174 C 
ENDBRANCH   6  23
BRANCH   9  25
ATOM     25  C   UNL     1      31.350  -4.077 -24.225  0.00  0.00    +0.091 C 
ATOM     26  C   UNL     1      30.631  -3.295 -23.124  0.00  0.00    +0.029 C 
BRANCH  25  27
ATOM     27  O   UNL     1      30.369  -4.765 -25.006  0.00  0.00    -0.387 OA
ATOM     28  H   UNL     1      30.565  -4.646 -25.948  0.00  0.00    +0.210 HD
ENDBRANCH  25  27
BRANCH  25  29
ATOM     29  C   UNL     1      32.161  -3.162 -25.165  0.00  0.00    +0.027 C 
BRANCH  29  30
ATOM     30  C   UNL     1      31.372  -2.622 -26.364  0.00  0.00    +0.002 C 
ATOM     31  C   UNL     1      31.963  -3.107 -27.679  0.00  0.00    +0.000 C 
ENDBRANCH  29  30
ENDBRANCH  25  29
ENDBRANCH   9  25
BRANCH  20  32
ATOM     32  O   UNL     1      34.993 -10.752 -25.794  0.00  0.00    -0.421 OA
BRANCH  32  34
ATOM     33  O   UNL     1      33.391 -12.270 -26.573  0.00  0.00    -0.250 OA
ATOM     34  C   UNL     1      34.488 -11.734 -26.664  0.00  0.00    +0.322 C 
ATOM     35  C   UNL     1      35.492 -12.045 -27.735  0.00  0.00    +0.122 C 
ENDBRANCH  32  34
ENDBRANCH  20  32
TORSDOF 7
ENDMDL
MODEL 3
REMARK VINA RESULT:      -2.6      2.085      5.415
REMARK  Name = 20055090
REMARK  7 active torsions:
REMARK  status: ('A' for Active; 'I' for Inactive)
REMARK    1  A    between atoms: C_6  and  O_23
REMARK    2  A    between atoms: C_9  and  C_25
REMARK    3  A    between atoms: C_20  and  O_32
REMARK    4  A    between atoms: C_25  and  O_27
REMARK    5  A    between atoms: C_25  and  C_29
REMARK    6  A    between atoms: C_29  and  C_30
REMARK    7  A    between atoms: O_32  and  C_34
REMARK                            x       y       z     vdW  Elec       q    Type
REMARK                         _______ _______ _______ _____ _____    ______ ____
ROOT
ATOM      1  O   UNL     1      35.215 -21.650 -15.656  0.00  0.00    -0.474 OA
ATOM      2  N   UNL     1      36.642 -25.234 -12.000  0.00  0.00    +0.387 N 
ATOM      3  C   UNL     1      35.624 -23.341 -13.929  0.00  0.00    +0.057 C 
ATOM      4  C   UNL     1      35.187 -24.835 -13.948  0.00  0.00    -0.010 C 
ATOM      5  C   UNL     1      34.581 -22.408 -14.578  0.00  0.00    +0.194 C 
ATOM      6  C   UNL     1      33.380 -23.285 -15.046  0.00  0.00    +0.132 C 
ATOM      7  C   UNL     1      36.421 -25.629 -13.412  0.00  0.00    -0.053 C 
ATOM      8  C   UNL     1      33.859 -24.956 -13.146  0.00  0.00    +0.003 C 
ATOM      9  C   UNL     1      32.795 -23.974 -13.756  0.00  0.00    +0.053 C 
ATOM     10  C   UNL     1      36.053 -22.871 -12.527  0.00  0.00    -0.015 C 
ATOM     11  C   UNL     1      36.728 -23.203 -14.909  0.00  0.00    +0.014 C 
ATOM     12  C   UNL     1      34.766 -25.223 -15.377  0.00  0.00    +0.001 C 
ATOM     13  C   UNL     1      37.701 -25.425 -14.326  0.00  0.00    +0.005 C 
ATOM     14  C   UNL     1      33.868 -24.401 -15.948  0.00  0.00    +0.031 C 
ATOM     15  C   UNL     1      37.040 -23.831 -11.846  0.00  0.00    -0.077 C 
ATOM     16  C   UNL     1      37.756 -24.115 -15.083  0.00  0.00    -0.025 C 
ATOM     17  C   UNL     1      36.469 -22.191 -15.804  0.00  0.00    +0.169 C 
ATOM     18  C   UNL     1      37.547 -26.127 -11.286  0.00  0.00    -0.101 C 
ATOM     19  C   UNL     1      38.680 -23.840 -16.090  0.00  0.00    -0.001 C 
ATOM     20  C   UNL     1      37.362 -21.905 -16.814  0.00  0.00    +0.182 C 
ATOM     21  C   UNL     1      38.496 -22.722 -16.931  0.00  0.00    +0.040 C 
ATOM     22  H   UNL     1      35.726 -25.330 -11.561  0.00  0.00    -0.080 HD
ENDROOT
BRANCH   6  23
ATOM     23  O   UNL     1      32.401 -22.487 -15.685  0.00  0.00    -0.352 OA
ATOM     24  C   UNL     1      32.440 -22.637 -17.101  0.00  0.00    +0.174 C 
ENDBRANCH   6  23
BRANCH   9  25
ATOM     25  C   UNL     1      31.462 -24.690 -13.992  0.00  0.00    +0.091 C 
ATOM     26  C   UNL     1      30.409 -24.174 -13.010  0.00  0.00    +0.029 C 
BRANCH  25  27
ATOM     27  O   UNL     1      31.664 -26.085 -13.747  0.00  0.00    -0.387 OA
ATOM     28  H   UNL     1      32.070 -26.203 -12.874  0.00  0.00    +0.210 HD
ENDBRANCH  25  27
BRANCH  25  29
ATOM     29  C   UNL     1      31.031 -24.515 -15.463  0.00  0.00    +0.027 C 
BRANCH  29  30
ATOM     30  C   UNL     1      29.533 -24.722 -15.716  0.00  0.00    +0.002 C 
ATOM     31  C   UNL     1      28.907 -23.492 -16.356  0.00  0.00    +0.000 C 
ENDBRANCH  29  30
ENDBRANCH  25  29
ENDBRANCH   9  25
BRANCH  20  32
ATOM     32  O   UNL     1      37.137 -20.903 -17.699  0.00  0.00    -0.421 OA
BRANCH  32  34
ATOM     33  O   UNL     1      35.659 -22.244 -18.922  0.00  0.00    -0.250 OA
ATOM     34  C   UNL     1      36.428 -21.295 -18.848  0.00  0.00    +0.322 C 
ATOM     35  C   UNL     1      36.747 -20.378 -19.993  0.00  0.00    +0.122 C 
ENDBRANCH  32  34
ENDBRANCH  20  32
TORSDOF 7
ENDMDL
MODEL 4
REMARK VINA RESULT:      -2.3      2.490      6.228
REMARK  Name = 20055090
REMARK  7 active torsions:
REMARK  status: ('A' for Active; 'I' for Inactive)
REMARK    1  A    between atoms: C_6  and  O_23
REMARK    2  A    between atoms: C_9  and  C_25
REMARK    3  A    between atoms: C_20  and  O_32
REMARK    4  A    between atoms: C_25  and  O_27
REMARK    5  A    between atoms: C_25  and  C_29
REMARK    6  A    between atoms: C_29  and  C_30
REMARK    7  A    between atoms: O_32  and  C_34
REMARK                            x       y       z     vdW  Elec       q    Type
REMARK                         _______ _______ _______ _____ _____    ______ ____
ROOT
ATOM      1  O   UNL     1      35.168 -25.218 -14.848  0.00  0.00    -0.474 OA
ATOM      2  N   UNL     1      33.287 -22.697 -19.132  0.00  0.00    +0.387 N 
ATOM      3  C   UNL     1      34.067 -24.097 -16.731  0.00  0.00    +0.057 C 
ATOM      4  C   UNL     1      33.155 -22.837 -16.676  0.00  0.00    -0.010 C 
ATOM      5  C   UNL     1      33.878 -25.021 -15.509  0.00  0.00    +0.194 C 
ATOM      6  C   UNL     1      32.790 -24.384 -14.591  0.00  0.00    +0.132 C 
ATOM      7  C   UNL     1      33.602 -21.957 -17.887  0.00  0.00    -0.053 C 
ATOM      8  C   UNL     1      31.675 -23.317 -16.653  0.00  0.00    +0.003 C 
ATOM      9  C   UNL     1      31.471 -24.303 -15.446  0.00  0.00    +0.053 C 
ATOM     10  C   UNL     1      33.953 -24.850 -18.069  0.00  0.00    -0.015 C 
ATOM     11  C   UNL     1      35.454 -23.636 -16.484  0.00  0.00    +0.014 C 
ATOM     12  C   UNL     1      33.319 -22.150 -15.309  0.00  0.00    +0.001 C 
ATOM     13  C   UNL     1      35.126 -21.530 -17.781  0.00  0.00    +0.005 C 
ATOM     14  C   UNL     1      33.170 -22.958 -14.245  0.00  0.00    +0.031 C 
ATOM     15  C   UNL     1      34.071 -23.926 -19.290  0.00  0.00    -0.077 C 
ATOM     16  C   UNL     1      36.013 -22.482 -17.007  0.00  0.00    -0.025 C 
ATOM     17  C   UNL     1      36.038 -24.354 -15.465  0.00  0.00    +0.169 C 
ATOM     18  C   UNL     1      33.350 -21.866 -20.330  0.00  0.00    -0.101 C 
ATOM     19  C   UNL     1      37.321 -22.184 -16.623  0.00  0.00    -0.001 C 
ATOM     20  C   UNL     1      37.326 -24.073 -15.062  0.00  0.00    +0.182 C 
ATOM     21  C   UNL     1      37.981 -22.996 -15.677  0.00  0.00    +0.040 C 
ATOM     22  H   UNL     1      32.314 -22.982 -19.023  0.00  0.00    -0.080 HD
ENDROOT
BRANCH   6  23
ATOM     23  O   UNL     1      32.598 -25.171 -13.430  0.00  0.00    -0.352 OA
ATOM     24  C   UNL     1      33.461 -24.769 -12.372  0.00  0.00    +0.174 C 
ENDBRANCH   6  23
BRANCH   9  25
ATOM     25  C   UNL     1      30.232 -23.919 -14.630  0.00  0.00    +0.091 C 
ATOM     26  C   UNL     1      30.319 -22.450 -14.209  0.00  0.00    +0.029 C 
BRANCH  25  27
ATOM     27  O   UNL     1      30.216 -24.727 -13.450  0.00  0.00    -0.387 OA
ATOM     28  H   UNL     1      29.904 -24.197 -12.700  0.00  0.00    +0.210 HD
ENDBRANCH  25  27
BRANCH  25  29
ATOM     29  C   UNL     1      28.959 -24.225 -15.443  0.00  0.00    +0.027 C 
BRANCH  29  30
ATOM     30  C   UNL     1      28.080 -23.002 -15.736  0.00  0.00    +0.002 C 
ATOM     31  C   UNL     1      27.849 -22.833 -17.229  0.00  0.00    +0.000 C 
ENDBRANCH  29  30
ENDBRANCH  25  29
ENDBRANCH   9  25
BRANCH  20  32
ATOM     32  O   UNL     1      37.929 -24.775 -14.072  0.00  0.00    -0.421 OA
BRANCH  32  34
ATOM     33  O   UNL     1      38.211 -26.960 -14.865  0.00  0.00    -0.250 OA
ATOM     34  C   UNL     1      38.674 -25.881 -14.518  0.00  0.00    +0.322 C 
ATOM     35  C   UNL     1      40.139 -25.557 -14.510  0.00  0.00    +0.122 C 
ENDBRANCH  32  34
ENDBRANCH  20  32
TORSDOF 7
ENDMDL
MODEL 5
REMARK VINA RESULT:      -1.1      1.554      5.962
REMARK  Name = 20055090
REMARK  7 active torsions:
REMARK  status: ('A' for Active; 'I' for Inactive)
REMARK    1  A    between atoms: C_6  and  O_23
REMARK    2  A    between atoms: C_9  and  C_25
REMARK    3  A    between atoms: C_20  and  O_32
REMARK    4  A    between atoms: C_25  and  O_27
REMARK    5  A    between atoms: C_25  and  C_29
REMARK    6  A    between atoms: C_29  and  C_30
REMARK    7  A    between atoms: O_32  and  C_34
REMARK                            x       y       z     vdW  Elec       q    Type
REMARK                         _______ _______ _______ _____ _____    ______ ____
ROOT
ATOM      1  O   UNL     1      35.750 -22.225 -14.370  0.00  0.00    -0.474 OA
ATOM      2  N   UNL     1      30.668 -23.606 -15.087  0.00  0.00    +0.387 N 
ATOM      3  C   UNL     1      33.435 -22.791 -14.944  0.00  0.00    +0.057 C 
ATOM      4  C   UNL     1      32.951 -23.842 -15.984  0.00  0.00    -0.010 C 
ATOM      5  C   UNL     1      34.717 -22.058 -15.392  0.00  0.00    +0.194 C 
ATOM      6  C   UNL     1      35.120 -22.613 -16.793  0.00  0.00    +0.132 C 
ATOM      7  C   UNL     1      31.762 -24.585 -15.293  0.00  0.00    -0.053 C 
ATOM      8  C   UNL     1      32.645 -23.095 -17.315  0.00  0.00    +0.003 C 
ATOM      9  C   UNL     1      33.922 -22.297 -17.764  0.00  0.00    +0.053 C 
ATOM     10  C   UNL     1      32.315 -21.824 -14.519  0.00  0.00    -0.015 C 
ATOM     11  C   UNL     1      33.969 -23.546 -13.786  0.00  0.00    +0.014 C 
ATOM     12  C   UNL     1      34.126 -24.761 -16.364  0.00  0.00    +0.001 C 
ATOM     13  C   UNL     1      32.213 -25.310 -13.956  0.00  0.00    +0.005 C 
ATOM     14  C   UNL     1      35.248 -24.123 -16.739  0.00  0.00    +0.031 C 
ATOM     15  C   UNL     1      31.012 -22.543 -14.137  0.00  0.00    -0.077 C 
ATOM     16  C   UNL     1      33.396 -24.687 -13.247  0.00  0.00    -0.025 C 
ATOM     17  C   UNL     1      35.243 -23.130 -13.471  0.00  0.00    +0.169 C 
ATOM     18  C   UNL     1      29.392 -24.229 -14.753  0.00  0.00    -0.101 C 
ATOM     19  C   UNL     1      34.070 -25.290 -12.185  0.00  0.00    -0.001 C 
ATOM     20  C   UNL     1      35.933 -23.717 -12.432  0.00  0.00    +0.182 C 
ATOM     21  C   UNL     1      35.318 -24.786 -11.764  0.00  0.00    +0.040 C 
ATOM     22  H   UNL     1      30.549 -23.160 -15.997  0.00  0.00    -0.080 HD
ENDROOT
BRANCH   6  23
ATOM     23  O   UNL     1      36.316 -22.002 -17.242  0.00  0.00    -0.352 OA
ATOM     24  C   UNL     1      37.450 -22.465 -16.515  0.00  0.00    +0.174 C 
ENDBRANCH   6  23
BRANCH   9  25
ATOM     25  C   UNL     1      34.241 -22.561 -19.239  0.00  0.00    +0.091 C 
ATOM     26  C   UNL     1      33.864 -23.998 -19.606  0.00  0.00    +0.029 C 
BRANCH  25  27
ATOM     27  O   UNL     1      35.652 -22.405 -19.418  0.00  0.00    -0.387 OA
ATOM     28  H   UNL     1      36.116 -23.136 -18.980  0.00  0.00    +0.210 HD
ENDBRANCH  25  27
BRANCH  25  29
ATOM     29  C   UNL     1      33.524 -21.520 -20.120  0.00  0.00    +0.027 C 
BRANCH  29  30
ATOM     30  C   UNL     1      34.373 -20.294 -20.478  0.00  0.00    +0.002 C 
ATOM     31  C   UNL     1      33.516 -19.174 -21.048  0.00  0.00    +0.000 C 
ENDBRANCH  29  30
ENDBRANCH  25  29
ENDBRANCH   9  25
BRANCH  20  32
ATOM     32  O   UNL     1      37.182 -23.314 -12.093  0.00  0.00    -0.421 OA
BRANCH  32  34
ATOM     33  O   UNL     1      38.569 -24.923 -11.109  0.00  0.00    -0.250 OA
ATOM     34  C   UNL     1      38.142 -24.341 -12.098  0.00  0.00    +0.322 C 
ATOM     35  C   UNL     1      38.583 -24.633 -13.503  0.00  0.00    +0.122 C 
ENDBRANCH  32  34
ENDBRANCH  20  32
TORSDOF 7
ENDMDL
