MODEL 1
REMARK VINA RESULT:      -3.8      0.000      0.000
REMARK  Name = 8064
REMARK  5 active torsions:
REMARK  status: ('A' for Active; 'I' for Inactive)
REMARK    1  A    between atoms: C_1  and  C_2
REMARK    2  A    between atoms: C_1  and  C_6
REMARK    3  A    between atoms: C_2  and  C_3
REMARK    4  A    between atoms: C_3  and  O_4
REMARK    5  A    between atoms: C_6  and  O_7
REMARK                            x       y       z     vdW  Elec       q    Type
REMARK                         _______ _______ _______ _____ _____    ______ ____
ROOT
ATOM      1  C   UNL     1      37.914 -24.979 -14.577  0.00  0.00    +0.034 C 
ENDROOT
BRANCH   1   2
ATOM      2  C   UNL     1      39.116 -25.714 -13.996  0.00  0.00    +0.034 C 
BRANCH   2   3
ATOM      3  C   UNL     1      40.395 -25.384 -14.751  0.00  0.00    +0.137 C 
BRANCH   3   4
ATOM      4  O   UNL     1      40.306 -25.923 -16.063  0.00  0.00    -0.382 OA
ATOM      5  H   UNL     1      39.530 -26.502 -16.123  0.00  0.00    +0.210 HD
ENDBRANCH   3   4
ENDBRANCH   2   3
ENDBRANCH   1   2
BRANCH   1   6
ATOM      6  C   UNL     1      36.823 -25.945 -15.017  0.00  0.00    +0.137 C 
BRANCH   6   7
ATOM      7  O   UNL     1      37.374 -26.869 -15.946  0.00  0.00    -0.382 OA
ATOM      8  H   UNL     1      38.317 -26.993 -15.757  0.00  0.00    +0.210 HD
ENDBRANCH   6   7
ENDBRANCH   1   6
TORSDOF 5
ENDMDL
MODEL 2
REMARK VINA RESULT:      -3.8      0.664      2.845
REMARK  Name = 8064
REMARK  5 active torsions:
REMARK  status: ('A' for Active; 'I' for Inactive)
REMARK    1  A    between atoms: C_1  and  C_2
REMARK    2  A    between atoms: C_1  and  C_6
REMARK    3  A    between atoms: C_2  and  C_3
REMARK    4  A    between atoms: C_3  and  O_4
REMARK    5  A    between atoms: C_6  and  O_7
REMARK                            x       y       z     vdW  Elec       q    Type
REMARK                         _______ _______ _______ _____ _____    ______ ____
ROOT
ATOM      1  C   UNL     1      38.859 -25.062 -14.398  0.00  0.00    +0.034 C 
ENDROOT
BRANCH   1   2
ATOM      2  C   UNL     1      37.905 -26.166 -13.957  0.00  0.00    +0.034 C 
BRANCH   2   3
ATOM      3  C   UNL     1      36.785 -26.378 -14.965  0.00  0.00    +0.137 C 
BRANCH   3   4
ATOM      4  O   UNL     1      37.314 -27.031 -16.110  0.00  0.00    -0.382 OA
ATOM      5  H   UNL     1      38.272 -27.148 -16.001  0.00  0.00    +0.210 HD
ENDBRANCH   3   4
ENDBRANCH   2   3
ENDBRANCH   1   2
BRANCH   1   6
ATOM      6  C   UNL     1      40.254 -25.603 -14.679  0.00  0.00    +0.137 C 
BRANCH   6   7
ATOM      7  O   UNL     1      40.348 -25.936 -16.058  0.00  0.00    -0.382 OA
ATOM      8  H   UNL     1      41.239 -26.267 -16.249  0.00  0.00    +0.210 HD
ENDBRANCH   6   7
ENDBRANCH   1   6
TORSDOF 5
ENDMDL
MODEL 3
REMARK VINA RESULT:      -3.7      2.455      3.353
REMARK  Name = 8064
REMARK  5 active torsions:
REMARK  status: ('A' for Active; 'I' for Inactive)
REMARK    1  A    between atoms: C_1  and  C_2
REMARK    2  A    between atoms: C_1  and  C_6
REMARK    3  A    between atoms: C_2  and  C_3
REMARK    4  A    between atoms: C_3  and  O_4
REMARK    5  A    between atoms: C_6  and  O_7
REMARK                            x       y       z     vdW  Elec       q    Type
REMARK                         _______ _______ _______ _____ _____    ______ ____
ROOT
ATOM      1  C   UNL     1      38.888 -25.282 -14.339  0.00  0.00    +0.034 C 
ENDROOT
BRANCH   1   2
ATOM      2  C   UNL     1      38.569 -25.375 -12.852  0.00  0.00    +0.034 C 
BRANCH   2   3
ATOM      3  C   UNL     1      37.893 -24.111 -12.342  0.00  0.00    +0.137 C 
BRANCH   3   4
ATOM      4  O   UNL     1      38.857 -23.311 -11.672  0.00  0.00    -0.382 OA
ATOM      5  H   UNL     1      39.163 -23.774 -10.875  0.00  0.00    +0.210 HD
ENDBRANCH   3   4
ENDBRANCH   2   3
ENDBRANCH   1   2
BRANCH   1   6
ATOM      6  C   UNL     1      40.322 -25.700 -14.634  0.00  0.00    +0.137 C 
BRANCH   6   7
ATOM      7  O   UNL     1      40.448 -25.959 -16.026  0.00  0.00    -0.382 OA
ATOM      8  H   UNL     1      41.345 -26.277 -16.215  0.00  0.00    +0.210 HD
ENDBRANCH   6   7
ENDBRANCH   1   6
TORSDOF 5
ENDMDL
MODEL 4
REMARK VINA RESULT:      -3.6      2.505      2.870
REMARK  Name = 8064
REMARK  5 active torsions:
REMARK  status: ('A' for Active; 'I' for Inactive)
REMARK    1  A    between atoms: C_1  and  C_2
REMARK    2  A    between atoms: C_1  and  C_6
REMARK    3  A    between atoms: C_2  and  C_3
REMARK    4  A    between atoms: C_3  and  O_4
REMARK    5  A    between atoms: C_6  and  O_7
REMARK                            x       y       z     vdW  Elec       q    Type
REMARK                         _______ _______ _______ _____ _____    ______ ____
ROOT
ATOM      1  C   UNL     1      38.673 -25.237 -12.805  0.00  0.00    +0.034 C 
ENDROOT
BRANCH   1   2
ATOM      2  C   UNL     1      38.842 -25.372 -14.314  0.00  0.00    +0.034 C 
BRANCH   2   3
ATOM      3  C   UNL     1      40.311 -25.415 -14.713  0.00  0.00    +0.137 C 
BRANCH   3   4
ATOM      4  O   UNL     1      40.415 -25.954 -16.023  0.00  0.00    -0.382 OA
ATOM      5  H   UNL     1      41.028 -26.706 -16.015  0.00  0.00    +0.210 HD
ENDBRANCH   3   4
ENDBRANCH   2   3
ENDBRANCH   1   2
BRANCH   1   6
ATOM      6  C   UNL     1      37.838 -24.017 -12.440  0.00  0.00    +0.137 C 
BRANCH   6   7
ATOM      7  O   UNL     1      38.631 -23.137 -11.654  0.00  0.00    -0.382 OA
ATOM      8  H   UNL     1      38.178 -22.283 -11.570  0.00  0.00    +0.210 HD
ENDBRANCH   6   7
ENDBRANCH   1   6
TORSDOF 5
ENDMDL
MODEL 5
REMARK VINA RESULT:      -3.5      8.513      9.044
REMARK  Name = 8064
REMARK  5 active torsions:
REMARK  status: ('A' for Active; 'I' for Inactive)
REMARK    1  A    between atoms: C_1  and  C_2
REMARK    2  A    between atoms: C_1  and  C_6
REMARK    3  A    between atoms: C_2  and  C_3
REMARK    4  A    between atoms: C_3  and  O_4
REMARK    5  A    between atoms: C_6  and  O_7
REMARK                            x       y       z     vdW  Elec       q    Type
REMARK                         _______ _______ _______ _____ _____    ______ ____
ROOT
ATOM      1  C   UNL     1      32.904 -20.297 -20.355  0.00  0.00    +0.034 C 
ENDROOT
BRANCH   1   2
ATOM      2  C   UNL     1      33.834 -19.339 -21.089  0.00  0.00    +0.034 C 
BRANCH   2   3
ATOM      3  C   UNL     1      35.292 -19.753 -20.949  0.00  0.00    +0.137 C 
BRANCH   3   4
ATOM      4  O   UNL     1      36.058 -18.618 -20.571  0.00  0.00    -0.382 OA
ATOM      5  H   UNL     1      36.752 -18.889 -19.949  0.00  0.00    +0.210 HD
ENDBRANCH   3   4
ENDBRANCH   2   3
ENDBRANCH   1   2
BRANCH   1   6
ATOM      6  C   UNL     1      33.681 -21.362 -19.593  0.00  0.00    +0.137 C 
BRANCH   6   7
ATOM      7  O   UNL     1      32.760 -22.205 -18.914  0.00  0.00    -0.382 OA
ATOM      8  H   UNL     1      33.183 -23.057 -18.723  0.00  0.00    +0.210 HD
ENDBRANCH   6   7
ENDBRANCH   1   6
TORSDOF 5
ENDMDL
MODEL 6
REMARK VINA RESULT:      -3.5     11.426     12.003
REMARK  Name = 8064
REMARK  5 active torsions:
REMARK  status: ('A' for Active; 'I' for Inactive)
REMARK    1  A    between atoms: C_1  and  C_2
REMARK    2  A    between atoms: C_1  and  C_6
REMARK    3  A    between atoms: C_2  and  C_3
REMARK    4  A    between atoms: C_3  and  O_4
REMARK    5  A    between atoms: C_6  and  O_7
REMARK                            x       y       z     vdW  Elec       q    Type
REMARK                         _______ _______ _______ _____ _____    ______ ____
ROOT
ATOM      1  C   UNL     1      40.944 -15.160 -15.032  0.00  0.00    +0.034 C 
ENDROOT
BRANCH   1   2
ATOM      2  C   UNL     1      41.576 -15.355 -16.405  0.00  0.00    +0.034 C 
BRANCH   2   3
ATOM      3  C   UNL     1      41.556 -14.070 -17.221  0.00  0.00    +0.137 C 
BRANCH   3   4
ATOM      4  O   UNL     1      40.756 -14.273 -18.378  0.00  0.00    -0.382 OA
ATOM      5  H   UNL     1      41.281 -14.080 -19.171  0.00  0.00    +0.210 HD
ENDBRANCH   3   4
ENDBRANCH   2   3
ENDBRANCH   1   2
BRANCH   1   6
ATOM      6  C   UNL     1      40.843 -13.686 -14.664  0.00  0.00    +0.137 C 
BRANCH   6   7
ATOM      7  O   UNL     1      40.834 -13.566 -13.248  0.00  0.00    -0.382 OA
ATOM      8  H   UNL     1      39.990 -13.896 -12.901  0.00  0.00    +0.210 HD
ENDBRANCH   6   7
ENDBRANCH   1   6
TORSDOF 5
ENDMDL
MODEL 7
REMARK VINA RESULT:      -3.5      8.358      9.269
REMARK  Name = 8064
REMARK  5 active torsions:
REMARK  status: ('A' for Active; 'I' for Inactive)
REMARK    1  A    between atoms: C_1  and  C_2
REMARK    2  A    between atoms: C_1  and  C_6
REMARK    3  A    between atoms: C_2  and  C_3
REMARK    4  A    between atoms: C_3  and  O_4
REMARK    5  A    between atoms: C_6  and  O_7
REMARK                            x       y       z     vdW  Elec       q    Type
REMARK                         _______ _______ _______ _____ _____    ______ ____
ROOT
ATOM      1  C   UNL     1      33.968 -19.627 -21.123  0.00  0.00    +0.034 C 
ENDROOT
BRANCH   1   2
ATOM      2  C   UNL     1      32.974 -20.341 -20.213  0.00  0.00    +0.034 C 
BRANCH   2   3
ATOM      3  C   UNL     1      33.600 -21.554 -19.540  0.00  0.00    +0.137 C 
BRANCH   3   4
ATOM      4  O   UNL     1      32.621 -22.184 -18.726  0.00  0.00    -0.382 OA
ATOM      5  H   UNL     1      32.612 -23.137 -18.911  0.00  0.00    +0.210 HD
ENDBRANCH   3   4
ENDBRANCH   2   3
ENDBRANCH   1   2
BRANCH   1   6
ATOM      6  C   UNL     1      35.406 -19.971 -20.763  0.00  0.00    +0.137 C 
BRANCH   6   7
ATOM      7  O   UNL     1      36.133 -18.765 -20.568  0.00  0.00    -0.382 OA
ATOM      8  H   UNL     1      36.644 -18.826 -19.747  0.00  0.00    +0.210 HD
ENDBRANCH   6   7
ENDBRANCH   1   6
TORSDOF 5
ENDMDL
MODEL 8
REMARK VINA RESULT:      -3.5     11.281     11.689
REMARK  Name = 8064
REMARK  5 active torsions:
REMARK  status: ('A' for Active; 'I' for Inactive)
REMARK    1  A    between atoms: C_1  and  C_2
REMARK    2  A    between atoms: C_1  and  C_6
REMARK    3  A    between atoms: C_2  and  C_3
REMARK    4  A    between atoms: C_3  and  O_4
REMARK    5  A    between atoms: C_6  and  O_7
REMARK                            x       y       z     vdW  Elec       q    Type
REMARK                         _______ _______ _______ _____ _____    ______ ____
ROOT
ATOM      1  C   UNL     1      35.290 -18.646 -23.691  0.00  0.00    +0.034 C 
ENDROOT
BRANCH   1   2
ATOM      2  C   UNL     1      34.588 -19.072 -22.407  0.00  0.00    +0.034 C 
BRANCH   2   3
ATOM      3  C   UNL     1      35.508 -18.962 -21.200  0.00  0.00    +0.137 C 
BRANCH   3   4
ATOM      4  O   UNL     1      35.440 -17.638 -20.689  0.00  0.00    -0.382 OA
ATOM      5  H   UNL     1      36.248 -17.157 -20.930  0.00  0.00    +0.210 HD
ENDBRANCH   3   4
ENDBRANCH   2   3
ENDBRANCH   1   2
BRANCH   1   6
ATOM      6  C   UNL     1      34.864 -17.251 -24.128  0.00  0.00    +0.137 C 
BRANCH   6   7
ATOM      7  O   UNL     1      35.697 -16.294 -23.487  0.00  0.00    -0.382 OA
ATOM      8  H   UNL     1      36.347 -16.752 -22.933  0.00  0.00    +0.210 HD
ENDBRANCH   6   7
ENDBRANCH   1   6
TORSDOF 5
ENDMDL
MODEL 9
REMARK VINA RESULT:      -3.5     11.301     11.709
REMARK  Name = 8064
REMARK  5 active torsions:
REMARK  status: ('A' for Active; 'I' for Inactive)
REMARK    1  A    between atoms: C_1  and  C_2
REMARK    2  A    between atoms: C_1  and  C_6
REMARK    3  A    between atoms: C_2  and  C_3
REMARK    4  A    between atoms: C_3  and  O_4
REMARK    5  A    between atoms: C_6  and  O_7
REMARK                            x       y       z     vdW  Elec       q    Type
REMARK                         _______ _______ _______ _____ _____    ______ ____
ROOT
ATOM      1  C   UNL     1      34.604 -19.050 -22.405  0.00  0.00    +0.034 C 
ENDROOT
BRANCH   1   2
ATOM      2  C   UNL     1      35.283 -18.633 -23.704  0.00  0.00    +0.034 C 
BRANCH   2   3
ATOM      3  C   UNL     1      34.858 -17.238 -24.138  0.00  0.00    +0.137 C 
BRANCH   3   4
ATOM      4  O   UNL     1      35.694 -16.283 -23.501  0.00  0.00    -0.382 OA
ATOM      5  H   UNL     1      35.146 -15.592 -23.096  0.00  0.00    +0.210 HD
ENDBRANCH   3   4
ENDBRANCH   2   3
ENDBRANCH   1   2
BRANCH   1   6
ATOM      6  C   UNL     1      35.543 -18.919 -21.213  0.00  0.00    +0.137 C 
BRANCH   6   7
ATOM      7  O   UNL     1      35.438 -17.601 -20.689  0.00  0.00    -0.382 OA
ATOM      8  H   UNL     1      36.223 -17.403 -20.156  0.00  0.00    +0.210 HD
ENDBRANCH   6   7
ENDBRANCH   1   6
TORSDOF 5
ENDMDL
