MODEL 1
REMARK VINA RESULT:     -11.1      0.000      0.000
REMARK  Name = 25113614
REMARK  7 active torsions:
REMARK  status: ('A' for Active; 'I' for Inactive)
REMARK    1  A    between atoms: C_3  and  C_10
REMARK    2  A    between atoms: C_7  and  C_25
REMARK    3  A    between atoms: N_9  and  C_12
REMARK    4  A    between atoms: C_12  and  C_13
REMARK    5  A    between atoms: C_18  and  C_21
REMARK    6  A    between atoms: C_25  and  N_26
REMARK    7  A    between atoms: N_26  and  C_29
REMARK                            x       y       z     vdW  Elec       q    Type
REMARK                         _______ _______ _______ _____ _____    ______ ____
ROOT
ATOM      1  O   UNL     1      35.697 -25.232 -12.085  0.00  0.00    -0.277 OA
ATOM      2  N   UNL     1      36.293 -24.021 -13.960  0.00  0.00    -0.275 N 
ATOM      3  C   UNL     1      36.093 -22.964 -14.949  0.00  0.00    +0.152 C 
ATOM      4  C   UNL     1      37.500 -22.628 -15.438  0.00  0.00    +0.031 C 
ATOM      5  C   UNL     1      37.653 -24.540 -14.015  0.00  0.00    +0.094 C 
ATOM      6  C   UNL     1      38.253 -23.947 -15.280  0.00  0.00    +0.024 C 
ATOM      7  C   UNL     1      35.410 -24.425 -12.971  0.00  0.00    +0.204 C 
ENDROOT
BRANCH   3  10
ATOM      8  O   UNL     1      35.024 -24.725 -16.156  0.00  0.00    -0.273 OA
ATOM      9  N   UNL     1      34.847 -22.544 -16.950  0.00  0.00    -0.299 N 
ATOM     10  C   UNL     1      35.264 -23.523 -16.066  0.00  0.00    +0.241 C 
ATOM     11  H   UNL     1      35.104 -21.610 -16.770  0.00  0.00    +0.150 HD
BRANCH   9  12
ATOM     12  C   UNL     1      34.053 -22.824 -18.124  0.00  0.00    +0.116 C 
BRANCH  12  13
ATOM     13  C   UNL     1      34.205 -21.760 -19.172  0.00  0.00    -0.003 C 
ATOM     14  C   UNL     1      35.475 -21.415 -19.637  0.00  0.00    -0.003 C 
ATOM     15  C   UNL     1      33.078 -21.115 -19.681  0.00  0.00    -0.003 C 
ATOM     16  C   UNL     1      35.616 -20.425 -20.609  0.00  0.00    +0.002 C 
ATOM     17  C   UNL     1      33.219 -20.126 -20.653  0.00  0.00    +0.002 C 
ATOM     18  C   UNL     1      34.488 -19.781 -21.118  0.00  0.00    +0.031 C 
BRANCH  18  21
ATOM     19  N   UNL     1      34.615 -19.059 -23.490  0.00  0.00    -0.343 N 
ATOM     20  N   UNL     1      34.802 -17.489 -21.770  0.00  0.00    -0.285 NA
ATOM     21  C   UNL     1      34.637 -18.750 -22.132  0.00  0.00    +0.117 C 
ATOM     22  H   UNL     1      34.717 -18.345 -24.161  0.00  0.00    +0.144 HD
ATOM     23  H   UNL     1      34.497 -19.992 -23.781  0.00  0.00    +0.144 HD
ATOM     24  H   UNL     1      34.901 -16.789 -22.454  0.00  0.00    +0.188 HD
ENDBRANCH  18  21
ENDBRANCH  12  13
ENDBRANCH   9  12
ENDBRANCH   3  10
BRANCH   7  25
ATOM     25  C   UNL     1      34.033 -23.813 -13.021  0.00  0.00    +0.006 C 
BRANCH  25  26
ATOM     26  N   UNL     1      33.083 -24.909 -13.110  0.00  0.00    +0.391 N 
ATOM     27  H   UNL     1      33.591 -25.780 -13.266  0.00  0.00    -0.084 HD
ATOM     28  H   UNL     1      32.556 -24.960 -12.239  0.00  0.00    -0.084 HD
BRANCH  26  29
ATOM     29  C   UNL     1      32.148 -24.690 -14.220  0.00  0.00    -0.061 C 
ATOM     30  C   UNL     1      32.148 -23.193 -14.549  0.00  0.00    -0.021 C 
ATOM     31  C   UNL     1      30.778 -25.261 -13.827  0.00  0.00    -0.021 C 
ATOM     32  C   UNL     1      31.171 -22.765 -15.644  0.00  0.00    -0.002 C 
ATOM     33  C   UNL     1      29.816 -25.361 -15.010  0.00  0.00    -0.002 C 
ATOM     34  C   UNL     1      29.721 -22.766 -15.172  0.00  0.00    -0.000 C 
ATOM     35  C   UNL     1      29.002 -24.104 -15.297  0.00  0.00    -0.000 C 
ENDBRANCH  26  29
ENDBRANCH  25  26
ENDBRANCH   7  25
TORSDOF 7
ENDMDL
MODEL 2
REMARK VINA RESULT:     -11.0      0.564      1.544
REMARK  Name = 25113614
REMARK  7 active torsions:
REMARK  status: ('A' for Active; 'I' for Inactive)
REMARK    1  A    between atoms: C_3  and  C_10
REMARK    2  A    between atoms: C_7  and  C_25
REMARK    3  A    between atoms: N_9  and  C_12
REMARK    4  A    between atoms: C_12  and  C_13
REMARK    5  A    between atoms: C_18  and  C_21
REMARK    6  A    between atoms: C_25  and  N_26
REMARK    7  A    between atoms: N_26  and  C_29
REMARK                            x       y       z     vdW  Elec       q    Type
REMARK                         _______ _______ _______ _____ _____    ______ ____
ROOT
ATOM      1  O   UNL     1      34.970 -25.133 -11.938  0.00  0.00    -0.277 OA
ATOM      2  N   UNL     1      35.824 -24.007 -13.766  0.00  0.00    -0.275 N 
ATOM      3  C   UNL     1      35.773 -22.990 -14.813  0.00  0.00    +0.152 C 
ATOM      4  C   UNL     1      37.236 -22.692 -15.128  0.00  0.00    +0.031 C 
ATOM      5  C   UNL     1      37.170 -24.545 -13.624  0.00  0.00    +0.094 C 
ATOM      6  C   UNL     1      37.939 -24.013 -14.822  0.00  0.00    +0.024 C 
ATOM      7  C   UNL     1      34.814 -24.359 -12.885  0.00  0.00    +0.204 C 
ENDROOT
BRANCH   3  10
ATOM      8  O   UNL     1      34.907 -24.795 -16.114  0.00  0.00    -0.273 OA
ATOM      9  N   UNL     1      34.717 -22.624 -16.931  0.00  0.00    -0.299 N 
ATOM     10  C   UNL     1      35.085 -23.584 -16.005  0.00  0.00    +0.241 C 
ATOM     11  H   UNL     1      34.915 -21.679 -16.730  0.00  0.00    +0.150 HD
BRANCH   9  12
ATOM     12  C   UNL     1      34.058 -22.938 -18.178  0.00  0.00    +0.116 C 
BRANCH  12  13
ATOM     13  C   UNL     1      34.191 -21.828 -19.179  0.00  0.00    -0.003 C 
ATOM     14  C   UNL     1      33.052 -21.179 -19.658  0.00  0.00    -0.003 C 
ATOM     15  C   UNL     1      35.454 -21.445 -19.634  0.00  0.00    -0.003 C 
ATOM     16  C   UNL     1      33.176 -20.149 -20.589  0.00  0.00    +0.002 C 
ATOM     17  C   UNL     1      35.577 -20.415 -20.566  0.00  0.00    +0.002 C 
ATOM     18  C   UNL     1      34.438 -19.766 -21.043  0.00  0.00    +0.031 C 
BRANCH  18  21
ATOM     19  N   UNL     1      34.623 -18.952 -23.382  0.00  0.00    -0.343 N 
ATOM     20  N   UNL     1      34.635 -17.437 -21.602  0.00  0.00    -0.285 NA
ATOM     21  C   UNL     1      34.566 -18.691 -22.014  0.00  0.00    +0.117 C 
ATOM     22  H   UNL     1      34.709 -18.209 -24.022  0.00  0.00    +0.144 HD
ATOM     23  H   UNL     1      34.577 -19.879 -23.708  0.00  0.00    +0.144 HD
ATOM     24  H   UNL     1      34.720 -16.708 -22.257  0.00  0.00    +0.188 HD
ENDBRANCH  18  21
ENDBRANCH  12  13
ENDBRANCH   9  12
ENDBRANCH   3  10
BRANCH   7  25
ATOM     25  C   UNL     1      33.466 -23.733 -13.137  0.00  0.00    +0.006 C 
BRANCH  25  26
ATOM     26  N   UNL     1      32.611 -24.771 -13.688  0.00  0.00    +0.391 N 
ATOM     27  H   UNL     1      33.042 -25.145 -14.534  0.00  0.00    -0.084 HD
ATOM     28  H   UNL     1      32.500 -25.509 -12.994  0.00  0.00    -0.084 HD
BRANCH  26  29
ATOM     29  C   UNL     1      31.289 -24.226 -14.019  0.00  0.00    -0.061 C 
ATOM     30  C   UNL     1      30.388 -25.394 -14.435  0.00  0.00    -0.021 C 
ATOM     31  C   UNL     1      31.460 -23.135 -15.086  0.00  0.00    -0.021 C 
ATOM     32  C   UNL     1      28.979 -25.004 -14.885  0.00  0.00    -0.002 C 
ATOM     33  C   UNL     1      30.199 -22.296 -15.283  0.00  0.00    -0.002 C 
ATOM     34  C   UNL     1      28.961 -24.362 -16.267  0.00  0.00    -0.000 C 
ATOM     35  C   UNL     1      29.193 -22.856 -16.284  0.00  0.00    -0.000 C 
ENDBRANCH  26  29
ENDBRANCH  25  26
ENDBRANCH   7  25
TORSDOF 7
ENDMDL
MODEL 3
REMARK VINA RESULT:     -10.6      7.179     11.858
REMARK  Name = 25113614
REMARK  7 active torsions:
REMARK  status: ('A' for Active; 'I' for Inactive)
REMARK    1  A    between atoms: C_3  and  C_10
REMARK    2  A    between atoms: C_7  and  C_25
REMARK    3  A    between atoms: N_9  and  C_12
REMARK    4  A    between atoms: C_12  and  C_13
REMARK    5  A    between atoms: C_18  and  C_21
REMARK    6  A    between atoms: C_25  and  N_26
REMARK    7  A    between atoms: N_26  and  C_29
REMARK                            x       y       z     vdW  Elec       q    Type
REMARK                         _______ _______ _______ _____ _____    ______ ____
ROOT
ATOM      1  O   UNL     1      34.409 -17.893 -24.855  0.00  0.00    -0.277 OA
ATOM      2  N   UNL     1      33.885 -15.645 -24.754  0.00  0.00    -0.275 N 
ATOM      3  C   UNL     1      34.019 -14.297 -24.206  0.00  0.00    +0.152 C 
ATOM      4  C   UNL     1      33.624 -13.377 -25.358  0.00  0.00    +0.031 C 
ATOM      5  C   UNL     1      33.183 -15.625 -26.030  0.00  0.00    +0.094 C 
ATOM      6  C   UNL     1      32.628 -14.216 -26.155  0.00  0.00    +0.024 C 
ATOM      7  C   UNL     1      34.452 -16.811 -24.266  0.00  0.00    +0.204 C 
ENDROOT
BRANCH   3  10
ATOM      8  O   UNL     1      32.760 -15.116 -22.350  0.00  0.00    -0.273 OA
ATOM      9  N   UNL     1      32.553 -12.877 -22.954  0.00  0.00    -0.299 N 
ATOM     10  C   UNL     1      33.055 -14.162 -23.066  0.00  0.00    +0.241 C 
ATOM     11  H   UNL     1      32.868 -12.194 -23.590  0.00  0.00    +0.150 HD
BRANCH   9  12
ATOM     12  C   UNL     1      31.590 -12.489 -21.950  0.00  0.00    +0.116 C 
BRANCH  12  13
ATOM     13  C   UNL     1      31.760 -11.058 -21.530  0.00  0.00    -0.003 C 
ATOM     14  C   UNL     1      31.721 -10.718 -20.178  0.00  0.00    -0.003 C 
ATOM     15  C   UNL     1      31.956 -10.067 -22.493  0.00  0.00    -0.003 C 
ATOM     16  C   UNL     1      31.878  -9.388 -19.789  0.00  0.00    +0.002 C 
ATOM     17  C   UNL     1      32.112  -8.738 -22.104  0.00  0.00    +0.002 C 
ATOM     18  C   UNL     1      32.074  -8.397 -20.751  0.00  0.00    +0.031 C 
BRANCH  18  21
ATOM     19  N   UNL     1      31.527  -5.985 -20.961  0.00  0.00    -0.343 N 
ATOM     20  N   UNL     1      33.081  -6.706 -19.373  0.00  0.00    -0.285 NA
ATOM     21  C   UNL     1      32.238  -7.011 -20.344  0.00  0.00    +0.117 C 
ATOM     22  H   UNL     1      31.653  -5.053 -20.669  0.00  0.00    +0.144 HD
ATOM     23  H   UNL     1      30.897  -6.191 -21.689  0.00  0.00    +0.144 HD
ATOM     24  H   UNL     1      33.193  -5.769 -19.095  0.00  0.00    +0.188 HD
ENDBRANCH  18  21
ENDBRANCH  12  13
ENDBRANCH   9  12
ENDBRANCH   3  10
BRANCH   7  25
ATOM     25  C   UNL     1      35.154 -16.701 -22.936  0.00  0.00    +0.006 C 
BRANCH  25  26
ATOM     26  N   UNL     1      35.946 -17.909 -22.771  0.00  0.00    +0.391 N 
ATOM     27  H   UNL     1      35.759 -18.541 -23.550  0.00  0.00    -0.084 HD
ATOM     28  H   UNL     1      36.934 -17.655 -22.753  0.00  0.00    -0.084 HD
BRANCH  26  29
ATOM     29  C   UNL     1      35.604 -18.579 -21.511  0.00  0.00    -0.061 C 
ATOM     30  C   UNL     1      36.837 -19.362 -21.043  0.00  0.00    -0.021 C 
ATOM     31  C   UNL     1      34.349 -19.434 -21.734  0.00  0.00    -0.021 C 
ATOM     32  C   UNL     1      36.644 -20.186 -19.770  0.00  0.00    -0.002 C 
ATOM     33  C   UNL     1      33.731 -19.932 -20.427  0.00  0.00    -0.002 C 
ATOM     34  C   UNL     1      35.809 -21.440 -20.004  0.00  0.00    -0.000 C 
ATOM     35  C   UNL     1      34.301 -21.242 -19.895  0.00  0.00    -0.000 C 
ENDBRANCH  26  29
ENDBRANCH  25  26
ENDBRANCH   7  25
TORSDOF 7
ENDMDL
MODEL 4
REMARK VINA RESULT:      -9.8      9.499     14.068
REMARK  Name = 25113614
REMARK  7 active torsions:
REMARK  status: ('A' for Active; 'I' for Inactive)
REMARK    1  A    between atoms: C_3  and  C_10
REMARK    2  A    between atoms: C_7  and  C_25
REMARK    3  A    between atoms: N_9  and  C_12
REMARK    4  A    between atoms: C_12  and  C_13
REMARK    5  A    between atoms: C_18  and  C_21
REMARK    6  A    between atoms: C_25  and  N_26
REMARK    7  A    between atoms: N_26  and  C_29
REMARK                            x       y       z     vdW  Elec       q    Type
REMARK                         _______ _______ _______ _____ _____    ______ ____
ROOT
ATOM      1  O   UNL     1      33.279 -14.753 -20.267  0.00  0.00    -0.277 OA
ATOM      2  N   UNL     1      32.191 -12.900 -21.118  0.00  0.00    -0.275 N 
ATOM      3  C   UNL     1      31.538 -12.146 -22.185  0.00  0.00    +0.152 C 
ATOM      4  C   UNL     1      30.575 -11.212 -21.458  0.00  0.00    +0.031 C 
ATOM      5  C   UNL     1      31.912 -12.312 -19.814  0.00  0.00    +0.094 C 
ATOM      6  C   UNL     1      31.261 -10.972 -20.115  0.00  0.00    +0.024 C 
ATOM      7  C   UNL     1      32.869 -14.103 -21.231  0.00  0.00    +0.204 C 
ENDROOT
BRANCH   3  10
ATOM      8  O   UNL     1      33.435 -11.908 -23.616  0.00  0.00    -0.273 OA
ATOM      9  N   UNL     1      32.494 -10.003 -22.664  0.00  0.00    -0.299 N 
ATOM     10  C   UNL     1      32.591 -11.362 -22.910  0.00  0.00    +0.241 C 
ATOM     11  H   UNL     1      31.770  -9.684 -22.077  0.00  0.00    +0.150 HD
BRANCH   9  12
ATOM     12  C   UNL     1      33.404  -9.031 -23.225  0.00  0.00    +0.116 C 
BRANCH  12  13
ATOM     13  C   UNL     1      32.817  -7.649 -23.228  0.00  0.00    -0.003 C 
ATOM     14  C   UNL     1      32.983  -6.823 -24.340  0.00  0.00    -0.003 C 
ATOM     15  C   UNL     1      32.108  -7.189 -22.118  0.00  0.00    -0.003 C 
ATOM     16  C   UNL     1      32.441  -5.539 -24.342  0.00  0.00    +0.002 C 
ATOM     17  C   UNL     1      31.565  -5.905 -22.120  0.00  0.00    +0.002 C 
ATOM     18  C   UNL     1      31.730  -5.079 -23.232  0.00  0.00    +0.031 C 
BRANCH  18  21
ATOM     19  N   UNL     1      31.437  -2.839 -24.262  0.00  0.00    -0.343 N 
ATOM     20  N   UNL     1      30.376  -3.357 -22.246  0.00  0.00    -0.285 NA
ATOM     21  C   UNL     1      31.164  -3.740 -23.235  0.00  0.00    +0.117 C 
ATOM     22  H   UNL     1      31.043  -1.937 -24.245  0.00  0.00    +0.144 HD
ATOM     23  H   UNL     1      32.024  -3.105 -25.006  0.00  0.00    +0.144 HD
ATOM     24  H   UNL     1      29.991  -2.451 -22.246  0.00  0.00    +0.188 HD
ENDBRANCH  18  21
ENDBRANCH  12  13
ENDBRANCH   9  12
ENDBRANCH   3  10
BRANCH   7  25
ATOM     25  C   UNL     1      33.093 -14.609 -22.634  0.00  0.00    +0.006 C 
BRANCH  25  26
ATOM     26  N   UNL     1      34.517 -14.501 -22.903  0.00  0.00    +0.391 N 
ATOM     27  H   UNL     1      34.674 -13.752 -23.579  0.00  0.00    -0.084 HD
ATOM     28  H   UNL     1      35.003 -14.295 -22.031  0.00  0.00    -0.084 HD
BRANCH  26  29
ATOM     29  C   UNL     1      35.034 -15.761 -23.449  0.00  0.00    -0.061 C 
ATOM     30  C   UNL     1      34.245 -16.083 -24.724  0.00  0.00    -0.021 C 
ATOM     31  C   UNL     1      34.957 -16.838 -22.358  0.00  0.00    -0.021 C 
ATOM     32  C   UNL     1      34.603 -17.408 -25.397  0.00  0.00    -0.002 C 
ATOM     33  C   UNL     1      35.742 -18.099 -22.713  0.00  0.00    -0.002 C 
ATOM     34  C   UNL     1      34.069 -18.616 -24.637  0.00  0.00    -0.000 C 
ATOM     35  C   UNL     1      34.976 -19.136 -23.528  0.00  0.00    -0.000 C 
ENDBRANCH  26  29
ENDBRANCH  25  26
ENDBRANCH   7  25
TORSDOF 7
ENDMDL
MODEL 5
REMARK VINA RESULT:      -9.7      6.671     12.502
REMARK  Name = 25113614
REMARK  7 active torsions:
REMARK  status: ('A' for Active; 'I' for Inactive)
REMARK    1  A    between atoms: C_3  and  C_10
REMARK    2  A    between atoms: C_7  and  C_25
REMARK    3  A    between atoms: N_9  and  C_12
REMARK    4  A    between atoms: C_12  and  C_13
REMARK    5  A    between atoms: C_18  and  C_21
REMARK    6  A    between atoms: C_25  and  N_26
REMARK    7  A    between atoms: N_26  and  C_29
REMARK                            x       y       z     vdW  Elec       q    Type
REMARK                         _______ _______ _______ _____ _____    ______ ____
ROOT
ATOM      1  O   UNL     1      31.387 -12.845 -23.336  0.00  0.00    -0.277 OA
ATOM      2  N   UNL     1      33.031 -14.018 -22.213  0.00  0.00    -0.275 N 
ATOM      3  C   UNL     1      34.411 -14.443 -21.992  0.00  0.00    +0.152 C 
ATOM      4  C   UNL     1      34.476 -14.767 -20.502  0.00  0.00    +0.031 C 
ATOM      5  C   UNL     1      32.197 -14.324 -21.058  0.00  0.00    +0.094 C 
ATOM      6  C   UNL     1      33.054 -15.216 -20.175  0.00  0.00    +0.024 C 
ATOM      7  C   UNL     1      32.537 -13.284 -23.280  0.00  0.00    +0.204 C 
ENDROOT
BRANCH   3  10
ATOM      8  O   UNL     1      34.853 -15.616 -24.024  0.00  0.00    -0.273 OA
ATOM      9  N   UNL     1      34.607 -16.829 -22.052  0.00  0.00    -0.299 N 
ATOM     10  C   UNL     1      34.656 -15.673 -22.812  0.00  0.00    +0.241 C 
ATOM     11  H   UNL     1      34.441 -16.746 -21.084  0.00  0.00    +0.150 HD
BRANCH   9  12
ATOM     12  C   UNL     1      34.789 -18.150 -22.608  0.00  0.00    +0.116 C 
BRANCH  12  13
ATOM     13  C   UNL     1      34.592 -19.224 -21.579  0.00  0.00    -0.003 C 
ATOM     14  C   UNL     1      33.306 -19.539 -21.136  0.00  0.00    -0.003 C 
ATOM     15  C   UNL     1      35.693 -19.907 -21.062  0.00  0.00    -0.003 C 
ATOM     16  C   UNL     1      33.123 -20.536 -20.179  0.00  0.00    +0.002 C 
ATOM     17  C   UNL     1      35.509 -20.904 -20.105  0.00  0.00    +0.002 C 
ATOM     18  C   UNL     1      34.224 -21.220 -19.663  0.00  0.00    +0.031 C 
BRANCH  18  21
ATOM     19  N   UNL     1      32.765 -22.757 -18.371  0.00  0.00    -0.343 N 
ATOM     20  N   UNL     1      35.074 -22.746 -18.013  0.00  0.00    -0.285 NA
ATOM     21  C   UNL     1      34.032 -22.259 -18.665  0.00  0.00    +0.117 C 
ATOM     22  H   UNL     1      32.657 -23.462 -17.691  0.00  0.00    +0.144 HD
ATOM     23  H   UNL     1      31.976 -22.405 -18.843  0.00  0.00    +0.144 HD
ATOM     24  H   UNL     1      34.946 -23.451 -17.338  0.00  0.00    +0.188 HD
ENDBRANCH  18  21
ENDBRANCH  12  13
ENDBRANCH   9  12
ENDBRANCH   3  10
BRANCH   7  25
ATOM     25  C   UNL     1      33.500 -13.033 -24.413  0.00  0.00    +0.006 C 
BRANCH  25  26
ATOM     26  N   UNL     1      34.432 -12.014 -23.961  0.00  0.00    +0.391 N 
ATOM     27  H   UNL     1      34.561 -12.101 -22.953  0.00  0.00    -0.084 HD
ATOM     28  H   UNL     1      35.322 -12.145 -24.442  0.00  0.00    -0.084 HD
BRANCH  26  29
ATOM     29  C   UNL     1      33.919 -10.674 -24.268  0.00  0.00    -0.061 C 
ATOM     30  C   UNL     1      35.113  -9.779 -24.618  0.00  0.00    -0.021 C 
ATOM     31  C   UNL     1      33.077 -10.186 -23.081  0.00  0.00    -0.021 C 
ATOM     32  C   UNL     1      34.773  -8.316 -24.902  0.00  0.00    -0.002 C 
ATOM     33  C   UNL     1      32.250  -8.944 -23.411  0.00  0.00    -0.002 C 
ATOM     34  C   UNL     1      34.428  -7.537 -23.638  0.00  0.00    -0.000 C 
ATOM     35  C   UNL     1      32.966  -7.613 -23.211  0.00  0.00    -0.000 C 
ENDBRANCH  26  29
ENDBRANCH  25  26
ENDBRANCH   7  25
TORSDOF 7
ENDMDL
MODEL 6
REMARK VINA RESULT:      -9.6      1.641      2.579
REMARK  Name = 25113614
REMARK  7 active torsions:
REMARK  status: ('A' for Active; 'I' for Inactive)
REMARK    1  A    between atoms: C_3  and  C_10
REMARK    2  A    between atoms: C_7  and  C_25
REMARK    3  A    between atoms: N_9  and  C_12
REMARK    4  A    between atoms: C_12  and  C_13
REMARK    5  A    between atoms: C_18  and  C_21
REMARK    6  A    between atoms: C_25  and  N_26
REMARK    7  A    between atoms: N_26  and  C_29
REMARK                            x       y       z     vdW  Elec       q    Type
REMARK                         _______ _______ _______ _____ _____    ______ ____
ROOT
ATOM      1  O   UNL     1      33.188 -24.931 -12.904  0.00  0.00    -0.277 OA
ATOM      2  N   UNL     1      35.298 -24.027 -13.166  0.00  0.00    -0.275 N 
ATOM      3  C   UNL     1      36.232 -23.012 -13.648  0.00  0.00    +0.152 C 
ATOM      4  C   UNL     1      37.408 -23.085 -12.677  0.00  0.00    +0.031 C 
ATOM      5  C   UNL     1      35.924 -24.887 -12.171  0.00  0.00    +0.094 C 
ATOM      6  C   UNL     1      37.404 -24.544 -12.227  0.00  0.00    +0.024 C 
ATOM      7  C   UNL     1      33.946 -24.128 -13.452  0.00  0.00    +0.204 C 
ENDROOT
BRANCH   3  10
ATOM      8  O   UNL     1      36.712 -24.571 -15.392  0.00  0.00    -0.273 OA
ATOM      9  N   UNL     1      37.003 -22.297 -15.799  0.00  0.00    -0.299 N 
ATOM     10  C   UNL     1      36.663 -23.397 -15.031  0.00  0.00    +0.241 C 
ATOM     11  H   UNL     1      36.921 -21.402 -15.397  0.00  0.00    +0.150 HD
BRANCH   9  12
ATOM     12  C   UNL     1      37.471 -22.399 -17.162  0.00  0.00    +0.116 C 
BRANCH  12  13
ATOM     13  C   UNL     1      36.483 -21.833 -18.140  0.00  0.00    -0.003 C 
ATOM     14  C   UNL     1      35.130 -22.156 -18.030  0.00  0.00    -0.003 C 
ATOM     15  C   UNL     1      36.916 -20.986 -19.160  0.00  0.00    -0.003 C 
ATOM     16  C   UNL     1      34.212 -21.632 -18.939  0.00  0.00    +0.002 C 
ATOM     17  C   UNL     1      35.998 -20.462 -20.069  0.00  0.00    +0.002 C 
ATOM     18  C   UNL     1      34.645 -20.784 -19.959  0.00  0.00    +0.031 C 
BRANCH  18  21
ATOM     19  N   UNL     1      34.083 -19.366 -21.917  0.00  0.00    -0.343 N 
ATOM     20  N   UNL     1      32.410 -20.565 -20.812  0.00  0.00    -0.285 NA
ATOM     21  C   UNL     1      33.687 -20.238 -20.906  0.00  0.00    +0.117 C 
ATOM     22  H   UNL     1      33.417 -19.008 -22.548  0.00  0.00    +0.144 HD
ATOM     23  H   UNL     1      35.029 -19.107 -22.002  0.00  0.00    +0.144 HD
ATOM     24  H   UNL     1      31.759 -20.197 -21.452  0.00  0.00    +0.188 HD
ENDBRANCH  18  21
ENDBRANCH  12  13
ENDBRANCH   9  12
ENDBRANCH   3  10
BRANCH   7  25
ATOM     25  C   UNL     1      33.417 -23.181 -14.499  0.00  0.00    +0.006 C 
BRANCH  25  26
ATOM     26  N   UNL     1      32.654 -23.977 -15.447  0.00  0.00    +0.391 N 
ATOM     27  H   UNL     1      32.979 -23.774 -16.392  0.00  0.00    -0.084 HD
ATOM     28  H   UNL     1      32.791 -24.965 -15.233  0.00  0.00    -0.084 HD
BRANCH  26  29
ATOM     29  C   UNL     1      31.224 -23.662 -15.349  0.00  0.00    -0.061 C 
ATOM     30  C   UNL     1      30.464 -24.978 -15.148  0.00  0.00    -0.021 C 
ATOM     31  C   UNL     1      30.809 -22.865 -16.593  0.00  0.00    -0.021 C 
ATOM     32  C   UNL     1      28.941 -24.852 -15.093  0.00  0.00    -0.002 C 
ATOM     33  C   UNL     1      29.428 -22.227 -16.456  0.00  0.00    -0.002 C 
ATOM     34  C   UNL     1      28.324 -24.584 -16.461  0.00  0.00    -0.000 C 
ATOM     35  C   UNL     1      28.257 -23.115 -16.864  0.00  0.00    -0.000 C 
ENDBRANCH  26  29
ENDBRANCH  25  26
ENDBRANCH   7  25
TORSDOF 7
ENDMDL
MODEL 7
REMARK VINA RESULT:      -9.5      8.085     12.659
REMARK  Name = 25113614
REMARK  7 active torsions:
REMARK  status: ('A' for Active; 'I' for Inactive)
REMARK    1  A    between atoms: C_3  and  C_10
REMARK    2  A    between atoms: C_7  and  C_25
REMARK    3  A    between atoms: N_9  and  C_12
REMARK    4  A    between atoms: C_12  and  C_13
REMARK    5  A    between atoms: C_18  and  C_21
REMARK    6  A    between atoms: C_25  and  N_26
REMARK    7  A    between atoms: N_26  and  C_29
REMARK                            x       y       z     vdW  Elec       q    Type
REMARK                         _______ _______ _______ _____ _____    ______ ____
ROOT
ATOM      1  O   UNL     1      34.180 -17.083 -24.394  0.00  0.00    -0.277 OA
ATOM      2  N   UNL     1      33.760 -14.820 -24.597  0.00  0.00    -0.275 N 
ATOM      3  C   UNL     1      33.906 -13.424 -24.191  0.00  0.00    +0.152 C 
ATOM      4  C   UNL     1      33.670 -12.628 -25.472  0.00  0.00    +0.031 C 
ATOM      5  C   UNL     1      33.186 -14.921 -25.932  0.00  0.00    +0.094 C 
ATOM      6  C   UNL     1      32.715 -13.515 -26.268  0.00  0.00    +0.024 C 
ATOM      7  C   UNL     1      34.220 -15.943 -23.927  0.00  0.00    +0.204 C 
ENDROOT
BRANCH   3  10
ATOM      8  O   UNL     1      32.117 -14.000 -22.719  0.00  0.00    -0.273 OA
ATOM      9  N   UNL     1      32.790 -11.776 -22.860  0.00  0.00    -0.299 N 
ATOM     10  C   UNL     1      32.845 -13.122 -23.176  0.00  0.00    +0.241 C 
ATOM     11  H   UNL     1      33.431 -11.166 -23.295  0.00  0.00    +0.150 HD
BRANCH   9  12
ATOM     12  C   UNL     1      31.840 -11.221 -21.924  0.00  0.00    +0.116 C 
BRANCH  12  13
ATOM     13  C   UNL     1      31.679  -9.739 -22.098  0.00  0.00    -0.003 C 
ATOM     14  C   UNL     1      31.145  -9.229 -23.282  0.00  0.00    -0.003 C 
ATOM     15  C   UNL     1      32.066  -8.870 -21.078  0.00  0.00    -0.003 C 
ATOM     16  C   UNL     1      30.998  -7.852 -23.445  0.00  0.00    +0.002 C 
ATOM     17  C   UNL     1      31.920  -7.493 -21.240  0.00  0.00    +0.002 C 
ATOM     18  C   UNL     1      31.384  -6.983 -22.423  0.00  0.00    +0.031 C 
BRANCH  18  21
ATOM     19  N   UNL     1      30.377  -4.807 -21.778  0.00  0.00    -0.343 N 
ATOM     20  N   UNL     1      31.904  -4.921 -23.543  0.00  0.00    -0.285 NA
ATOM     21  C   UNL     1      31.230  -5.548 -22.594  0.00  0.00    +0.117 C 
ATOM     22  H   UNL     1      30.288  -3.836 -21.910  0.00  0.00    +0.144 HD
ATOM     23  H   UNL     1      29.864  -5.256 -21.068  0.00  0.00    +0.144 HD
ATOM     24  H   UNL     1      31.802  -3.950 -23.659  0.00  0.00    +0.188 HD
ENDBRANCH  18  21
ENDBRANCH  12  13
ENDBRANCH   9  12
ENDBRANCH   3  10
BRANCH   7  25
ATOM     25  C   UNL     1      34.795 -15.707 -22.553  0.00  0.00    +0.006 C 
BRANCH  25  26
ATOM     26  N   UNL     1      33.970 -16.447 -21.614  0.00  0.00    +0.391 N 
ATOM     27  H   UNL     1      34.141 -16.099 -20.670  0.00  0.00    -0.084 HD
ATOM     28  H   UNL     1      32.989 -16.319 -21.863  0.00  0.00    -0.084 HD
BRANCH  26  29
ATOM     29  C   UNL     1      34.289 -17.879 -21.666  0.00  0.00    -0.061 C 
ATOM     30  C   UNL     1      33.112 -18.648 -21.056  0.00  0.00    -0.021 C 
ATOM     31  C   UNL     1      35.637 -18.107 -20.966  0.00  0.00    -0.021 C 
ATOM     32  C   UNL     1      33.299 -20.163 -20.963  0.00  0.00    -0.002 C 
ATOM     33  C   UNL     1      36.210 -19.500 -21.224  0.00  0.00    -0.002 C 
ATOM     34  C   UNL     1      34.269 -20.567 -19.859  0.00  0.00    -0.000 C 
ATOM     35  C   UNL     1      35.739 -20.587 -20.264  0.00  0.00    -0.000 C 
ENDBRANCH  26  29
ENDBRANCH  25  26
ENDBRANCH   7  25
TORSDOF 7
ENDMDL
MODEL 8
REMARK VINA RESULT:      -9.4      4.881     10.368
REMARK  Name = 25113614
REMARK  7 active torsions:
REMARK  status: ('A' for Active; 'I' for Inactive)
REMARK    1  A    between atoms: C_3  and  C_10
REMARK    2  A    between atoms: C_7  and  C_25
REMARK    3  A    between atoms: N_9  and  C_12
REMARK    4  A    between atoms: C_12  and  C_13
REMARK    5  A    between atoms: C_18  and  C_21
REMARK    6  A    between atoms: C_25  and  N_26
REMARK    7  A    between atoms: N_26  and  C_29
REMARK                            x       y       z     vdW  Elec       q    Type
REMARK                         _______ _______ _______ _____ _____    ______ ____
ROOT
ATOM      1  O   UNL     1      34.909 -14.922 -23.585  0.00  0.00    -0.277 OA
ATOM      2  N   UNL     1      34.666 -17.161 -23.067  0.00  0.00    -0.275 N 
ATOM      3  C   UNL     1      34.193 -18.264 -22.234  0.00  0.00    +0.152 C 
ATOM      4  C   UNL     1      34.049 -19.437 -23.200  0.00  0.00    +0.031 C 
ATOM      5  C   UNL     1      35.083 -17.637 -24.379  0.00  0.00    +0.094 C 
ATOM      6  C   UNL     1      35.108 -19.152 -24.262  0.00  0.00    +0.024 C 
ATOM      7  C   UNL     1      34.614 -15.806 -22.778  0.00  0.00    +0.204 C 
ENDROOT
BRANCH   3  10
ATOM      8  O   UNL     1      35.770 -17.657 -20.547  0.00  0.00    -0.273 OA
ATOM      9  N   UNL     1      35.540 -19.901 -21.120  0.00  0.00    -0.299 N 
ATOM     10  C   UNL     1      35.244 -18.552 -21.204  0.00  0.00    +0.241 C 
ATOM     11  H   UNL     1      35.048 -20.525 -21.702  0.00  0.00    +0.150 HD
BRANCH   9  12
ATOM     12  C   UNL     1      36.534 -20.439 -20.220  0.00  0.00    +0.116 C 
BRANCH  12  13
ATOM     13  C   UNL     1      35.918 -21.276 -19.138  0.00  0.00    -0.003 C 
ATOM     14  C   UNL     1      34.600 -21.718 -19.262  0.00  0.00    -0.003 C 
ATOM     15  C   UNL     1      36.661 -21.610 -18.005  0.00  0.00    -0.003 C 
ATOM     16  C   UNL     1      34.027 -22.494 -18.256  0.00  0.00    +0.002 C 
ATOM     17  C   UNL     1      36.087 -22.386 -16.999  0.00  0.00    +0.002 C 
ATOM     18  C   UNL     1      34.770 -22.829 -17.124  0.00  0.00    +0.031 C 
BRANCH  18  21
ATOM     19  N   UNL     1      32.791 -23.692 -15.897  0.00  0.00    -0.343 N 
ATOM     20  N   UNL     1      34.944 -24.341 -15.263  0.00  0.00    -0.285 NA
ATOM     21  C   UNL     1      34.172 -23.639 -16.075  0.00  0.00    +0.117 C 
ATOM     22  H   UNL     1      32.407 -24.247 -15.181  0.00  0.00    +0.144 HD
ATOM     23  H   UNL     1      32.199 -23.174 -16.489  0.00  0.00    +0.144 HD
ATOM     24  H   UNL     1      34.542 -24.890 -14.553  0.00  0.00    +0.188 HD
ENDBRANCH  18  21
ENDBRANCH  12  13
ENDBRANCH   9  12
ENDBRANCH   3  10
BRANCH   7  25
ATOM     25  C   UNL     1      34.165 -15.442 -21.386  0.00  0.00    +0.006 C 
BRANCH  25  26
ATOM     26  N   UNL     1      32.798 -14.958 -21.494  0.00  0.00    +0.391 N 
ATOM     27  H   UNL     1      32.414 -15.237 -22.397  0.00  0.00    -0.084 HD
ATOM     28  H   UNL     1      32.246 -15.361 -20.737  0.00  0.00    -0.084 HD
BRANCH  26  29
ATOM     29  C   UNL     1      32.761 -13.495 -21.384  0.00  0.00    -0.061 C 
ATOM     30  C   UNL     1      32.011 -13.138 -20.095  0.00  0.00    -0.021 C 
ATOM     31  C   UNL     1      32.141 -12.922 -22.666  0.00  0.00    -0.021 C 
ATOM     32  C   UNL     1      31.812 -11.642 -19.848  0.00  0.00    -0.002 C 
ATOM     33  C   UNL     1      32.329 -11.411 -22.791  0.00  0.00    -0.002 C 
ATOM     34  C   UNL     1      30.751 -11.032 -20.757  0.00  0.00    -0.000 C 
ATOM     35  C   UNL     1      31.256 -10.563 -22.117  0.00  0.00    -0.000 C 
ENDBRANCH  26  29
ENDBRANCH  25  26
ENDBRANCH   7  25
TORSDOF 7
ENDMDL
MODEL 9
REMARK VINA RESULT:      -9.3      6.203     11.589
REMARK  Name = 25113614
REMARK  7 active torsions:
REMARK  status: ('A' for Active; 'I' for Inactive)
REMARK    1  A    between atoms: C_3  and  C_10
REMARK    2  A    between atoms: C_7  and  C_25
REMARK    3  A    between atoms: N_9  and  C_12
REMARK    4  A    between atoms: C_12  and  C_13
REMARK    5  A    between atoms: C_18  and  C_21
REMARK    6  A    between atoms: C_25  and  N_26
REMARK    7  A    between atoms: N_26  and  C_29
REMARK                            x       y       z     vdW  Elec       q    Type
REMARK                         _______ _______ _______ _____ _____    ______ ____
ROOT
ATOM      1  O   UNL     1      34.037 -12.273 -24.064  0.00  0.00    -0.277 OA
ATOM      2  N   UNL     1      34.001 -14.583 -24.026  0.00  0.00    -0.275 N 
ATOM      3  C   UNL     1      33.550 -15.873 -23.509  0.00  0.00    +0.152 C 
ATOM      4  C   UNL     1      33.701 -16.830 -24.689  0.00  0.00    +0.031 C 
ATOM      5  C   UNL     1      34.667 -14.737 -25.312  0.00  0.00    +0.094 C 
ATOM      6  C   UNL     1      34.863 -16.235 -25.480  0.00  0.00    +0.024 C 
ATOM      7  C   UNL     1      33.738 -13.328 -23.501  0.00  0.00    +0.204 C 
ENDROOT
BRANCH   3  10
ATOM      8  O   UNL     1      34.754 -15.489 -21.483  0.00  0.00    -0.273 OA
ATOM      9  N   UNL     1      34.924 -17.566 -22.519  0.00  0.00    -0.299 N 
ATOM     10  C   UNL     1      34.462 -16.268 -22.387  0.00  0.00    +0.241 C 
ATOM     11  H   UNL     1      34.617 -18.096 -23.291  0.00  0.00    +0.150 HD
BRANCH   9  12
ATOM     12  C   UNL     1      35.835 -18.182 -21.581  0.00  0.00    +0.116 C 
BRANCH  12  13
ATOM     13  C   UNL     1      35.208 -19.346 -20.871  0.00  0.00    -0.003 C 
ATOM     14  C   UNL     1      33.820 -19.492 -20.861  0.00  0.00    -0.003 C 
ATOM     15  C   UNL     1      36.012 -20.281 -20.219  0.00  0.00    -0.003 C 
ATOM     16  C   UNL     1      33.238 -20.572 -20.199  0.00  0.00    +0.002 C 
ATOM     17  C   UNL     1      35.429 -21.361 -19.558  0.00  0.00    +0.002 C 
ATOM     18  C   UNL     1      34.042 -21.508 -19.548  0.00  0.00    +0.031 C 
BRANCH  18  21
ATOM     19  N   UNL     1      32.402 -22.452 -17.941  0.00  0.00    -0.343 N 
ATOM     20  N   UNL     1      33.863 -23.862 -19.098  0.00  0.00    -0.285 NA
ATOM     21  C   UNL     1      33.433 -22.634 -18.859  0.00  0.00    +0.117 C 
ATOM     22  H   UNL     1      32.004 -23.229 -17.486  0.00  0.00    +0.144 HD
ATOM     23  H   UNL     1      32.070 -21.546 -17.747  0.00  0.00    +0.144 HD
ATOM     24  H   UNL     1      33.453 -24.626 -18.634  0.00  0.00    +0.188 HD
ENDBRANCH  18  21
ENDBRANCH  12  13
ENDBRANCH   9  12
ENDBRANCH   3  10
BRANCH   7  25
ATOM     25  C   UNL     1      33.042 -13.301 -22.164  0.00  0.00    +0.006 C 
BRANCH  25  26
ATOM     26  N   UNL     1      31.655 -12.948 -22.413  0.00  0.00    +0.391 N 
ATOM     27  H   UNL     1      31.528 -12.768 -23.409  0.00  0.00    -0.084 HD
ATOM     28  H   UNL     1      31.059 -13.721 -22.117  0.00  0.00    -0.084 HD
BRANCH  26  29
ATOM     29  C   UNL     1      31.286 -11.746 -21.655  0.00  0.00    -0.061 C 
ATOM     30  C   UNL     1      31.833 -10.527 -22.406  0.00  0.00    -0.021 C 
ATOM     31  C   UNL     1      31.800 -11.896 -20.216  0.00  0.00    -0.021 C 
ATOM     32  C   UNL     1      31.602  -9.180 -21.722  0.00  0.00    -0.002 C 
ATOM     33  C   UNL     1      31.215 -10.852 -19.266  0.00  0.00    -0.002 C 
ATOM     34  C   UNL     1      32.508  -8.971 -20.514  0.00  0.00    -0.000 C 
ATOM     35  C   UNL     1      31.975  -9.532 -19.201  0.00  0.00    -0.000 C 
ENDBRANCH  26  29
ENDBRANCH  25  26
ENDBRANCH   7  25
TORSDOF 7
ENDMDL
