MODEL 1
REMARK VINA RESULT:      -6.3      0.000      0.000
REMARK  Name = 152441
REMARK  9 active torsions:
REMARK  status: ('A' for Active; 'I' for Inactive)
REMARK    1  A    between atoms: C_1  and  C_3
REMARK    2  A    between atoms: C_1  and  C_11
REMARK    3  A    between atoms: C_3  and  O_4
REMARK    4  A    between atoms: O_4  and  P_5
REMARK    5  A    between atoms: P_5  and  O_7
REMARK    6  A    between atoms: P_5  and  O_9
REMARK    7  A    between atoms: C_11  and  N_12
REMARK    8  A    between atoms: C_11  and  C_17
REMARK    9  A    between atoms: C_17  and  O_18
REMARK                            x       y       z     vdW  Elec       q    Type
REMARK                         _______ _______ _______ _____ _____    ______ ____
ROOT
ATOM      1  C   UNK     1      38.613 -25.749 -13.654  0.00  0.00    +0.099 C 
ENDROOT
BRANCH   1   3
ATOM      2  O   UNK     1      38.917 -23.847 -12.194  0.00  0.00    -0.250 OA
ATOM      3  C   UNK     1      38.268 -24.836 -12.505  0.00  0.00    +0.322 C 
BRANCH   3   4
ATOM      4  O   UNK     1      37.139 -25.261 -11.880  0.00  0.00    -0.371 OA
BRANCH   4   5
ATOM      5  P   UNK     1      35.970 -24.310 -11.297  0.00  0.00    +0.530 P 
ATOM      6  O   UNK     1      36.003 -24.154  -9.804  0.00  0.00    -0.216 OA
BRANCH   5   7
ATOM      7  O   UNK     1      34.600 -24.957 -11.866  0.00  0.00    -0.293 OA
ATOM      8  H   UNK     1      34.761 -25.879 -12.122  0.00  0.00    +0.223 HD
ENDBRANCH   5   7
BRANCH   5   9
ATOM      9  O   UNK     1      36.109 -22.919 -12.108  0.00  0.00    -0.293 OA
ATOM     10  H   UNK     1      35.454 -22.286 -11.778  0.00  0.00    +0.223 HD
ENDBRANCH   5   9
ENDBRANCH   4   5
ENDBRANCH   3   4
ENDBRANCH   1   3
BRANCH   1  11
ATOM     11  C   UNK     1      37.881 -25.347 -14.935  0.00  0.00    +0.047 C 
BRANCH  11  12
ATOM     12  N   UNK     1      37.280 -24.020 -14.777  0.00  0.00    +0.389 N 
ATOM     13  H   UNK     1      36.342 -24.020 -15.178  0.00  0.00    -0.088 HD
ATOM     14  H   UNK     1      37.855 -23.327 -15.257  0.00  0.00    -0.088 HD
ATOM     15  H   UNK     1      37.226 -23.787 -13.785  0.00  0.00    -0.088 HD
ENDBRANCH  11  12
BRANCH  11  17
ATOM     16  O   UNK     1      36.784 -27.238 -16.024  0.00  0.00    -0.253 OA
ATOM     17  C   UNK     1      36.741 -26.310 -15.226  0.00  0.00    +0.293 C 
BRANCH  17  18
ATOM     18  O   UNK     1      35.627 -26.013 -14.508  0.00  0.00    -0.482 OA
ATOM     19  H   UNK     1      35.234 -26.664 -13.961  0.00  0.00    +0.295 HD
ENDBRANCH  17  18
ENDBRANCH  11  17
ENDBRANCH   1  11
TORSDOF 9
ENDMDL
MODEL 2
REMARK VINA RESULT:      -6.2      2.866      4.683
REMARK  Name = 152441
REMARK  9 active torsions:
REMARK  status: ('A' for Active; 'I' for Inactive)
REMARK    1  A    between atoms: C_1  and  C_3
REMARK    2  A    between atoms: C_1  and  C_11
REMARK    3  A    between atoms: C_3  and  O_4
REMARK    4  A    between atoms: O_4  and  P_5
REMARK    5  A    between atoms: P_5  and  O_7
REMARK    6  A    between atoms: P_5  and  O_9
REMARK    7  A    between atoms: C_11  and  N_12
REMARK    8  A    between atoms: C_11  and  C_17
REMARK    9  A    between atoms: C_17  and  O_18
REMARK                            x       y       z     vdW  Elec       q    Type
REMARK                         _______ _______ _______ _____ _____    ______ ____
ROOT
ATOM      1  C   UNK     1      37.101 -26.125 -12.896  0.00  0.00    +0.099 C 
ENDROOT
BRANCH   1   3
ATOM      2  O   UNK     1      36.858 -25.889 -15.290  0.00  0.00    -0.250 OA
ATOM      3  C   UNK     1      37.538 -26.240 -14.335  0.00  0.00    +0.322 C 
BRANCH   3   4
ATOM      4  O   UNK     1      38.784 -26.776 -14.414  0.00  0.00    -0.371 OA
BRANCH   4   5
ATOM      5  P   UNK     1      40.160 -25.942 -14.557  0.00  0.00    +0.530 P 
ATOM      6  O   UNK     1      40.140 -24.613 -13.857  0.00  0.00    -0.216 OA
BRANCH   5   7
ATOM      7  O   UNK     1      40.412 -25.848 -16.153  0.00  0.00    -0.293 OA
ATOM      8  H   UNK     1      39.696 -25.337 -16.562  0.00  0.00    +0.223 HD
ENDBRANCH   5   7
BRANCH   5   9
ATOM      9  O   UNK     1      41.319 -26.942 -14.039  0.00  0.00    -0.293 OA
ATOM     10  H   UNK     1      40.928 -27.798 -13.809  0.00  0.00    +0.223 HD
ENDBRANCH   5   9
ENDBRANCH   4   5
ENDBRANCH   3   4
ENDBRANCH   1   3
BRANCH   1  11
ATOM     11  C   UNK     1      36.876 -24.669 -12.489  0.00  0.00    +0.047 C 
BRANCH  11  12
ATOM     12  N   UNK     1      37.989 -24.200 -11.659  0.00  0.00    +0.389 N 
ATOM     13  H   UNK     1      38.705 -23.782 -12.255  0.00  0.00    -0.088 HD
ATOM     14  H   UNK     1      38.389 -24.988 -11.150  0.00  0.00    -0.088 HD
ATOM     15  H   UNK     1      37.650 -23.504 -10.996  0.00  0.00    -0.088 HD
ENDBRANCH  11  12
BRANCH  11  17
ATOM     16  O   UNK     1      35.381 -25.164 -10.622  0.00  0.00    -0.253 OA
ATOM     17  C   UNK     1      35.617 -24.536 -11.646  0.00  0.00    +0.293 C 
BRANCH  17  18
ATOM     18  O   UNK     1      34.743 -23.641 -12.175  0.00  0.00    -0.482 OA
ATOM     19  H   UNK     1      33.880 -23.562 -11.818  0.00  0.00    +0.295 HD
ENDBRANCH  17  18
ENDBRANCH  11  17
ENDBRANCH   1  11
TORSDOF 9
ENDMDL
MODEL 3
REMARK VINA RESULT:      -6.2      2.248      4.261
REMARK  Name = 152441
REMARK  9 active torsions:
REMARK  status: ('A' for Active; 'I' for Inactive)
REMARK    1  A    between atoms: C_1  and  C_3
REMARK    2  A    between atoms: C_1  and  C_11
REMARK    3  A    between atoms: C_3  and  O_4
REMARK    4  A    between atoms: O_4  and  P_5
REMARK    5  A    between atoms: P_5  and  O_7
REMARK    6  A    between atoms: P_5  and  O_9
REMARK    7  A    between atoms: C_11  and  N_12
REMARK    8  A    between atoms: C_11  and  C_17
REMARK    9  A    between atoms: C_17  and  O_18
REMARK                            x       y       z     vdW  Elec       q    Type
REMARK                         _______ _______ _______ _____ _____    ______ ____
ROOT
ATOM      1  C   UNK     1      36.686 -23.226 -13.366  0.00  0.00    +0.099 C 
ENDROOT
BRANCH   1   3
ATOM      2  O   UNK     1      38.415 -23.616 -15.009  0.00  0.00    -0.250 OA
ATOM      3  C   UNK     1      37.357 -23.960 -14.499  0.00  0.00    +0.322 C 
BRANCH   3   4
ATOM      4  O   UNK     1      36.630 -25.049 -14.860  0.00  0.00    -0.371 OA
BRANCH   4   5
ATOM      5  P   UNK     1      37.167 -26.573 -14.888  0.00  0.00    +0.530 P 
ATOM      6  O   UNK     1      36.705 -27.356 -16.083  0.00  0.00    -0.216 OA
BRANCH   5   7
ATOM      7  O   UNK     1      36.701 -27.192 -13.467  0.00  0.00    -0.293 OA
ATOM      8  H   UNK     1      37.401 -27.769 -13.123  0.00  0.00    +0.223 HD
ENDBRANCH   5   7
BRANCH   5   9
ATOM      9  O   UNK     1      38.774 -26.460 -14.755  0.00  0.00    -0.293 OA
ATOM     10  H   UNK     1      39.193 -26.954 -15.476  0.00  0.00    +0.223 HD
ENDBRANCH   5   9
ENDBRANCH   4   5
ENDBRANCH   3   4
ENDBRANCH   1   3
BRANCH   1  11
ATOM     11  C   UNK     1      37.234 -23.663 -12.007  0.00  0.00    +0.047 C 
BRANCH  11  12
ATOM     12  N   UNK     1      38.291 -24.661 -12.187  0.00  0.00    +0.389 N 
ATOM     13  H   UNK     1      38.557 -25.044 -11.280  0.00  0.00    -0.088 HD
ATOM     14  H   UNK     1      39.103 -24.221 -12.622  0.00  0.00    -0.088 HD
ATOM     15  H   UNK     1      37.951 -25.412 -12.787  0.00  0.00    -0.088 HD
ENDBRANCH  11  12
BRANCH  11  17
ATOM     16  O   UNK     1      36.016 -24.219  -9.964  0.00  0.00    -0.253 OA
ATOM     17  C   UNK     1      36.145 -24.325 -11.177  0.00  0.00    +0.293 C 
BRANCH  17  18
ATOM     18  O   UNK     1      35.319 -25.090 -11.938  0.00  0.00    -0.482 OA
ATOM     19  H   UNK     1      34.622 -24.690 -12.420  0.00  0.00    +0.295 HD
ENDBRANCH  17  18
ENDBRANCH  11  17
ENDBRANCH   1  11
TORSDOF 9
ENDMDL
MODEL 4
REMARK VINA RESULT:      -6.1      2.656      4.761
REMARK  Name = 152441
REMARK  9 active torsions:
REMARK  status: ('A' for Active; 'I' for Inactive)
REMARK    1  A    between atoms: C_1  and  C_3
REMARK    2  A    between atoms: C_1  and  C_11
REMARK    3  A    between atoms: C_3  and  O_4
REMARK    4  A    between atoms: O_4  and  P_5
REMARK    5  A    between atoms: P_5  and  O_7
REMARK    6  A    between atoms: P_5  and  O_9
REMARK    7  A    between atoms: C_11  and  N_12
REMARK    8  A    between atoms: C_11  and  C_17
REMARK    9  A    between atoms: C_17  and  O_18
REMARK                            x       y       z     vdW  Elec       q    Type
REMARK                         _______ _______ _______ _____ _____    ______ ____
ROOT
ATOM      1  C   UNK     1      37.212 -25.876 -12.985  0.00  0.00    +0.099 C 
ENDROOT
BRANCH   1   3
ATOM      2  O   UNK     1      36.864 -26.083 -15.368  0.00  0.00    -0.250 OA
ATOM      3  C   UNK     1      37.587 -26.252 -14.397  0.00  0.00    +0.322 C 
BRANCH   3   4
ATOM      4  O   UNK     1      38.833 -26.792 -14.431  0.00  0.00    -0.371 OA
BRANCH   4   5
ATOM      5  P   UNK     1      40.212 -25.967 -14.601  0.00  0.00    +0.530 P 
ATOM      6  O   UNK     1      40.199 -24.620 -13.937  0.00  0.00    -0.216 OA
BRANCH   5   7
ATOM      7  O   UNK     1      40.461 -25.918 -16.199  0.00  0.00    -0.293 OA
ATOM      8  H   UNK     1      40.836 -25.056 -16.440  0.00  0.00    +0.223 HD
ENDBRANCH   5   7
BRANCH   5   9
ATOM      9  O   UNK     1      41.369 -26.956 -14.058  0.00  0.00    -0.293 OA
ATOM     10  H   UNK     1      41.799 -26.558 -13.286  0.00  0.00    +0.223 HD
ENDBRANCH   5   9
ENDBRANCH   4   5
ENDBRANCH   3   4
ENDBRANCH   1   3
BRANCH   1  11
ATOM     11  C   UNK     1      36.792 -24.409 -12.884  0.00  0.00    +0.047 C 
BRANCH  11  12
ATOM     12  N   UNK     1      37.303 -23.659 -14.035  0.00  0.00    +0.389 N 
ATOM     13  H   UNK     1      37.864 -22.872 -13.707  0.00  0.00    -0.088 HD
ATOM     14  H   UNK     1      36.520 -23.310 -14.588  0.00  0.00    -0.088 HD
ATOM     15  H   UNK     1      37.879 -24.271 -14.611  0.00  0.00    -0.088 HD
ENDBRANCH  11  12
BRANCH  11  17
ATOM     16  O   UNK     1      38.402 -23.080 -11.617  0.00  0.00    -0.253 OA
ATOM     17  C   UNK     1      37.387 -23.765 -11.643  0.00  0.00    +0.293 C 
BRANCH  17  18
ATOM     18  O   UNK     1      36.671 -24.055 -10.525  0.00  0.00    -0.482 OA
ATOM     19  H   UNK     1      36.577 -24.945 -10.247  0.00  0.00    +0.295 HD
ENDBRANCH  17  18
ENDBRANCH  11  17
ENDBRANCH   1  11
TORSDOF 9
ENDMDL
MODEL 5
REMARK VINA RESULT:      -6.1      1.975      2.682
REMARK  Name = 152441
REMARK  9 active torsions:
REMARK  status: ('A' for Active; 'I' for Inactive)
REMARK    1  A    between atoms: C_1  and  C_3
REMARK    2  A    between atoms: C_1  and  C_11
REMARK    3  A    between atoms: C_3  and  O_4
REMARK    4  A    between atoms: O_4  and  P_5
REMARK    5  A    between atoms: P_5  and  O_7
REMARK    6  A    between atoms: P_5  and  O_9
REMARK    7  A    between atoms: C_11  and  N_12
REMARK    8  A    between atoms: C_11  and  C_17
REMARK    9  A    between atoms: C_17  and  O_18
REMARK                            x       y       z     vdW  Elec       q    Type
REMARK                         _______ _______ _______ _____ _____    ______ ____
ROOT
ATOM      1  C   UNK     1      37.925 -26.402 -14.023  0.00  0.00    +0.099 C 
ENDROOT
BRANCH   1   3
ATOM      2  O   UNK     1      37.227 -26.710 -11.729  0.00  0.00    -0.250 OA
ATOM      3  C   UNK     1      37.122 -26.099 -12.783  0.00  0.00    +0.322 C 
BRANCH   3   4
ATOM      4  O   UNK     1      36.281 -25.055 -13.004  0.00  0.00    -0.371 OA
BRANCH   4   5
ATOM      5  P   UNK     1      35.729 -24.036 -11.877  0.00  0.00    +0.530 P 
ATOM      6  O   UNK     1      36.688 -22.932 -11.536  0.00  0.00    -0.216 OA
BRANCH   5   7
ATOM      7  O   UNK     1      35.340 -24.986 -10.627  0.00  0.00    -0.293 OA
ATOM      8  H   UNK     1      35.524 -25.911 -10.856  0.00  0.00    +0.223 HD
ENDBRANCH   5   7
BRANCH   5   9
ATOM      9  O   UNK     1      34.302 -23.520 -12.433  0.00  0.00    -0.293 OA
ATOM     10  H   UNK     1      33.593 -24.064 -12.057  0.00  0.00    +0.223 HD
ENDBRANCH   5   9
ENDBRANCH   4   5
ENDBRANCH   3   4
ENDBRANCH   1   3
BRANCH   1  11
ATOM     11  C   UNK     1      38.995 -25.340 -14.277  0.00  0.00    +0.047 C 
BRANCH  11  12
ATOM     12  N   UNK     1      38.542 -24.407 -15.312  0.00  0.00    +0.389 N 
ATOM     13  H   UNK     1      37.628 -24.032 -15.057  0.00  0.00    -0.088 HD
ATOM     14  H   UNK     1      38.471 -24.897 -16.204  0.00  0.00    -0.088 HD
ATOM     15  H   UNK     1      39.211 -23.642 -15.397  0.00  0.00    -0.088 HD
ENDBRANCH  11  12
BRANCH  11  17
ATOM     16  O   UNK     1      41.140 -26.493 -14.099  0.00  0.00    -0.253 OA
ATOM     17  C   UNK     1      40.273 -25.980 -14.794  0.00  0.00    +0.293 C 
BRANCH  17  18
ATOM     18  O   UNK     1      40.371 -25.899 -16.147  0.00  0.00    -0.482 OA
ATOM     19  H   UNK     1      40.166 -26.644 -16.677  0.00  0.00    +0.295 HD
ENDBRANCH  17  18
ENDBRANCH  11  17
ENDBRANCH   1  11
TORSDOF 9
ENDMDL
MODEL 6
REMARK VINA RESULT:      -5.9      2.015      2.431
REMARK  Name = 152441
REMARK  9 active torsions:
REMARK  status: ('A' for Active; 'I' for Inactive)
REMARK    1  A    between atoms: C_1  and  C_3
REMARK    2  A    between atoms: C_1  and  C_11
REMARK    3  A    between atoms: C_3  and  O_4
REMARK    4  A    between atoms: O_4  and  P_5
REMARK    5  A    between atoms: P_5  and  O_7
REMARK    6  A    between atoms: P_5  and  O_9
REMARK    7  A    between atoms: C_11  and  N_12
REMARK    8  A    between atoms: C_11  and  C_17
REMARK    9  A    between atoms: C_17  and  O_18
REMARK                            x       y       z     vdW  Elec       q    Type
REMARK                         _______ _______ _______ _____ _____    ______ ____
ROOT
ATOM      1  C   UNK     1      37.689 -26.282 -13.911  0.00  0.00    +0.099 C 
ENDROOT
BRANCH   1   3
ATOM      2  O   UNK     1      36.331 -24.313 -14.264  0.00  0.00    -0.250 OA
ATOM      3  C   UNK     1      36.669 -25.237 -13.536  0.00  0.00    +0.322 C 
BRANCH   3   4
ATOM      4  O   UNK     1      36.180 -25.473 -12.291  0.00  0.00    -0.371 OA
BRANCH   4   5
ATOM      5  P   UNK     1      35.705 -24.344 -11.236  0.00  0.00    +0.530 P 
ATOM      6  O   UNK     1      35.298 -24.896  -9.900  0.00  0.00    -0.216 OA
BRANCH   5   7
ATOM      7  O   UNK     1      34.534 -23.537 -12.006  0.00  0.00    -0.293 OA
ATOM      8  H   UNK     1      34.416 -23.910 -12.894  0.00  0.00    +0.223 HD
ENDBRANCH   5   7
BRANCH   5   9
ATOM      9  O   UNK     1      36.925 -23.287 -11.167  0.00  0.00    -0.293 OA
ATOM     10  H   UNK     1      37.646 -23.659 -10.635  0.00  0.00    +0.223 HD
ENDBRANCH   5   9
ENDBRANCH   4   5
ENDBRANCH   3   4
ENDBRANCH   1   3
BRANCH   1  11
ATOM     11  C   UNK     1      39.117 -25.785 -13.684  0.00  0.00    +0.047 C 
BRANCH  11  12
ATOM     12  N   UNK     1      39.104 -24.575 -12.858  0.00  0.00    +0.389 N 
ATOM     13  H   UNK     1      39.776 -24.674 -12.098  0.00  0.00    -0.088 HD
ATOM     14  H   UNK     1      38.170 -24.439 -12.470  0.00  0.00    -0.088 HD
ATOM     15  H   UNK     1      39.354 -23.770 -13.431  0.00  0.00    -0.088 HD
ENDBRANCH  11  12
BRANCH  11  17
ATOM     16  O   UNK     1      40.655 -26.038 -15.564  0.00  0.00    -0.253 OA
ATOM     17  C   UNK     1      39.769 -25.406 -15.004  0.00  0.00    +0.293 C 
BRANCH  17  18
ATOM     18  O   UNK     1      39.270 -24.245 -15.503  0.00  0.00    -0.482 OA
ATOM     19  H   UNK     1      38.523 -23.845 -15.103  0.00  0.00    +0.295 HD
ENDBRANCH  17  18
ENDBRANCH  11  17
ENDBRANCH   1  11
TORSDOF 9
ENDMDL
MODEL 7
REMARK VINA RESULT:      -5.8      2.758      3.996
REMARK  Name = 152441
REMARK  9 active torsions:
REMARK  status: ('A' for Active; 'I' for Inactive)
REMARK    1  A    between atoms: C_1  and  C_3
REMARK    2  A    between atoms: C_1  and  C_11
REMARK    3  A    between atoms: C_3  and  O_4
REMARK    4  A    between atoms: O_4  and  P_5
REMARK    5  A    between atoms: P_5  and  O_7
REMARK    6  A    between atoms: P_5  and  O_9
REMARK    7  A    between atoms: C_11  and  N_12
REMARK    8  A    between atoms: C_11  and  C_17
REMARK    9  A    between atoms: C_17  and  O_18
REMARK                            x       y       z     vdW  Elec       q    Type
REMARK                         _______ _______ _______ _____ _____    ______ ____
ROOT
ATOM      1  C   UNK     1      36.705 -24.071 -12.784  0.00  0.00    +0.099 C 
ENDROOT
BRANCH   1   3
ATOM      2  O   UNK     1      37.244 -26.306 -12.037  0.00  0.00    -0.250 OA
ATOM      3  C   UNK     1      37.598 -25.270 -12.582  0.00  0.00    +0.322 C 
BRANCH   3   4
ATOM      4  O   UNK     1      38.834 -25.035 -13.095  0.00  0.00    -0.371 OA
BRANCH   4   5
ATOM      5  P   UNK     1      39.524 -25.858 -14.302  0.00  0.00    +0.530 P 
ATOM      6  O   UNK     1      40.900 -26.367 -13.980  0.00  0.00    -0.216 OA
BRANCH   5   7
ATOM      7  O   UNK     1      39.468 -24.848 -15.564  0.00  0.00    -0.293 OA
ATOM      8  H   UNK     1      38.629 -24.968 -16.036  0.00  0.00    +0.223 HD
ENDBRANCH   5   7
BRANCH   5   9
ATOM      9  O   UNK     1      38.466 -27.018 -14.685  0.00  0.00    -0.293 OA
ATOM     10  H   UNK     1      38.942 -27.844 -14.862  0.00  0.00    +0.223 HD
ENDBRANCH   5   9
ENDBRANCH   4   5
ENDBRANCH   3   4
ENDBRANCH   1   3
BRANCH   1  11
ATOM     11  C   UNK     1      35.837 -24.217 -14.034  0.00  0.00    +0.047 C 
BRANCH  11  12
ATOM     12  N   UNK     1      35.810 -25.617 -14.467  0.00  0.00    +0.389 N 
ATOM     13  H   UNK     1      34.978 -26.074 -14.091  0.00  0.00    -0.088 HD
ATOM     14  H   UNK     1      36.644 -26.095 -14.125  0.00  0.00    -0.088 HD
ATOM     15  H   UNK     1      35.789 -25.657 -15.486  0.00  0.00    -0.088 HD
ENDBRANCH  11  12
BRANCH  11  17
ATOM     16  O   UNK     1      35.952 -23.361 -16.317  0.00  0.00    -0.253 OA
ATOM     17  C   UNK     1      36.417 -23.414 -15.186  0.00  0.00    +0.293 C 
BRANCH  17  18
ATOM     18  O   UNK     1      37.554 -22.761 -14.830  0.00  0.00    -0.482 OA
ATOM     19  H   UNK     1      37.682 -21.869 -15.085  0.00  0.00    +0.295 HD
ENDBRANCH  17  18
ENDBRANCH  11  17
ENDBRANCH   1  11
TORSDOF 9
ENDMDL
MODEL 8
REMARK VINA RESULT:      -5.8      2.201      3.274
REMARK  Name = 152441
REMARK  9 active torsions:
REMARK  status: ('A' for Active; 'I' for Inactive)
REMARK    1  A    between atoms: C_1  and  C_3
REMARK    2  A    between atoms: C_1  and  C_11
REMARK    3  A    between atoms: C_3  and  O_4
REMARK    4  A    between atoms: O_4  and  P_5
REMARK    5  A    between atoms: P_5  and  O_7
REMARK    6  A    between atoms: P_5  and  O_9
REMARK    7  A    between atoms: C_11  and  N_12
REMARK    8  A    between atoms: C_11  and  C_17
REMARK    9  A    between atoms: C_17  and  O_18
REMARK                            x       y       z     vdW  Elec       q    Type
REMARK                         _______ _______ _______ _____ _____    ______ ____
ROOT
ATOM      1  C   UNK     1      38.701 -25.055 -13.013  0.00  0.00    +0.099 C 
ENDROOT
BRANCH   1   3
ATOM      2  O   UNK     1      36.876 -25.916 -11.682  0.00  0.00    -0.250 OA
ATOM      3  C   UNK     1      37.287 -25.096 -12.492  0.00  0.00    +0.322 C 
BRANCH   3   4
ATOM      4  O   UNK     1      36.547 -24.098 -13.041  0.00  0.00    -0.371 OA
BRANCH   4   5
ATOM      5  P   UNK     1      35.162 -24.289 -13.852  0.00  0.00    +0.530 P 
ATOM      6  O   UNK     1      35.266 -25.233 -15.016  0.00  0.00    -0.216 OA
BRANCH   5   7
ATOM      7  O   UNK     1      34.718 -22.786 -14.254  0.00  0.00    -0.293 OA
ATOM      8  H   UNK     1      34.763 -22.216 -13.470  0.00  0.00    +0.223 HD
ENDBRANCH   5   7
BRANCH   5   9
ATOM      9  O   UNK     1      34.076 -24.731 -12.741  0.00  0.00    -0.293 OA
ATOM     10  H   UNK     1      34.367 -25.551 -12.313  0.00  0.00    +0.223 HD
ENDBRANCH   5   9
ENDBRANCH   4   5
ENDBRANCH   3   4
ENDBRANCH   1   3
BRANCH   1  11
ATOM     11  C   UNK     1      38.800 -25.631 -14.426  0.00  0.00    +0.047 C 
BRANCH  11  12
ATOM     12  N   UNK     1      37.946 -26.816 -14.547  0.00  0.00    +0.389 N 
ATOM     13  H   UNK     1      38.342 -27.452 -15.239  0.00  0.00    -0.088 HD
ATOM     14  H   UNK     1      37.012 -26.531 -14.842  0.00  0.00    -0.088 HD
ATOM     15  H   UNK     1      37.888 -27.287 -13.645  0.00  0.00    -0.088 HD
ENDBRANCH  11  12
BRANCH  11  17
ATOM     16  O   UNK     1      41.025 -26.484 -13.889  0.00  0.00    -0.253 OA
ATOM     17  C   UNK     1      40.221 -26.085 -14.721  0.00  0.00    +0.293 C 
BRANCH  17  18
ATOM     18  O   UNK     1      40.526 -25.975 -16.041  0.00  0.00    -0.482 OA
ATOM     19  H   UNK     1      41.269 -26.426 -16.389  0.00  0.00    +0.295 HD
ENDBRANCH  17  18
ENDBRANCH  11  17
ENDBRANCH   1  11
TORSDOF 9
ENDMDL
MODEL 9
REMARK VINA RESULT:      -5.7      1.782      2.302
REMARK  Name = 152441
REMARK  9 active torsions:
REMARK  status: ('A' for Active; 'I' for Inactive)
REMARK    1  A    between atoms: C_1  and  C_3
REMARK    2  A    between atoms: C_1  and  C_11
REMARK    3  A    between atoms: C_3  and  O_4
REMARK    4  A    between atoms: O_4  and  P_5
REMARK    5  A    between atoms: P_5  and  O_7
REMARK    6  A    between atoms: P_5  and  O_9
REMARK    7  A    between atoms: C_11  and  N_12
REMARK    8  A    between atoms: C_11  and  C_17
REMARK    9  A    between atoms: C_17  and  O_18
REMARK                            x       y       z     vdW  Elec       q    Type
REMARK                         _______ _______ _______ _____ _____    ______ ____
ROOT
ATOM      1  C   UNK     1      37.367 -24.422 -15.332  0.00  0.00    +0.099 C 
ENDROOT
BRANCH   1   3
ATOM      2  O   UNK     1      35.845 -22.619 -14.810  0.00  0.00    -0.250 OA
ATOM      3  C   UNK     1      36.800 -23.311 -14.486  0.00  0.00    +0.322 C 
BRANCH   3   4
ATOM      4  O   UNK     1      37.490 -23.198 -13.321  0.00  0.00    -0.371 OA
BRANCH   4   5
ATOM      5  P   UNK     1      36.912 -23.527 -11.848  0.00  0.00    +0.530 P 
ATOM      6  O   UNK     1      37.459 -24.791 -11.250  0.00  0.00    -0.216 OA
BRANCH   5   7
ATOM      7  O   UNK     1      35.305 -23.522 -12.033  0.00  0.00    -0.293 OA
ATOM      8  H   UNK     1      35.001 -22.612 -12.182  0.00  0.00    +0.223 HD
ENDBRANCH   5   7
BRANCH   5   9
ATOM      9  O   UNK     1      37.207 -22.202 -10.970  0.00  0.00    -0.293 OA
ATOM     10  H   UNK     1      36.434 -21.618 -10.998  0.00  0.00    +0.223 HD
ENDBRANCH   5   9
ENDBRANCH   4   5
ENDBRANCH   3   4
ENDBRANCH   1   3
BRANCH   1  11
ATOM     11  C   UNK     1      36.591 -25.727 -15.146  0.00  0.00    +0.047 C 
BRANCH  11  12
ATOM     12  N   UNK     1      35.340 -25.470 -14.428  0.00  0.00    +0.389 N 
ATOM     13  H   UNK     1      34.657 -25.065 -15.068  0.00  0.00    -0.088 HD
ATOM     14  H   UNK     1      35.515 -24.821 -13.661  0.00  0.00    -0.088 HD
ATOM     15  H   UNK     1      34.977 -26.347 -14.053  0.00  0.00    -0.088 HD
ENDBRANCH  11  12
BRANCH  11  17
ATOM     16  O   UNK     1      38.423 -27.262 -14.645  0.00  0.00    -0.253 OA
ATOM     17  C   UNK     1      37.387 -26.708 -14.301  0.00  0.00    +0.293 C 
BRANCH  17  18
ATOM     18  O   UNK     1      36.800 -26.935 -13.097  0.00  0.00    -0.482 OA
ATOM     19  H   UNK     1      35.988 -26.518 -12.885  0.00  0.00    +0.295 HD
ENDBRANCH  17  18
ENDBRANCH  11  17
ENDBRANCH   1  11
TORSDOF 9
ENDMDL
