MODEL 1
REMARK VINA RESULT:      -9.4      0.000      0.000
REMARK  Name = 446488
REMARK  8 active torsions:
REMARK  status: ('A' for Active; 'I' for Inactive)
REMARK    1  A    between atoms: C_2  and  O_18
REMARK    2  A    between atoms: C_3  and  O_20
REMARK    3  A    between atoms: C_4  and  N_6
REMARK    4  A    between atoms: C_5  and  C_22
REMARK    5  A    between atoms: C_22  and  O_23
REMARK    6  A    between atoms: O_23  and  P_24
REMARK    7  A    between atoms: P_24  and  O_26
REMARK    8  A    between atoms: P_24  and  O_28
REMARK                            x       y       z     vdW  Elec       q    Type
REMARK                         _______ _______ _______ _____ _____    ______ ____
ROOT
ATOM      1  O   UNL     1      35.799 -25.296 -15.632  0.00  0.00    -0.336 OA
ATOM      2  C   UNL     1      35.409 -23.884 -13.751  0.00  0.00    +0.183 C 
ATOM      3  C   UNL     1      36.648 -24.721 -13.499  0.00  0.00    +0.171 C 
ATOM      4  C   UNL     1      34.738 -24.720 -14.837  0.00  0.00    +0.208 C 
ATOM      5  C   UNL     1      37.038 -25.126 -14.916  0.00  0.00    +0.176 C 
ENDROOT
BRANCH   4   6
ATOM      6  N   UNL     1      33.790 -24.009 -15.688  0.00  0.00    -0.210 NA
ATOM      7  N   UNL     1      33.054 -22.782 -17.405  0.00  0.00    -0.204 NA
ATOM      8  N   UNL     1      30.708 -22.777 -16.768  0.00  0.00    -0.195 NA
ATOM      9  N   UNL     1      30.239 -24.007 -14.714  0.00  0.00    -0.231 NA
ATOM     10  C   UNL     1      32.437 -23.884 -15.512  0.00  0.00    +0.201 C 
ATOM     11  C   UNL     1      34.108 -23.330 -16.839  0.00  0.00    +0.214 C 
ATOM     12  C   UNL     1      32.005 -23.121 -16.588  0.00  0.00    +0.027 C 
ATOM     13  C   UNL     1      31.542 -24.335 -14.561  0.00  0.00    +0.129 C 
ATOM     14  C   UNL     1      29.907 -23.259 -15.793  0.00  0.00    +0.262 C 
ATOM     15  N   UNL     1      31.953 -25.109 -13.463  0.00  0.00    -0.344 N 
ATOM     16  H   UNL     1      31.291 -25.415 -12.802  0.00  0.00    +0.143 HD
ATOM     17  H   UNL     1      32.903 -25.345 -13.355  0.00  0.00    +0.143 HD
ENDBRANCH   4   6
BRANCH   2  18
ATOM     18  O   UNL     1      35.781 -22.605 -14.256  0.00  0.00    -0.378 OA
ATOM     19  H   UNL     1      35.897 -22.657 -15.217  0.00  0.00    +0.211 HD
ENDBRANCH   2  18
BRANCH   3  20
ATOM     20  O   UNL     1      37.681 -24.011 -12.850  0.00  0.00    -0.379 OA
ATOM     21  H   UNL     1      37.305 -23.483 -12.128  0.00  0.00    +0.211 HD
ENDBRANCH   3  20
BRANCH   5  22
ATOM     22  C   UNL     1      37.840 -26.413 -14.972  0.00  0.00    +0.186 C 
BRANCH  22  23
ATOM     23  O   UNL     1      38.880 -26.348 -14.010  0.00  0.00    -0.271 OA
BRANCH  23  24
ATOM     24  P   UNL     1      40.330 -25.801 -14.476  0.00  0.00    +0.473 P 
ATOM     25  O   UNL     1      40.704 -24.452 -13.934  0.00  0.00    -0.227 OA
BRANCH  24  26
ATOM     26  O   UNL     1      40.281 -25.908 -16.088  0.00  0.00    -0.303 OA
ATOM     27  H   UNL     1      39.649 -26.597 -16.348  0.00  0.00    +0.222 HD
ENDBRANCH  24  26
BRANCH  24  28
ATOM     28  O   UNL     1      41.322 -27.006 -14.052  0.00  0.00    -0.303 OA
ATOM     29  H   UNL     1      41.345 -27.670 -14.760  0.00  0.00    +0.222 HD
ENDBRANCH  24  28
ENDBRANCH  23  24
ENDBRANCH  22  23
ENDBRANCH   5  22
TORSDOF 8
ENDMDL
MODEL 2
REMARK VINA RESULT:      -9.1      8.924     11.198
REMARK  Name = 446488
REMARK  8 active torsions:
REMARK  status: ('A' for Active; 'I' for Inactive)
REMARK    1  A    between atoms: C_2  and  O_18
REMARK    2  A    between atoms: C_3  and  O_20
REMARK    3  A    between atoms: C_4  and  N_6
REMARK    4  A    between atoms: C_5  and  C_22
REMARK    5  A    between atoms: C_22  and  O_23
REMARK    6  A    between atoms: O_23  and  P_24
REMARK    7  A    between atoms: P_24  and  O_26
REMARK    8  A    between atoms: P_24  and  O_28
REMARK                            x       y       z     vdW  Elec       q    Type
REMARK                         _______ _______ _______ _____ _____    ______ ____
ROOT
ATOM      1  O   UNL     1      34.471 -17.319 -20.939  0.00  0.00    -0.336 OA
ATOM      2  C   UNL     1      35.404 -18.295 -22.905  0.00  0.00    +0.183 C 
ATOM      3  C   UNL     1      34.864 -16.918 -23.238  0.00  0.00    +0.171 C 
ATOM      4  C   UNL     1      34.628 -18.583 -21.623  0.00  0.00    +0.208 C 
ATOM      5  C   UNL     1      34.813 -16.266 -21.862  0.00  0.00    +0.176 C 
ENDROOT
BRANCH   4   6
ATOM      6  N   UNL     1      35.220 -19.576 -20.733  0.00  0.00    -0.210 NA
ATOM      7  N   UNL     1      36.807 -20.650 -19.582  0.00  0.00    -0.204 NA
ATOM      8  N   UNL     1      35.351 -22.318 -18.577  0.00  0.00    -0.195 NA
ATOM      9  N   UNL     1      33.007 -22.096 -19.217  0.00  0.00    -0.231 NA
ATOM     10  C   UNL     1      34.585 -20.592 -20.070  0.00  0.00    +0.201 C 
ATOM     11  C   UNL     1      36.552 -19.656 -20.405  0.00  0.00    +0.214 C 
ATOM     12  C   UNL     1      35.588 -21.242 -19.365  0.00  0.00    +0.027 C 
ATOM     13  C   UNL     1      33.274 -21.024 -19.995  0.00  0.00    +0.129 C 
ATOM     14  C   UNL     1      34.047 -22.669 -18.565  0.00  0.00    +0.262 C 
ATOM     15  N   UNL     1      32.241 -20.384 -20.699  0.00  0.00    -0.344 N 
ATOM     16  H   UNL     1      31.317 -20.716 -20.626  0.00  0.00    +0.143 HD
ATOM     17  H   UNL     1      32.440 -19.604 -21.265  0.00  0.00    +0.143 HD
ENDBRANCH   4   6
BRANCH   2  18
ATOM     18  O   UNL     1      36.803 -18.217 -22.641  0.00  0.00    -0.378 OA
ATOM     19  H   UNL     1      36.944 -17.956 -21.718  0.00  0.00    +0.211 HD
ENDBRANCH   2  18
BRANCH   3  20
ATOM     20  O   UNL     1      35.683 -16.196 -24.134  0.00  0.00    -0.379 OA
ATOM     21  H   UNL     1      35.806 -16.714 -24.945  0.00  0.00    +0.211 HD
ENDBRANCH   3  20
BRANCH   5  22
ATOM     22  C   UNL     1      33.789 -15.150 -21.764  0.00  0.00    +0.186 C 
BRANCH  22  23
ATOM     23  O   UNL     1      34.277 -14.017 -22.464  0.00  0.00    -0.271 OA
BRANCH  23  24
ATOM     24  P   UNL     1      33.377 -13.401 -23.658  0.00  0.00    +0.473 P 
ATOM     25  O   UNL     1      33.229 -14.286 -24.862  0.00  0.00    -0.227 OA
BRANCH  24  26
ATOM     26  O   UNL     1      34.046 -11.957 -23.940  0.00  0.00    -0.303 OA
ATOM     27  H   UNL     1      34.917 -12.079 -24.350  0.00  0.00    +0.222 HD
ENDBRANCH  24  26
BRANCH  24  28
ATOM     28  O   UNL     1      31.992 -13.030 -22.910  0.00  0.00    -0.303 OA
ATOM     29  H   UNL     1      31.242 -13.291 -23.469  0.00  0.00    +0.222 HD
ENDBRANCH  24  28
ENDBRANCH  23  24
ENDBRANCH  22  23
ENDBRANCH   5  22
TORSDOF 8
ENDMDL
MODEL 3
REMARK VINA RESULT:      -8.8      4.576      7.631
REMARK  Name = 446488
REMARK  8 active torsions:
REMARK  status: ('A' for Active; 'I' for Inactive)
REMARK    1  A    between atoms: C_2  and  O_18
REMARK    2  A    between atoms: C_3  and  O_20
REMARK    3  A    between atoms: C_4  and  N_6
REMARK    4  A    between atoms: C_5  and  C_22
REMARK    5  A    between atoms: C_22  and  O_23
REMARK    6  A    between atoms: O_23  and  P_24
REMARK    7  A    between atoms: P_24  and  O_26
REMARK    8  A    between atoms: P_24  and  O_28
REMARK                            x       y       z     vdW  Elec       q    Type
REMARK                         _______ _______ _______ _____ _____    ______ ____
ROOT
ATOM      1  O   UNL     1      33.546 -23.736 -13.817  0.00  0.00    -0.336 OA
ATOM      2  C   UNL     1      34.364 -23.948 -16.047  0.00  0.00    +0.183 C 
ATOM      3  C   UNL     1      32.857 -23.779 -16.080  0.00  0.00    +0.171 C 
ATOM      4  C   UNL     1      34.548 -24.417 -14.606  0.00  0.00    +0.208 C 
ATOM      5  C   UNL     1      32.588 -23.149 -14.720  0.00  0.00    +0.176 C 
ENDROOT
BRANCH   4   6
ATOM      6  N   UNL     1      35.875 -24.210 -14.037  0.00  0.00    -0.210 NA
ATOM      7  N   UNL     1      37.512 -23.202 -12.897  0.00  0.00    -0.204 NA
ATOM      8  N   UNL     1      39.219 -24.885 -13.301  0.00  0.00    -0.195 NA
ATOM      9  N   UNL     1      38.452 -26.765 -14.655  0.00  0.00    -0.231 NA
ATOM     10  C   UNL     1      36.969 -25.027 -14.143  0.00  0.00    +0.201 C 
ATOM     11  C   UNL     1      36.255 -23.129 -13.279  0.00  0.00    +0.214 C 
ATOM     12  C   UNL     1      37.969 -24.381 -13.429  0.00  0.00    +0.027 C 
ATOM     13  C   UNL     1      37.213 -26.237 -14.765  0.00  0.00    +0.129 C 
ATOM     14  C   UNL     1      39.366 -26.066 -13.939  0.00  0.00    +0.262 C 
ATOM     15  N   UNL     1      36.218 -26.910 -15.493  0.00  0.00    -0.344 N 
ATOM     16  H   UNL     1      36.422 -27.771 -15.926  0.00  0.00    +0.143 HD
ATOM     17  H   UNL     1      35.316 -26.522 -15.571  0.00  0.00    +0.143 HD
ENDBRANCH   4   6
BRANCH   2  18
ATOM     18  O   UNL     1      34.998 -22.689 -16.253  0.00  0.00    -0.378 OA
ATOM     19  H   UNL     1      34.807 -22.103 -15.504  0.00  0.00    +0.211 HD
ENDBRANCH   2  18
BRANCH   3  20
ATOM     20  O   UNL     1      32.409 -22.961 -17.140  0.00  0.00    -0.379 OA
ATOM     21  H   UNL     1      32.269 -22.058 -16.813  0.00  0.00    +0.211 HD
ENDBRANCH   3  20
BRANCH   5  22
ATOM     22  C   UNL     1      31.182 -23.404 -14.208  0.00  0.00    +0.186 C 
BRANCH  22  23
ATOM     23  O   UNL     1      30.308 -22.439 -14.768  0.00  0.00    -0.271 OA
BRANCH  23  24
ATOM     24  P   UNL     1      29.075 -22.952 -15.682  0.00  0.00    +0.473 P 
ATOM     25  O   UNL     1      28.719 -24.400 -15.512  0.00  0.00    -0.227 OA
BRANCH  24  26
ATOM     26  O   UNL     1      29.498 -22.515 -17.179  0.00  0.00    -0.303 OA
ATOM     27  H   UNL     1      28.755 -22.670 -17.784  0.00  0.00    +0.222 HD
ENDBRANCH  24  26
BRANCH  24  28
ATOM     28  O   UNL     1      27.894 -21.911 -15.310  0.00  0.00    -0.303 OA
ATOM     29  H   UNL     1      27.992 -21.106 -15.844  0.00  0.00    +0.222 HD
ENDBRANCH  24  28
ENDBRANCH  23  24
ENDBRANCH  22  23
ENDBRANCH   5  22
TORSDOF 8
ENDMDL
MODEL 4
REMARK VINA RESULT:      -8.8      2.153      3.028
REMARK  Name = 446488
REMARK  8 active torsions:
REMARK  status: ('A' for Active; 'I' for Inactive)
REMARK    1  A    between atoms: C_2  and  O_18
REMARK    2  A    between atoms: C_3  and  O_20
REMARK    3  A    between atoms: C_4  and  N_6
REMARK    4  A    between atoms: C_5  and  C_22
REMARK    5  A    between atoms: C_22  and  O_23
REMARK    6  A    between atoms: O_23  and  P_24
REMARK    7  A    between atoms: P_24  and  O_26
REMARK    8  A    between atoms: P_24  and  O_28
REMARK                            x       y       z     vdW  Elec       q    Type
REMARK                         _______ _______ _______ _____ _____    ______ ____
ROOT
ATOM      1  O   UNL     1      35.235 -24.543 -14.941  0.00  0.00    -0.336 OA
ATOM      2  C   UNL     1      36.248 -22.598 -15.875  0.00  0.00    +0.183 C 
ATOM      3  C   UNL     1      37.284 -23.366 -15.078  0.00  0.00    +0.171 C 
ATOM      4  C   UNL     1      34.968 -23.160 -15.264  0.00  0.00    +0.208 C 
ATOM      5  C   UNL     1      36.659 -24.755 -15.020  0.00  0.00    +0.176 C 
ENDROOT
BRANCH   4   6
ATOM      6  N   UNL     1      33.770 -23.049 -16.088  0.00  0.00    -0.210 NA
ATOM      7  N   UNL     1      32.533 -22.857 -17.940  0.00  0.00    -0.204 NA
ATOM      8  N   UNL     1      30.367 -22.857 -16.837  0.00  0.00    -0.195 NA
ATOM      9  N   UNL     1      30.494 -23.051 -14.409  0.00  0.00    -0.231 NA
ATOM     10  C   UNL     1      32.465 -23.030 -15.672  0.00  0.00    +0.201 C 
ATOM     11  C   UNL     1      33.755 -22.942 -17.458  0.00  0.00    +0.214 C 
ATOM     12  C   UNL     1      31.720 -22.911 -16.837  0.00  0.00    +0.027 C 
ATOM     13  C   UNL     1      31.844 -23.102 -14.440  0.00  0.00    +0.129 C 
ATOM     14  C   UNL     1      29.848 -22.934 -15.593  0.00  0.00    +0.262 C 
ATOM     15  N   UNL     1      32.576 -23.223 -13.247  0.00  0.00    -0.344 N 
ATOM     16  H   UNL     1      32.105 -23.272 -12.383  0.00  0.00    +0.143 HD
ATOM     17  H   UNL     1      33.560 -23.260 -13.273  0.00  0.00    +0.143 HD
ENDBRANCH   4   6
BRANCH   2  18
ATOM     18  O   UNL     1      36.343 -22.944 -17.255  0.00  0.00    -0.378 OA
ATOM     19  H   UNL     1      37.276 -23.020 -17.506  0.00  0.00    +0.211 HD
ENDBRANCH   2  18
BRANCH   3  20
ATOM     20  O   UNL     1      38.558 -23.386 -15.685  0.00  0.00    -0.379 OA
ATOM     21  H   UNL     1      38.534 -23.959 -16.467  0.00  0.00    +0.211 HD
ENDBRANCH   3  20
BRANCH   5  22
ATOM     22  C   UNL     1      37.120 -25.571 -13.826  0.00  0.00    +0.186 C 
BRANCH  22  23
ATOM     23  O   UNL     1      36.096 -25.567 -12.845  0.00  0.00    -0.271 OA
BRANCH  23  24
ATOM     24  P   UNL     1      36.236 -24.559 -11.587  0.00  0.00    +0.473 P 
ATOM     25  O   UNL     1      37.646 -24.267 -11.162  0.00  0.00    -0.227 OA
BRANCH  24  26
ATOM     26  O   UNL     1      35.297 -25.225 -10.453  0.00  0.00    -0.303 OA
ATOM     27  H   UNL     1      35.816 -25.369  -9.646  0.00  0.00    +0.222 HD
ENDBRANCH  24  26
BRANCH  24  28
ATOM     28  O   UNL     1      35.387 -23.268 -12.064  0.00  0.00    -0.303 OA
ATOM     29  H   UNL     1      34.633 -23.558 -12.603  0.00  0.00    +0.222 HD
ENDBRANCH  24  28
ENDBRANCH  23  24
ENDBRANCH  22  23
ENDBRANCH   5  22
TORSDOF 8
ENDMDL
MODEL 5
REMARK VINA RESULT:      -8.7      8.642     10.533
REMARK  Name = 446488
REMARK  8 active torsions:
REMARK  status: ('A' for Active; 'I' for Inactive)
REMARK    1  A    between atoms: C_2  and  O_18
REMARK    2  A    between atoms: C_3  and  O_20
REMARK    3  A    between atoms: C_4  and  N_6
REMARK    4  A    between atoms: C_5  and  C_22
REMARK    5  A    between atoms: C_22  and  O_23
REMARK    6  A    between atoms: O_23  and  P_24
REMARK    7  A    between atoms: P_24  and  O_26
REMARK    8  A    between atoms: P_24  and  O_28
REMARK                            x       y       z     vdW  Elec       q    Type
REMARK                         _______ _______ _______ _____ _____    ______ ____
ROOT
ATOM      1  O   UNL     1      33.866 -18.975 -22.136  0.00  0.00    -0.336 OA
ATOM      2  C   UNL     1      35.936 -17.849 -21.770  0.00  0.00    +0.183 C 
ATOM      3  C   UNL     1      35.692 -18.829 -20.638  0.00  0.00    +0.171 C 
ATOM      4  C   UNL     1      34.513 -17.693 -22.299  0.00  0.00    +0.208 C 
ATOM      5  C   UNL     1      34.686 -19.783 -21.269  0.00  0.00    +0.176 C 
ENDROOT
BRANCH   4   6
ATOM      6  N   UNL     1      34.397 -17.233 -23.678  0.00  0.00    -0.210 NA
ATOM      7  N   UNL     1      34.553 -17.289 -25.907  0.00  0.00    -0.204 NA
ATOM      8  N   UNL     1      33.628 -15.078 -26.314  0.00  0.00    -0.195 NA
ATOM      9  N   UNL     1      32.995 -13.883 -24.284  0.00  0.00    -0.231 NA
ATOM     10  C   UNL     1      33.908 -16.032 -24.122  0.00  0.00    +0.201 C 
ATOM     11  C   UNL     1      34.770 -17.949 -24.789  0.00  0.00    +0.214 C 
ATOM     12  C   UNL     1      34.015 -16.093 -25.505  0.00  0.00    +0.027 C 
ATOM     13  C   UNL     1      33.390 -14.912 -23.502  0.00  0.00    +0.129 C 
ATOM     14  C   UNL     1      33.136 -14.027 -25.623  0.00  0.00    +0.262 C 
ATOM     15  N   UNL     1      33.271 -14.827 -22.105  0.00  0.00    -0.344 N 
ATOM     16  H   UNL     1      32.898 -14.015 -21.691  0.00  0.00    +0.143 HD
ATOM     17  H   UNL     1      33.560 -15.579 -21.538  0.00  0.00    +0.143 HD
ENDBRANCH   4   6
BRANCH   2  18
ATOM     18  O   UNL     1      36.777 -18.444 -22.754  0.00  0.00    -0.378 OA
ATOM     19  H   UNL     1      37.688 -18.482 -22.422  0.00  0.00    +0.211 HD
ENDBRANCH   2  18
BRANCH   3  20
ATOM     20  O   UNL     1      36.861 -19.497 -20.214  0.00  0.00    -0.379 OA
ATOM     21  H   UNL     1      37.412 -18.888 -19.698  0.00  0.00    +0.211 HD
ENDBRANCH   3  20
BRANCH   5  22
ATOM     22  C   UNL     1      33.809 -20.489 -20.251  0.00  0.00    +0.186 C 
BRANCH  22  23
ATOM     23  O   UNL     1      34.611 -21.384 -19.497  0.00  0.00    -0.271 OA
BRANCH  23  24
ATOM     24  P   UNL     1      33.882 -22.585 -18.694  0.00  0.00    +0.473 P 
ATOM     25  O   UNL     1      32.455 -22.317 -18.312  0.00  0.00    -0.227 OA
BRANCH  24  26
ATOM     26  O   UNL     1      34.883 -22.887 -17.462  0.00  0.00    -0.303 OA
ATOM     27  H   UNL     1      34.667 -22.302 -16.718  0.00  0.00    +0.222 HD
ENDBRANCH  24  26
BRANCH  24  28
ATOM     28  O   UNL     1      34.100 -23.855 -19.671  0.00  0.00    -0.303 OA
ATOM     29  H   UNL     1      33.977 -24.676 -19.167  0.00  0.00    +0.222 HD
ENDBRANCH  24  28
ENDBRANCH  23  24
ENDBRANCH  22  23
ENDBRANCH   5  22
TORSDOF 8
ENDMDL
MODEL 6
REMARK VINA RESULT:      -8.6      9.410     11.550
REMARK  Name = 446488
REMARK  8 active torsions:
REMARK  status: ('A' for Active; 'I' for Inactive)
REMARK    1  A    between atoms: C_2  and  O_18
REMARK    2  A    between atoms: C_3  and  O_20
REMARK    3  A    between atoms: C_4  and  N_6
REMARK    4  A    between atoms: C_5  and  C_22
REMARK    5  A    between atoms: C_22  and  O_23
REMARK    6  A    between atoms: O_23  and  P_24
REMARK    7  A    between atoms: P_24  and  O_26
REMARK    8  A    between atoms: P_24  and  O_28
REMARK                            x       y       z     vdW  Elec       q    Type
REMARK                         _______ _______ _______ _____ _____    ______ ____
ROOT
ATOM      1  O   UNL     1      34.252 -18.665 -23.487  0.00  0.00    -0.336 OA
ATOM      2  C   UNL     1      35.120 -17.271 -21.758  0.00  0.00    +0.183 C 
ATOM      3  C   UNL     1      35.250 -16.557 -23.089  0.00  0.00    +0.171 C 
ATOM      4  C   UNL     1      34.983 -18.713 -22.241  0.00  0.00    +0.208 C 
ATOM      5  C   UNL     1      34.222 -17.296 -23.937  0.00  0.00    +0.176 C 
ENDROOT
BRANCH   4   6
ATOM      6  N   UNL     1      34.346 -19.635 -21.308  0.00  0.00    -0.210 NA
ATOM      7  N   UNL     1      32.700 -20.761 -20.298  0.00  0.00    -0.204 NA
ATOM      8  N   UNL     1      34.106 -21.980 -18.734  0.00  0.00    -0.195 NA
ATOM      9  N   UNL     1      36.484 -21.477 -18.945  0.00  0.00    -0.231 NA
ATOM     10  C   UNL     1      34.948 -20.412 -20.355  0.00  0.00    +0.201 C 
ATOM     11  C   UNL     1      32.996 -19.882 -21.232  0.00  0.00    +0.214 C 
ATOM     12  C   UNL     1      33.908 -21.100 -19.744  0.00  0.00    +0.027 C 
ATOM     13  C   UNL     1      36.256 -20.604 -19.951  0.00  0.00    +0.129 C 
ATOM     14  C   UNL     1      35.410 -22.103 -18.406  0.00  0.00    +0.262 C 
ATOM     15  N   UNL     1      37.325 -19.921 -20.553  0.00  0.00    -0.344 N 
ATOM     16  H   UNL     1      38.246 -20.078 -20.243  0.00  0.00    +0.143 HD
ATOM     17  H   UNL     1      37.155 -19.286 -21.286  0.00  0.00    +0.143 HD
ENDBRANCH   4   6
BRANCH   2  18
ATOM     18  O   UNL     1      33.934 -16.847 -21.093  0.00  0.00    -0.378 OA
ATOM     19  H   UNL     1      34.076 -15.969 -20.705  0.00  0.00    +0.211 HD
ENDBRANCH   2  18
BRANCH   3  20
ATOM     20  O   UNL     1      34.975 -15.174 -23.012  0.00  0.00    -0.379 OA
ATOM     21  H   UNL     1      34.239 -14.958 -23.606  0.00  0.00    +0.211 HD
ENDBRANCH   3  20
BRANCH   5  22
ATOM     22  C   UNL     1      34.520 -17.242 -25.424  0.00  0.00    +0.186 C 
BRANCH  22  23
ATOM     23  O   UNL     1      34.629 -15.884 -25.820  0.00  0.00    -0.271 OA
BRANCH  23  24
ATOM     24  P   UNL     1      33.271 -15.051 -26.100  0.00  0.00    +0.473 P 
ATOM     25  O   UNL     1      32.737 -14.292 -24.920  0.00  0.00    -0.227 OA
BRANCH  24  26
ATOM     26  O   UNL     1      32.266 -16.151 -26.726  0.00  0.00    -0.303 OA
ATOM     27  H   UNL     1      32.731 -16.997 -26.822  0.00  0.00    +0.222 HD
ENDBRANCH  24  26
BRANCH  24  28
ATOM     28  O   UNL     1      33.666 -14.138 -27.376  0.00  0.00    -0.303 OA
ATOM     29  H   UNL     1      33.528 -14.646 -28.192  0.00  0.00    +0.222 HD
ENDBRANCH  24  28
ENDBRANCH  23  24
ENDBRANCH  22  23
ENDBRANCH   5  22
TORSDOF 8
ENDMDL
MODEL 7
REMARK VINA RESULT:      -8.5      2.318      3.896
REMARK  Name = 446488
REMARK  8 active torsions:
REMARK  status: ('A' for Active; 'I' for Inactive)
REMARK    1  A    between atoms: C_2  and  O_18
REMARK    2  A    between atoms: C_3  and  O_20
REMARK    3  A    between atoms: C_4  and  N_6
REMARK    4  A    between atoms: C_5  and  C_22
REMARK    5  A    between atoms: C_22  and  O_23
REMARK    6  A    between atoms: O_23  and  P_24
REMARK    7  A    between atoms: P_24  and  O_26
REMARK    8  A    between atoms: P_24  and  O_28
REMARK                            x       y       z     vdW  Elec       q    Type
REMARK                         _______ _______ _______ _____ _____    ______ ____
ROOT
ATOM      1  O   UNL     1      36.018 -23.132 -15.335  0.00  0.00    -0.336 OA
ATOM      2  C   UNL     1      33.951 -24.156 -14.731  0.00  0.00    +0.183 C 
ATOM      3  C   UNL     1      34.944 -24.327 -13.598  0.00  0.00    +0.171 C 
ATOM      4  C   UNL     1      34.909 -23.878 -15.886  0.00  0.00    +0.208 C 
ATOM      5  C   UNL     1      35.948 -23.221 -13.899  0.00  0.00    +0.176 C 
ENDROOT
BRANCH   4   6
ATOM      6  N   UNL     1      34.337 -23.175 -17.029  0.00  0.00    -0.210 NA
ATOM      7  N   UNL     1      32.781 -22.490 -18.480  0.00  0.00    -0.204 NA
ATOM      8  N   UNL     1      34.248 -21.113 -19.843  0.00  0.00    -0.195 NA
ATOM      9  N   UNL     1      36.567 -21.091 -19.087  0.00  0.00    -0.231 NA
ATOM     10  C   UNL     1      34.982 -22.355 -17.917  0.00  0.00    +0.201 C 
ATOM     11  C   UNL     1      33.018 -23.222 -17.412  0.00  0.00    +0.214 C 
ATOM     12  C   UNL     1      33.996 -21.944 -18.805  0.00  0.00    +0.027 C 
ATOM     13  C   UNL     1      36.286 -21.923 -18.059  0.00  0.00    +0.129 C 
ATOM     14  C   UNL     1      35.545 -20.742 -19.904  0.00  0.00    +0.262 C 
ATOM     15  N   UNL     1      37.301 -22.324 -17.174  0.00  0.00    -0.344 N 
ATOM     16  H   UNL     1      38.221 -21.999 -17.301  0.00  0.00    +0.143 HD
ATOM     17  H   UNL     1      37.092 -22.929 -16.426  0.00  0.00    +0.143 HD
ENDBRANCH   4   6
BRANCH   2  18
ATOM     18  O   UNL     1      33.120 -23.025 -14.482  0.00  0.00    -0.378 OA
ATOM     19  H   UNL     1      33.674 -22.242 -14.335  0.00  0.00    +0.211 HD
ENDBRANCH   2  18
BRANCH   3  20
ATOM     20  O   UNL     1      34.365 -24.182 -12.318  0.00  0.00    -0.379 OA
ATOM     21  H   UNL     1      34.914 -23.587 -11.782  0.00  0.00    +0.211 HD
ENDBRANCH   3  20
BRANCH   5  22
ATOM     22  C   UNL     1      37.331 -23.496 -13.336  0.00  0.00    +0.186 C 
BRANCH  22  23
ATOM     23  O   UNL     1      37.585 -24.889 -13.407  0.00  0.00    -0.271 OA
BRANCH  23  24
ATOM     24  P   UNL     1      38.650 -25.425 -14.501  0.00  0.00    +0.473 P 
ATOM     25  O   UNL     1      39.838 -26.143 -13.932  0.00  0.00    -0.227 OA
BRANCH  24  26
ATOM     26  O   UNL     1      38.992 -24.112 -15.380  0.00  0.00    -0.303 OA
ATOM     27  H   UNL     1      39.951 -23.966 -15.384  0.00  0.00    +0.222 HD
ENDBRANCH  24  26
BRANCH  24  28
ATOM     28  O   UNL     1      37.730 -26.309 -15.495  0.00  0.00    -0.303 OA
ATOM     29  H   UNL     1      37.569 -25.812 -16.314  0.00  0.00    +0.222 HD
ENDBRANCH  24  28
ENDBRANCH  23  24
ENDBRANCH  22  23
ENDBRANCH   5  22
TORSDOF 8
ENDMDL
MODEL 8
REMARK VINA RESULT:      -8.4      1.779      2.477
REMARK  Name = 446488
REMARK  8 active torsions:
REMARK  status: ('A' for Active; 'I' for Inactive)
REMARK    1  A    between atoms: C_2  and  O_18
REMARK    2  A    between atoms: C_3  and  O_20
REMARK    3  A    between atoms: C_4  and  N_6
REMARK    4  A    between atoms: C_5  and  C_22
REMARK    5  A    between atoms: C_22  and  O_23
REMARK    6  A    between atoms: O_23  and  P_24
REMARK    7  A    between atoms: P_24  and  O_26
REMARK    8  A    between atoms: P_24  and  O_28
REMARK                            x       y       z     vdW  Elec       q    Type
REMARK                         _______ _______ _______ _____ _____    ______ ____
ROOT
ATOM      1  O   UNL     1      34.575 -23.748 -15.247  0.00  0.00    -0.336 OA
ATOM      2  C   UNL     1      33.081 -24.224 -13.450  0.00  0.00    +0.183 C 
ATOM      3  C   UNL     1      34.508 -24.427 -12.981  0.00  0.00    +0.171 C 
ATOM      4  C   UNL     1      33.279 -24.323 -14.960  0.00  0.00    +0.208 C 
ATOM      5  C   UNL     1      35.287 -23.607 -14.002  0.00  0.00    +0.176 C 
ENDROOT
BRANCH   4   6
ATOM      6  N   UNL     1      32.248 -23.693 -15.778  0.00  0.00    -0.210 NA
ATOM      7  N   UNL     1      31.362 -22.404 -17.374  0.00  0.00    -0.204 NA
ATOM      8  N   UNL     1      29.035 -22.923 -16.901  0.00  0.00    -0.195 NA
ATOM      9  N   UNL     1      28.727 -24.486 -15.053  0.00  0.00    -0.231 NA
ATOM     10  C   UNL     1      30.891 -23.848 -15.679  0.00  0.00    +0.201 C 
ATOM     11  C   UNL     1      32.477 -22.817 -16.810  0.00  0.00    +0.214 C 
ATOM     12  C   UNL     1      30.365 -23.040 -16.678  0.00  0.00    +0.027 C 
ATOM     13  C   UNL     1      30.061 -24.582 -14.854  0.00  0.00    +0.129 C 
ATOM     14  C   UNL     1      28.302 -23.674 -16.050  0.00  0.00    +0.262 C 
ATOM     15  N   UNL     1      30.567 -25.407 -13.837  0.00  0.00    -0.344 N 
ATOM     16  H   UNL     1      29.950 -25.919 -13.265  0.00  0.00    +0.143 HD
ATOM     17  H   UNL     1      31.539 -25.475 -13.695  0.00  0.00    +0.143 HD
ENDBRANCH   4   6
BRANCH   2  18
ATOM     18  O   UNL     1      32.630 -22.923 -13.085  0.00  0.00    -0.378 OA
ATOM     19  H   UNL     1      31.669 -22.866 -13.208  0.00  0.00    +0.211 HD
ENDBRANCH   2  18
BRANCH   3  20
ATOM     20  O   UNL     1      34.733 -23.979 -11.661  0.00  0.00    -0.379 OA
ATOM     21  H   UNL     1      34.482 -24.677 -11.036  0.00  0.00    +0.211 HD
ENDBRANCH   3  20
BRANCH   5  22
ATOM     22  C   UNL     1      36.720 -24.075 -14.180  0.00  0.00    +0.186 C 
BRANCH  22  23
ATOM     23  O   UNL     1      36.774 -24.989 -15.262  0.00  0.00    -0.271 OA
BRANCH  23  24
ATOM     24  P   UNL     1      37.442 -26.441 -15.014  0.00  0.00    +0.473 P 
ATOM     25  O   UNL     1      37.197 -27.028 -13.655  0.00  0.00    -0.227 OA
BRANCH  24  26
ATOM     26  O   UNL     1      38.996 -26.222 -15.402  0.00  0.00    -0.303 OA
ATOM     27  H   UNL     1      39.269 -26.899 -16.041  0.00  0.00    +0.222 HD
ENDBRANCH  24  26
BRANCH  24  28
ATOM     28  O   UNL     1      36.871 -27.316 -16.248  0.00  0.00    -0.303 OA
ATOM     29  H   UNL     1      36.546 -26.721 -16.944  0.00  0.00    +0.222 HD
ENDBRANCH  24  28
ENDBRANCH  23  24
ENDBRANCH  22  23
ENDBRANCH   5  22
TORSDOF 8
ENDMDL
MODEL 9
REMARK VINA RESULT:      -8.4      4.833      7.611
REMARK  Name = 446488
REMARK  8 active torsions:
REMARK  status: ('A' for Active; 'I' for Inactive)
REMARK    1  A    between atoms: C_2  and  O_18
REMARK    2  A    between atoms: C_3  and  O_20
REMARK    3  A    between atoms: C_4  and  N_6
REMARK    4  A    between atoms: C_5  and  C_22
REMARK    5  A    between atoms: C_22  and  O_23
REMARK    6  A    between atoms: O_23  and  P_24
REMARK    7  A    between atoms: P_24  and  O_26
REMARK    8  A    between atoms: P_24  and  O_28
REMARK                            x       y       z     vdW  Elec       q    Type
REMARK                         _______ _______ _______ _____ _____    ______ ____
ROOT
ATOM      1  O   UNL     1      33.194 -23.789 -15.808  0.00  0.00    -0.336 OA
ATOM      2  C   UNL     1      32.986 -23.944 -13.438  0.00  0.00    +0.183 C 
ATOM      3  C   UNL     1      31.781 -23.214 -13.999  0.00  0.00    +0.171 C 
ATOM      4  C   UNL     1      33.970 -23.759 -14.590  0.00  0.00    +0.208 C 
ATOM      5  C   UNL     1      31.802 -23.660 -15.456  0.00  0.00    +0.176 C 
ENDROOT
BRANCH   4   6
ATOM      6  N   UNL     1      35.060 -24.726 -14.654  0.00  0.00    -0.210 NA
ATOM      7  N   UNL     1      36.319 -26.387 -15.461  0.00  0.00    -0.204 NA
ATOM      8  N   UNL     1      37.944 -26.419 -13.654  0.00  0.00    -0.195 NA
ATOM      9  N   UNL     1      37.516 -24.766 -11.911  0.00  0.00    -0.231 NA
ATOM     10  C   UNL     1      36.072 -24.909 -13.749  0.00  0.00    +0.201 C 
ATOM     11  C   UNL     1      35.255 -25.638 -15.662  0.00  0.00    +0.214 C 
ATOM     12  C   UNL     1      36.837 -25.942 -14.272  0.00  0.00    +0.027 C 
ATOM     13  C   UNL     1      36.416 -24.311 -12.552  0.00  0.00    +0.129 C 
ATOM     14  C   UNL     1      38.202 -25.778 -12.494  0.00  0.00    +0.262 C 
ATOM     15  N   UNL     1      35.658 -23.264 -12.001  0.00  0.00    -0.344 N 
ATOM     16  H   UNL     1      35.928 -22.858 -11.146  0.00  0.00    +0.143 HD
ATOM     17  H   UNL     1      34.857 -22.935 -12.471  0.00  0.00    +0.143 HD
ENDBRANCH   4   6
BRANCH   2  18
ATOM     18  O   UNL     1      32.677 -25.323 -13.256  0.00  0.00    -0.378 OA
ATOM     19  H   UNL     1      31.743 -25.416 -13.012  0.00  0.00    +0.211 HD
ENDBRANCH   2  18
BRANCH   3  20
ATOM     20  O   UNL     1      30.570 -23.557 -13.359  0.00  0.00    -0.379 OA
ATOM     21  H   UNL     1      29.909 -23.798 -14.028  0.00  0.00    +0.211 HD
ENDBRANCH   3  20
BRANCH   5  22
ATOM     22  C   UNL     1      31.127 -22.676 -16.394  0.00  0.00    +0.186 C 
BRANCH  22  23
ATOM     23  O   UNL     1      30.087 -23.345 -17.089  0.00  0.00    -0.271 OA
BRANCH  23  24
ATOM     24  P   UNL     1      28.568 -23.165 -16.562  0.00  0.00    +0.473 P 
ATOM     25  O   UNL     1      28.140 -21.745 -16.331  0.00  0.00    -0.227 OA
BRANCH  24  26
ATOM     26  O   UNL     1      28.493 -24.128 -15.265  0.00  0.00    -0.303 OA
ATOM     27  H   UNL     1      27.902 -23.735 -14.604  0.00  0.00    +0.222 HD
ENDBRANCH  24  26
BRANCH  24  28
ATOM     28  O   UNL     1      27.705 -23.966 -17.671  0.00  0.00    -0.303 OA
ATOM     29  H   UNL     1      27.097 -24.579 -17.226  0.00  0.00    +0.222 HD
ENDBRANCH  24  28
ENDBRANCH  23  24
ENDBRANCH  22  23
ENDBRANCH   5  22
TORSDOF 8
ENDMDL
