MODEL 1
REMARK VINA RESULT:      -5.4      0.000      0.000
REMARK  Name = 13373305
REMARK  1 active torsions:
REMARK  status: ('A' for Active; 'I' for Inactive)
REMARK    1  A    between atoms: C_4  and  N_9
REMARK                            x       y       z     vdW  Elec       q    Type
REMARK                         _______ _______ _______ _____ _____    ______ ____
ROOT
ATOM      1  O   UNL     1      35.170 -25.114 -10.284  0.00  0.00    -0.277 OA
ATOM      2  O   UNL     1      38.339 -22.223 -11.948  0.00  0.00    -0.275 OA
ATOM      3  N   UNL     1      36.846 -23.594 -10.810  0.00  0.00    -0.257 N 
ATOM      4  C   UNL     1      35.846 -24.710 -12.585  0.00  0.00    +0.022 C 
ATOM      5  C   UNL     1      36.737 -23.596 -13.131  0.00  0.00    +0.073 C 
ATOM      6  C   UNL     1      35.874 -24.523 -11.090  0.00  0.00    +0.208 C 
ATOM      7  C   UNL     1      37.434 -23.043 -11.921  0.00  0.00    +0.226 C 
ATOM      8  H   UNL     1      37.099 -23.344  -9.892  0.00  0.00    +0.157 HD
ENDROOT
BRANCH   4   9
ATOM      9  N   UNL     1      34.477 -24.618 -13.062  0.00  0.00    +0.388 N 
ATOM     10  H   UNL     1      33.850 -24.471 -12.270  0.00  0.00    -0.089 HD
ATOM     11  H   UNL     1      34.224 -25.483 -13.539  0.00  0.00    -0.089 HD
ATOM     12  H   UNL     1      34.394 -23.835 -13.710  0.00  0.00    -0.089 HD
ENDBRANCH   4   9
TORSDOF 1
ENDMDL
MODEL 2
REMARK VINA RESULT:      -5.3      3.767      4.347
REMARK  Name = 13373305
REMARK  1 active torsions:
REMARK  status: ('A' for Active; 'I' for Inactive)
REMARK    1  A    between atoms: C_4  and  N_9
REMARK                            x       y       z     vdW  Elec       q    Type
REMARK                         _______ _______ _______ _____ _____    ______ ____
ROOT
ATOM      1  O   UNL     1      37.076 -27.024 -15.967  0.00  0.00    -0.277 OA
ATOM      2  O   UNL     1      36.730 -25.868 -11.528  0.00  0.00    -0.275 OA
ATOM      3  N   UNL     1      36.605 -26.583 -13.736  0.00  0.00    -0.257 N 
ATOM      4  C   UNL     1      38.732 -26.033 -14.489  0.00  0.00    +0.022 C 
ATOM      5  C   UNL     1      38.532 -25.456 -13.089  0.00  0.00    +0.073 C 
ATOM      6  C   UNL     1      37.389 -26.603 -14.863  0.00  0.00    +0.208 C 
ATOM      7  C   UNL     1      37.197 -25.988 -12.650  0.00  0.00    +0.226 C 
ATOM      8  H   UNL     1      35.696 -26.960 -13.709  0.00  0.00    +0.157 HD
ENDROOT
BRANCH   4   9
ATOM      9  N   UNL     1      39.122 -25.024 -15.460  0.00  0.00    +0.388 N 
ATOM     10  H   UNL     1      38.370 -24.898 -16.140  0.00  0.00    -0.089 HD
ATOM     11  H   UNL     1      39.969 -25.325 -15.942  0.00  0.00    -0.089 HD
ATOM     12  H   UNL     1      39.298 -24.141 -14.981  0.00  0.00    -0.089 HD
ENDBRANCH   4   9
TORSDOF 1
ENDMDL
MODEL 3
REMARK VINA RESULT:      -5.2      1.132      2.913
REMARK  Name = 13373305
REMARK  1 active torsions:
REMARK  status: ('A' for Active; 'I' for Inactive)
REMARK    1  A    between atoms: C_4  and  N_9
REMARK                            x       y       z     vdW  Elec       q    Type
REMARK                         _______ _______ _______ _____ _____    ______ ____
ROOT
ATOM      1  O   UNL     1      38.333 -22.222 -11.920  0.00  0.00    -0.277 OA
ATOM      2  O   UNL     1      35.180 -25.113 -10.226  0.00  0.00    -0.275 OA
ATOM      3  N   UNL     1      36.875 -23.618 -10.771  0.00  0.00    -0.257 N 
ATOM      4  C   UNL     1      36.477 -23.323 -13.041  0.00  0.00    +0.022 C 
ATOM      5  C   UNL     1      35.581 -24.444 -12.516  0.00  0.00    +0.073 C 
ATOM      6  C   UNL     1      37.367 -22.969 -11.877  0.00  0.00    +0.208 C 
ATOM      7  C   UNL     1      35.815 -24.449 -11.032  0.00  0.00    +0.226 C 
ATOM      8  H   UNL     1      37.251 -23.498  -9.869  0.00  0.00    +0.157 HD
ENDROOT
BRANCH   4   9
ATOM      9  N   UNL     1      37.292 -23.740 -14.169  0.00  0.00    +0.388 N 
ATOM     10  H   UNL     1      38.268 -23.807 -13.877  0.00  0.00    -0.089 HD
ATOM     11  H   UNL     1      37.209 -23.054 -14.920  0.00  0.00    -0.089 HD
ATOM     12  H   UNL     1      36.974 -24.650 -14.502  0.00  0.00    -0.089 HD
ENDBRANCH   4   9
TORSDOF 1
ENDMDL
MODEL 4
REMARK VINA RESULT:      -5.1      3.423      3.936
REMARK  Name = 13373305
REMARK  1 active torsions:
REMARK  status: ('A' for Active; 'I' for Inactive)
REMARK    1  A    between atoms: C_4  and  N_9
REMARK                            x       y       z     vdW  Elec       q    Type
REMARK                         _______ _______ _______ _____ _____    ______ ____
ROOT
ATOM      1  O   UNL     1      37.543 -26.119 -11.815  0.00  0.00    -0.277 OA
ATOM      2  O   UNL     1      36.694 -27.345 -16.168  0.00  0.00    -0.275 OA
ATOM      3  N   UNL     1      37.255 -27.025 -13.934  0.00  0.00    -0.257 N 
ATOM      4  C   UNL     1      36.310 -24.939 -13.547  0.00  0.00    +0.022 C 
ATOM      5  C   UNL     1      36.227 -25.257 -15.039  0.00  0.00    +0.073 C 
ATOM      6  C   UNL     1      37.116 -26.068 -12.960  0.00  0.00    +0.208 C 
ATOM      7  C   UNL     1      36.729 -26.669 -15.151  0.00  0.00    +0.226 C 
ATOM      8  H   UNL     1      37.694 -27.892 -13.775  0.00  0.00    +0.157 HD
ENDROOT
BRANCH   4   9
ATOM      9  N   UNL     1      36.974 -23.675 -13.280  0.00  0.00    +0.388 N 
ATOM     10  H   UNL     1      37.540 -23.410 -14.087  0.00  0.00    -0.089 HD
ATOM     11  H   UNL     1      37.574 -23.772 -12.461  0.00  0.00    -0.089 HD
ATOM     12  H   UNL     1      36.274 -22.953 -13.104  0.00  0.00    -0.089 HD
ENDBRANCH   4   9
TORSDOF 1
ENDMDL
MODEL 5
REMARK VINA RESULT:      -5.1      3.760      4.145
REMARK  Name = 13373305
REMARK  1 active torsions:
REMARK  status: ('A' for Active; 'I' for Inactive)
REMARK    1  A    between atoms: C_4  and  N_9
REMARK                            x       y       z     vdW  Elec       q    Type
REMARK                         _______ _______ _______ _____ _____    ______ ____
ROOT
ATOM      1  O   UNL     1      36.496 -24.696 -15.540  0.00  0.00    -0.277 OA
ATOM      2  O   UNL     1      41.010 -24.941 -14.688  0.00  0.00    -0.275 OA
ATOM      3  N   UNL     1      38.814 -24.664 -15.397  0.00  0.00    -0.257 N 
ATOM      4  C   UNL     1      37.659 -25.480 -13.554  0.00  0.00    +0.022 C 
ATOM      5  C   UNL     1      39.151 -25.760 -13.374  0.00  0.00    +0.073 C 
ATOM      6  C   UNL     1      37.541 -24.912 -14.944  0.00  0.00    +0.208 C 
ATOM      7  C   UNL     1      39.805 -25.071 -14.539  0.00  0.00    +0.226 C 
ATOM      8  H   UNL     1      39.000 -24.233 -16.262  0.00  0.00    +0.157 HD
ENDROOT
BRANCH   4   9
ATOM      9  N   UNL     1      36.848 -26.681 -13.447  0.00  0.00    +0.388 N 
ATOM     10  H   UNL     1      37.241 -27.295 -12.733  0.00  0.00    -0.089 HD
ATOM     11  H   UNL     1      36.838 -27.166 -14.344  0.00  0.00    -0.089 HD
ATOM     12  H   UNL     1      35.894 -26.426 -13.187  0.00  0.00    -0.089 HD
ENDBRANCH   4   9
TORSDOF 1
ENDMDL
MODEL 6
REMARK VINA RESULT:      -5.0      3.076      3.409
REMARK  Name = 13373305
REMARK  1 active torsions:
REMARK  status: ('A' for Active; 'I' for Inactive)
REMARK    1  A    between atoms: C_4  and  N_9
REMARK                            x       y       z     vdW  Elec       q    Type
REMARK                         _______ _______ _______ _____ _____    ______ ____
ROOT
ATOM      1  O   UNL     1      38.851 -26.862 -14.812  0.00  0.00    -0.277 OA
ATOM      2  O   UNL     1      37.433 -24.447 -11.162  0.00  0.00    -0.275 OA
ATOM      3  N   UNL     1      38.430 -25.711 -12.840  0.00  0.00    -0.257 N 
ATOM      4  C   UNL     1      36.817 -25.566 -14.505  0.00  0.00    +0.022 C 
ATOM      5  C   UNL     1      36.264 -24.957 -13.218  0.00  0.00    +0.073 C 
ATOM      6  C   UNL     1      38.149 -26.149 -14.110  0.00  0.00    +0.208 C 
ATOM      7  C   UNL     1      37.425 -24.975 -12.264  0.00  0.00    +0.226 C 
ATOM      8  H   UNL     1      39.278 -25.909 -12.380  0.00  0.00    +0.157 HD
ENDROOT
BRANCH   4   9
ATOM      9  N   UNL     1      35.965 -26.614 -15.041  0.00  0.00    +0.388 N 
ATOM     10  H   UNL     1      36.457 -27.508 -14.997  0.00  0.00    -0.089 HD
ATOM     11  H   UNL     1      35.733 -26.401 -16.011  0.00  0.00    -0.089 HD
ATOM     12  H   UNL     1      35.108 -26.671 -14.490  0.00  0.00    -0.089 HD
ENDBRANCH   4   9
TORSDOF 1
ENDMDL
MODEL 7
REMARK VINA RESULT:      -5.0      8.675      9.788
REMARK  Name = 13373305
REMARK  1 active torsions:
REMARK  status: ('A' for Active; 'I' for Inactive)
REMARK    1  A    between atoms: C_4  and  N_9
REMARK                            x       y       z     vdW  Elec       q    Type
REMARK                         _______ _______ _______ _____ _____    ______ ____
ROOT
ATOM      1  O   UNL     1      34.249 -18.673 -21.534  0.00  0.00    -0.277 OA
ATOM      2  O   UNL     1      32.729 -22.137 -18.915  0.00  0.00    -0.275 OA
ATOM      3  N   UNL     1      33.180 -20.304 -20.272  0.00  0.00    -0.257 N 
ATOM      4  C   UNL     1      35.476 -20.525 -20.545  0.00  0.00    +0.022 C 
ATOM      5  C   UNL     1      34.997 -21.534 -19.504  0.00  0.00    +0.073 C 
ATOM      6  C   UNL     1      34.260 -19.692 -20.859  0.00  0.00    +0.208 C 
ATOM      7  C   UNL     1      33.500 -21.403 -19.513  0.00  0.00    +0.226 C 
ATOM      8  H   UNL     1      32.257 -19.982 -20.383  0.00  0.00    +0.157 HD
ENDROOT
BRANCH   4   9
ATOM      9  N   UNL     1      36.539 -19.668 -20.047  0.00  0.00    +0.388 N 
ATOM     10  H   UNL     1      36.212 -19.166 -19.221  0.00  0.00    -0.089 HD
ATOM     11  H   UNL     1      36.802 -18.997 -20.770  0.00  0.00    -0.089 HD
ATOM     12  H   UNL     1      37.348 -20.237 -19.800  0.00  0.00    -0.089 HD
ENDBRANCH   4   9
TORSDOF 1
ENDMDL
MODEL 8
REMARK VINA RESULT:      -4.9     10.213     11.176
REMARK  Name = 13373305
REMARK  1 active torsions:
REMARK  status: ('A' for Active; 'I' for Inactive)
REMARK    1  A    between atoms: C_4  and  N_9
REMARK                            x       y       z     vdW  Elec       q    Type
REMARK                         _______ _______ _______ _____ _____    ______ ____
ROOT
ATOM      1  O   UNL     1      41.437 -17.308 -16.760  0.00  0.00    -0.277 OA
ATOM      2  O   UNL     1      40.548 -13.786 -13.937  0.00  0.00    -0.275 OA
ATOM      3  N   UNL     1      40.852 -15.754 -15.136  0.00  0.00    -0.257 N 
ATOM      4  C   UNL     1      42.107 -14.977 -16.930  0.00  0.00    +0.022 C 
ATOM      5  C   UNL     1      41.621 -13.786 -16.105  0.00  0.00    +0.073 C 
ATOM      6  C   UNL     1      41.436 -16.173 -16.306  0.00  0.00    +0.208 C 
ATOM      7  C   UNL     1      40.953 -14.404 -14.910  0.00  0.00    +0.226 C 
ATOM      8  H   UNL     1      40.400 -16.368 -14.513  0.00  0.00    +0.157 HD
ENDROOT
BRANCH   4   9
ATOM      9  N   UNL     1      41.731 -14.881 -18.329  0.00  0.00    +0.388 N 
ATOM     10  H   UNL     1      41.604 -13.900 -18.581  0.00  0.00    -0.089 HD
ATOM     11  H   UNL     1      40.859 -15.386 -18.483  0.00  0.00    -0.089 HD
ATOM     12  H   UNL     1      42.466 -15.287 -18.909  0.00  0.00    -0.089 HD
ENDBRANCH   4   9
TORSDOF 1
ENDMDL
MODEL 9
REMARK VINA RESULT:      -4.9      8.808      9.869
REMARK  Name = 13373305
REMARK  1 active torsions:
REMARK  status: ('A' for Active; 'I' for Inactive)
REMARK    1  A    between atoms: C_4  and  N_9
REMARK                            x       y       z     vdW  Elec       q    Type
REMARK                         _______ _______ _______ _____ _____    ______ ____
ROOT
ATOM      1  O   UNL     1      36.549 -20.030 -20.543  0.00  0.00    -0.277 OA
ATOM      2  O   UNL     1      32.732 -22.087 -19.003  0.00  0.00    -0.275 OA
ATOM      3  N   UNL     1      34.824 -21.256 -19.586  0.00  0.00    -0.257 N 
ATOM      4  C   UNL     1      34.217 -19.470 -20.941  0.00  0.00    +0.022 C 
ATOM      5  C   UNL     1      32.972 -20.290 -20.605  0.00  0.00    +0.073 C 
ATOM      6  C   UNL     1      35.362 -20.260 -20.363  0.00  0.00    +0.208 C 
ATOM      7  C   UNL     1      33.453 -21.319 -19.622  0.00  0.00    +0.226 C 
ATOM      8  H   UNL     1      35.373 -21.873 -19.050  0.00  0.00    +0.157 HD
ENDROOT
BRANCH   4   9
ATOM      9  N   UNL     1      34.410 -19.306 -22.371  0.00  0.00    +0.388 N 
ATOM     10  H   UNL     1      35.385 -19.067 -22.558  0.00  0.00    -0.089 HD
ATOM     11  H   UNL     1      33.806 -18.559 -22.713  0.00  0.00    -0.089 HD
ATOM     12  H   UNL     1      34.177 -20.177 -22.849  0.00  0.00    -0.089 HD
ENDBRANCH   4   9
TORSDOF 1
ENDMDL
