MODEL 1
REMARK VINA RESULT:      -3.9      0.000      0.000
REMARK  Name = 446973
REMARK  4 active torsions:
REMARK  status: ('A' for Active; 'I' for Inactive)
REMARK    1  A    between atoms: C_1  and  O_3
REMARK    2  A    between atoms: C_1  and  C_5
REMARK    3  A    between atoms: C_5  and  C_6
REMARK    4  A    between atoms: C_6  and  O_7
REMARK                            x       y       z     vdW  Elec       q    Type
REMARK                         _______ _______ _______ _____ _____    ______ ____
ROOT
ATOM      1  C   UNL     1      38.013 -25.946 -14.072  0.00  0.00    +0.113 C 
ATOM      2  C   UNL     1      37.301 -26.137 -12.740  0.00  0.00    +0.032 C 
ENDROOT
BRANCH   1   3
ATOM      3  O   UNL     1      38.174 -27.220 -14.691  0.00  0.00    -0.384 OA
ATOM      4  H   UNL     1      38.821 -27.742 -14.191  0.00  0.00    +0.210 HD
ENDBRANCH   1   3
BRANCH   1   5
ATOM      5  C   UNL     1      39.375 -25.274 -13.890  0.00  0.00    +0.061 C 
BRANCH   5   6
ATOM      6  C   UNL     1      40.500 -26.048 -14.569  0.00  0.00    +0.140 C 
BRANCH   6   7
ATOM      7  O   UNL     1      40.387 -25.881 -15.975  0.00  0.00    -0.382 OA
ATOM      8  H   UNL     1      39.541 -26.246 -16.276  0.00  0.00    +0.210 HD
ENDBRANCH   6   7
ENDBRANCH   5   6
ENDBRANCH   1   5
TORSDOF 4
ENDMDL
MODEL 2
REMARK VINA RESULT:      -3.8      1.678      2.116
REMARK  Name = 446973
REMARK  4 active torsions:
REMARK  status: ('A' for Active; 'I' for Inactive)
REMARK    1  A    between atoms: C_1  and  O_3
REMARK    2  A    between atoms: C_1  and  C_5
REMARK    3  A    between atoms: C_5  and  C_6
REMARK    4  A    between atoms: C_6  and  O_7
REMARK                            x       y       z     vdW  Elec       q    Type
REMARK                         _______ _______ _______ _____ _____    ______ ____
ROOT
ATOM      1  C   UNL     1      38.035 -24.378 -14.715  0.00  0.00    +0.113 C 
ATOM      2  C   UNL     1      36.576 -24.572 -15.103  0.00  0.00    +0.032 C 
ENDROOT
BRANCH   1   3
ATOM      3  O   UNL     1      38.688 -23.644 -15.747  0.00  0.00    -0.384 OA
ATOM      4  H   UNL     1      38.356 -23.935 -16.610  0.00  0.00    +0.210 HD
ENDBRANCH   1   3
BRANCH   1   5
ATOM      5  C   UNL     1      38.740 -25.717 -14.495  0.00  0.00    +0.061 C 
BRANCH   5   6
ATOM      6  C   UNL     1      40.243 -25.629 -14.735  0.00  0.00    +0.140 C 
BRANCH   6   7
ATOM      7  O   UNL     1      40.514 -25.991 -16.082  0.00  0.00    -0.382 OA
ATOM      8  H   UNL     1      40.525 -26.957 -16.161  0.00  0.00    +0.210 HD
ENDBRANCH   6   7
ENDBRANCH   5   6
ENDBRANCH   1   5
TORSDOF 4
ENDMDL
MODEL 3
REMARK VINA RESULT:      -3.7      3.881      5.003
REMARK  Name = 446973
REMARK  4 active torsions:
REMARK  status: ('A' for Active; 'I' for Inactive)
REMARK    1  A    between atoms: C_1  and  O_3
REMARK    2  A    between atoms: C_1  and  C_5
REMARK    3  A    between atoms: C_5  and  C_6
REMARK    4  A    between atoms: C_6  and  O_7
REMARK                            x       y       z     vdW  Elec       q    Type
REMARK                         _______ _______ _______ _____ _____    ______ ____
ROOT
ATOM      1  C   UNL     1      37.647 -23.618 -12.516  0.00  0.00    +0.113 C 
ATOM      2  C   UNL     1      38.045 -25.086 -12.574  0.00  0.00    +0.032 C 
ENDROOT
BRANCH   1   3
ATOM      3  O   UNL     1      38.487 -22.952 -11.578  0.00  0.00    -0.384 OA
ATOM      4  H   UNL     1      38.537 -23.475 -10.762  0.00  0.00    +0.210 HD
ENDBRANCH   1   3
BRANCH   1   5
ATOM      5  C   UNL     1      36.179 -23.450 -12.120  0.00  0.00    +0.061 C 
BRANCH   5   6
ATOM      6  C   UNL     1      35.733 -24.484 -11.091  0.00  0.00    +0.140 C 
BRANCH   6   7
ATOM      7  O   UNL     1      36.216 -24.096  -9.813  0.00  0.00    -0.382 OA
ATOM      8  H   UNL     1      36.613 -24.863  -9.371  0.00  0.00    +0.210 HD
ENDBRANCH   6   7
ENDBRANCH   5   6
ENDBRANCH   1   5
TORSDOF 4
ENDMDL
MODEL 4
REMARK VINA RESULT:      -3.7     10.983     11.410
REMARK  Name = 446973
REMARK  4 active torsions:
REMARK  status: ('A' for Active; 'I' for Inactive)
REMARK    1  A    between atoms: C_1  and  O_3
REMARK    2  A    between atoms: C_1  and  C_5
REMARK    3  A    between atoms: C_5  and  C_6
REMARK    4  A    between atoms: C_6  and  O_7
REMARK                            x       y       z     vdW  Elec       q    Type
REMARK                         _______ _______ _______ _____ _____    ______ ____
ROOT
ATOM      1  C   UNL     1      42.579 -15.545 -17.120  0.00  0.00    +0.113 C 
ATOM      2  C   UNL     1      42.395 -16.374 -18.384  0.00  0.00    +0.032 C 
ENDROOT
BRANCH   1   3
ATOM      3  O   UNL     1      42.886 -16.422 -16.039  0.00  0.00    -0.384 OA
ATOM      4  H   UNL     1      43.565 -17.056 -16.321  0.00  0.00    +0.210 HD
ENDBRANCH   1   3
BRANCH   1   5
ATOM      5  C   UNL     1      41.327 -14.730 -16.796  0.00  0.00    +0.061 C 
BRANCH   5   6
ATOM      6  C   UNL     1      40.934 -14.828 -15.325  0.00  0.00    +0.140 C 
BRANCH   6   7
ATOM      7  O   UNL     1      40.103 -15.967 -15.149  0.00  0.00    -0.382 OA
ATOM      8  H   UNL     1      39.178 -15.685 -15.080  0.00  0.00    +0.210 HD
ENDBRANCH   6   7
ENDBRANCH   5   6
ENDBRANCH   1   5
TORSDOF 4
ENDMDL
MODEL 5
REMARK VINA RESULT:      -3.7     11.577     12.391
REMARK  Name = 446973
REMARK  4 active torsions:
REMARK  status: ('A' for Active; 'I' for Inactive)
REMARK    1  A    between atoms: C_1  and  O_3
REMARK    2  A    between atoms: C_1  and  C_5
REMARK    3  A    between atoms: C_5  and  C_6
REMARK    4  A    between atoms: C_6  and  O_7
REMARK                            x       y       z     vdW  Elec       q    Type
REMARK                         _______ _______ _______ _____ _____    ______ ____
ROOT
ATOM      1  C   UNL     1      41.677 -14.736 -16.555  0.00  0.00    +0.113 C 
ATOM      2  C   UNL     1      41.198 -14.227 -17.908  0.00  0.00    +0.032 C 
ENDROOT
BRANCH   1   3
ATOM      3  O   UNL     1      40.875 -15.851 -16.177  0.00  0.00    -0.384 OA
ATOM      4  H   UNL     1      41.019 -16.579 -16.802  0.00  0.00    +0.210 HD
ENDBRANCH   1   3
BRANCH   1   5
ATOM      5  C   UNL     1      41.601 -13.646 -15.486  0.00  0.00    +0.061 C 
BRANCH   5   6
ATOM      6  C   UNL     1      40.515 -13.921 -14.451  0.00  0.00    +0.140 C 
BRANCH   6   7
ATOM      7  O   UNL     1      40.937 -13.406 -13.196  0.00  0.00    -0.382 OA
ATOM      8  H   UNL     1      40.550 -12.528 -13.061  0.00  0.00    +0.210 HD
ENDBRANCH   6   7
ENDBRANCH   5   6
ENDBRANCH   1   5
TORSDOF 4
ENDMDL
MODEL 6
REMARK VINA RESULT:      -3.7      9.929     10.977
REMARK  Name = 446973
REMARK  4 active torsions:
REMARK  status: ('A' for Active; 'I' for Inactive)
REMARK    1  A    between atoms: C_1  and  O_3
REMARK    2  A    between atoms: C_1  and  C_5
REMARK    3  A    between atoms: C_5  and  C_6
REMARK    4  A    between atoms: C_6  and  O_7
REMARK                            x       y       z     vdW  Elec       q    Type
REMARK                         _______ _______ _______ _____ _____    ______ ____
ROOT
ATOM      1  C   UNL     1      29.752 -23.013 -16.010  0.00  0.00    +0.113 C 
ATOM      2  C   UNL     1      30.700 -22.821 -14.835  0.00  0.00    +0.032 C 
ENDROOT
BRANCH   1   3
ATOM      3  O   UNL     1      30.301 -22.361 -17.152  0.00  0.00    -0.384 OA
ATOM      4  H   UNL     1      29.598 -21.885 -17.622  0.00  0.00    +0.210 HD
ENDBRANCH   1   3
BRANCH   1   5
ATOM      5  C   UNL     1      28.360 -22.456 -15.705  0.00  0.00    +0.061 C 
BRANCH   5   6
ATOM      6  C   UNL     1      27.472 -22.401 -16.944  0.00  0.00    +0.140 C 
BRANCH   6   7
ATOM      7  O   UNL     1      27.643 -23.601 -17.684  0.00  0.00    -0.382 OA
ATOM      8  H   UNL     1      28.538 -23.946 -17.539  0.00  0.00    +0.210 HD
ENDBRANCH   6   7
ENDBRANCH   5   6
ENDBRANCH   1   5
TORSDOF 4
ENDMDL
MODEL 7
REMARK VINA RESULT:      -3.6     11.375     12.277
REMARK  Name = 446973
REMARK  4 active torsions:
REMARK  status: ('A' for Active; 'I' for Inactive)
REMARK    1  A    between atoms: C_1  and  O_3
REMARK    2  A    between atoms: C_1  and  C_5
REMARK    3  A    between atoms: C_5  and  C_6
REMARK    4  A    between atoms: C_6  and  O_7
REMARK                            x       y       z     vdW  Elec       q    Type
REMARK                         _______ _______ _______ _____ _____    ______ ____
ROOT
ATOM      1  C   UNL     1      41.737 -14.061 -17.328  0.00  0.00    +0.113 C 
ATOM      2  C   UNL     1      42.185 -12.607 -17.402  0.00  0.00    +0.032 C 
ENDROOT
BRANCH   1   3
ATOM      3  O   UNL     1      40.755 -14.289 -18.334  0.00  0.00    -0.384 OA
ATOM      4  H   UNL     1      39.870 -14.212 -17.945  0.00  0.00    +0.210 HD
ENDBRANCH   1   3
BRANCH   1   5
ATOM      5  C   UNL     1      41.168 -14.403 -15.950  0.00  0.00    +0.061 C 
BRANCH   5   6
ATOM      6  C   UNL     1      41.188 -15.902 -15.669  0.00  0.00    +0.140 C 
BRANCH   6   7
ATOM      7  O   UNL     1      39.898 -16.303 -15.230  0.00  0.00    -0.382 OA
ATOM      8  H   UNL     1      39.222 -15.826 -15.735  0.00  0.00    +0.210 HD
ENDBRANCH   6   7
ENDBRANCH   5   6
ENDBRANCH   1   5
TORSDOF 4
ENDMDL
MODEL 8
REMARK VINA RESULT:      -3.6      8.761      9.203
REMARK  Name = 446973
REMARK  4 active torsions:
REMARK  status: ('A' for Active; 'I' for Inactive)
REMARK    1  A    between atoms: C_1  and  O_3
REMARK    2  A    between atoms: C_1  and  C_5
REMARK    3  A    between atoms: C_5  and  C_6
REMARK    4  A    between atoms: C_6  and  O_7
REMARK                            x       y       z     vdW  Elec       q    Type
REMARK                         _______ _______ _______ _____ _____    ______ ____
ROOT
ATOM      1  C   UNL     1      33.548 -20.719 -20.392  0.00  0.00    +0.113 C 
ATOM      2  C   UNL     1      33.679 -19.317 -20.970  0.00  0.00    +0.032 C 
ENDROOT
BRANCH   1   3
ATOM      3  O   UNL     1      32.495 -20.722 -19.433  0.00  0.00    -0.384 OA
ATOM      4  H   UNL     1      32.715 -20.114 -18.709  0.00  0.00    +0.210 HD
ENDBRANCH   1   3
BRANCH   1   5
ATOM      5  C   UNL     1      34.853 -21.183 -19.743  0.00  0.00    +0.061 C 
BRANCH   5   6
ATOM      6  C   UNL     1      34.635 -22.320 -18.749  0.00  0.00    +0.140 C 
BRANCH   6   7
ATOM      7  O   UNL     1      33.952 -23.377 -19.406  0.00  0.00    -0.382 OA
ATOM      8  H   UNL     1      33.804 -23.140 -20.335  0.00  0.00    +0.210 HD
ENDBRANCH   6   7
ENDBRANCH   5   6
ENDBRANCH   1   5
TORSDOF 4
ENDMDL
MODEL 9
REMARK VINA RESULT:      -3.6     11.718     12.105
REMARK  Name = 446973
REMARK  4 active torsions:
REMARK  status: ('A' for Active; 'I' for Inactive)
REMARK    1  A    between atoms: C_1  and  O_3
REMARK    2  A    between atoms: C_1  and  C_5
REMARK    3  A    between atoms: C_5  and  C_6
REMARK    4  A    between atoms: C_6  and  O_7
REMARK                            x       y       z     vdW  Elec       q    Type
REMARK                         _______ _______ _______ _____ _____    ______ ____
ROOT
ATOM      1  C   UNL     1      35.436 -18.627 -21.336  0.00  0.00    +0.113 C 
ATOM      2  C   UNL     1      34.163 -19.412 -21.054  0.00  0.00    +0.032 C 
ENDROOT
BRANCH   1   3
ATOM      3  O   UNL     1      35.336 -17.353 -20.706  0.00  0.00    -0.384 OA
ATOM      4  H   UNL     1      35.974 -16.742 -21.108  0.00  0.00    +0.210 HD
ENDBRANCH   1   3
BRANCH   1   5
ATOM      5  C   UNL     1      35.668 -18.455 -22.837  0.00  0.00    +0.061 C 
BRANCH   5   6
ATOM      6  C   UNL     1      34.861 -17.300 -23.422  0.00  0.00    +0.140 C 
BRANCH   6   7
ATOM      7  O   UNL     1      35.700 -16.157 -23.519  0.00  0.00    -0.382 OA
ATOM      8  H   UNL     1      36.471 -16.273 -22.942  0.00  0.00    +0.210 HD
ENDBRANCH   6   7
ENDBRANCH   5   6
ENDBRANCH   1   5
TORSDOF 4
ENDMDL
