MODEL 1
REMARK VINA RESULT:      -8.8      0.000      0.000
REMARK  Name = 165151
REMARK  6 active torsions:
REMARK  status: ('A' for Active; 'I' for Inactive)
REMARK    1  A    between atoms: C_2  and  N_8
REMARK    2  A    between atoms: C_3  and  C_16
REMARK    3  A    between atoms: C_16  and  O_17
REMARK    4  A    between atoms: O_17  and  P_18
REMARK    5  A    between atoms: P_18  and  O_20
REMARK    6  A    between atoms: P_18  and  O_22
REMARK                            x       y       z     vdW  Elec       q    Type
REMARK                         _______ _______ _______ _____ _____    ______ ____
ROOT
ATOM      1  O   UNL     1      35.757 -24.817 -15.884  0.00  0.00    -0.337 OA
ATOM      2  C   UNL     1      35.521 -23.448 -16.244  0.00  0.00    +0.199 C 
ATOM      3  C   UNL     1      36.687 -24.856 -14.787  0.00  0.00    +0.147 C 
ATOM      4  C   UNL     1      36.090 -22.593 -15.127  0.00  0.00    +0.054 C 
ATOM      5  C   UNL     1      37.232 -23.445 -14.633  0.00  0.00    +0.037 C 
ENDROOT
BRANCH   2   8
ATOM      6  O   UNL     1      34.298 -22.919 -18.747  0.00  0.00    -0.252 OA
ATOM      7  O   UNL     1      30.130 -22.689 -16.819  0.00  0.00    -0.270 OA
ATOM      8  N   UNL     1      34.117 -23.243 -16.443  0.00  0.00    -0.219 N 
ATOM      9  N   UNL     1      32.225 -22.806 -17.772  0.00  0.00    -0.236 N 
ATOM     10  C   UNL     1      33.295 -23.307 -15.337  0.00  0.00    +0.071 C 
ATOM     11  C   UNL     1      33.612 -22.986 -17.725  0.00  0.00    +0.315 C 
ATOM     12  C   UNL     1      31.969 -23.133 -15.387  0.00  0.00    +0.047 C 
ATOM     13  C   UNL     1      31.340 -22.857 -16.706  0.00  0.00    +0.250 C 
ATOM     14  C   UNL     1      31.080 -23.203 -14.186  0.00  0.00    +0.037 C 
ATOM     15  H   UNL     1      31.836 -22.624 -18.658  0.00  0.00    +0.159 HD
ENDBRANCH   2   8
BRANCH   3  16
ATOM     16  C   UNL     1      35.950 -25.350 -13.549  0.00  0.00    +0.183 C 
BRANCH  16  17
ATOM     17  O   UNL     1      36.706 -25.012 -12.398  0.00  0.00    -0.271 OA
BRANCH  17  18
ATOM     18  P   UNL     1      36.027 -24.056 -11.282  0.00  0.00    +0.473 P 
ATOM     19  O   UNL     1      36.933 -23.008 -10.707  0.00  0.00    -0.227 OA
BRANCH  18  20
ATOM     20  O   UNL     1      35.406 -25.097 -10.211  0.00  0.00    -0.303 OA
ATOM     21  H   UNL     1      35.913 -25.052  -9.386  0.00  0.00    +0.222 HD
ENDBRANCH  18  20
BRANCH  18  22
ATOM     22  O   UNL     1      34.720 -23.486 -12.046  0.00  0.00    -0.303 OA
ATOM     23  H   UNL     1      34.997 -22.921 -12.783  0.00  0.00    +0.222 HD
ENDBRANCH  18  22
ENDBRANCH  17  18
ENDBRANCH  16  17
ENDBRANCH   3  16
TORSDOF 6
ENDMDL
MODEL 2
REMARK VINA RESULT:      -8.7      2.598      4.014
REMARK  Name = 165151
REMARK  6 active torsions:
REMARK  status: ('A' for Active; 'I' for Inactive)
REMARK    1  A    between atoms: C_2  and  N_8
REMARK    2  A    between atoms: C_3  and  C_16
REMARK    3  A    between atoms: C_16  and  O_17
REMARK    4  A    between atoms: O_17  and  P_18
REMARK    5  A    between atoms: P_18  and  O_20
REMARK    6  A    between atoms: P_18  and  O_22
REMARK                            x       y       z     vdW  Elec       q    Type
REMARK                         _______ _______ _______ _____ _____    ______ ____
ROOT
ATOM      1  O   UNL     1      36.019 -22.836 -14.655  0.00  0.00    -0.337 OA
ATOM      2  C   UNL     1      34.737 -23.444 -14.874  0.00  0.00    +0.199 C 
ATOM      3  C   UNL     1      36.901 -23.809 -14.070  0.00  0.00    +0.147 C 
ATOM      4  C   UNL     1      34.922 -24.940 -14.700  0.00  0.00    +0.054 C 
ATOM      5  C   UNL     1      36.038 -25.000 -13.687  0.00  0.00    +0.037 C 
ENDROOT
BRANCH   2   8
ATOM      6  O   UNL     1      32.046 -23.691 -15.734  0.00  0.00    -0.252 OA
ATOM      7  O   UNL     1      33.078 -22.032 -19.896  0.00  0.00    -0.270 OA
ATOM      8  N   UNL     1      34.256 -23.088 -16.176  0.00  0.00    -0.219 N 
ATOM      9  N   UNL     1      32.575 -22.863 -17.807  0.00  0.00    -0.236 N 
ATOM     10  C   UNL     1      35.168 -22.587 -17.082  0.00  0.00    +0.071 C 
ATOM     11  C   UNL     1      32.904 -23.250 -16.503  0.00  0.00    +0.315 C 
ATOM     12  C   UNL     1      34.850 -22.218 -18.329  0.00  0.00    +0.047 C 
ATOM     13  C   UNL     1      33.436 -22.353 -18.767  0.00  0.00    +0.250 C 
ATOM     14  C   UNL     1      35.841 -21.675 -19.309  0.00  0.00    +0.037 C 
ATOM     15  H   UNL     1      31.632 -22.964 -18.070  0.00  0.00    +0.159 HD
ENDBRANCH   2   8
BRANCH   3  16
ATOM     16  C   UNL     1      37.979 -24.155 -15.089  0.00  0.00    +0.183 C 
BRANCH  16  17
ATOM     17  O   UNL     1      39.176 -24.478 -14.402  0.00  0.00    -0.271 OA
BRANCH  17  18
ATOM     18  P   UNL     1      39.879 -25.903 -14.705  0.00  0.00    +0.473 P 
ATOM     19  O   UNL     1      40.986 -26.279 -13.764  0.00  0.00    -0.227 OA
BRANCH  18  20
ATOM     20  O   UNL     1      40.301 -25.800 -16.263  0.00  0.00    -0.303 OA
ATOM     21  H   UNL     1      40.459 -24.872 -16.495  0.00  0.00    +0.222 HD
ENDBRANCH  18  20
BRANCH  18  22
ATOM     22  O   UNL     1      38.625 -26.924 -14.727  0.00  0.00    -0.303 OA
ATOM     23  H   UNL     1      38.493 -27.254 -15.629  0.00  0.00    +0.222 HD
ENDBRANCH  18  22
ENDBRANCH  17  18
ENDBRANCH  16  17
ENDBRANCH   3  16
TORSDOF 6
ENDMDL
MODEL 3
REMARK VINA RESULT:      -8.5      2.908      6.283
REMARK  Name = 165151
REMARK  6 active torsions:
REMARK  status: ('A' for Active; 'I' for Inactive)
REMARK    1  A    between atoms: C_2  and  N_8
REMARK    2  A    between atoms: C_3  and  C_16
REMARK    3  A    between atoms: C_16  and  O_17
REMARK    4  A    between atoms: O_17  and  P_18
REMARK    5  A    between atoms: P_18  and  O_20
REMARK    6  A    between atoms: P_18  and  O_22
REMARK                            x       y       z     vdW  Elec       q    Type
REMARK                         _______ _______ _______ _____ _____    ______ ____
ROOT
ATOM      1  O   UNL     1      31.991 -25.352 -14.500  0.00  0.00    -0.337 OA
ATOM      2  C   UNL     1      32.670 -24.252 -13.878  0.00  0.00    +0.199 C 
ATOM      3  C   UNL     1      30.574 -25.190 -14.313  0.00  0.00    +0.147 C 
ATOM      4  C   UNL     1      31.617 -23.208 -13.556  0.00  0.00    +0.054 C 
ATOM      5  C   UNL     1      30.397 -24.060 -13.311  0.00  0.00    +0.037 C 
ENDROOT
BRANCH   2   8
ATOM      6  O   UNL     1      35.381 -23.849 -13.151  0.00  0.00    -0.252 OA
ATOM      7  O   UNL     1      36.440 -22.373 -17.375  0.00  0.00    -0.270 OA
ATOM      8  N   UNL     1      33.690 -23.763 -14.756  0.00  0.00    -0.219 N 
ATOM      9  N   UNL     1      35.895 -23.114 -15.262  0.00  0.00    -0.236 N 
ATOM     10  C   UNL     1      33.332 -23.465 -16.055  0.00  0.00    +0.071 C 
ATOM     11  C   UNL     1      35.004 -23.598 -14.297  0.00  0.00    +0.315 C 
ATOM     12  C   UNL     1      34.187 -23.001 -16.974  0.00  0.00    +0.047 C 
ATOM     13  C   UNL     1      35.606 -22.795 -16.579  0.00  0.00    +0.250 C 
ATOM     14  C   UNL     1      33.795 -22.679 -18.381  0.00  0.00    +0.037 C 
ATOM     15  H   UNL     1      36.828 -22.986 -14.973  0.00  0.00    +0.159 HD
ENDBRANCH   2   8
BRANCH   3  16
ATOM     16  C   UNL     1      29.940 -24.895 -15.665  0.00  0.00    +0.183 C 
BRANCH  16  17
ATOM     17  O   UNL     1      28.709 -24.222 -15.460  0.00  0.00    -0.271 OA
BRANCH  17  18
ATOM     18  P   UNL     1      28.322 -23.002 -16.450  0.00  0.00    +0.473 P 
ATOM     19  O   UNL     1      27.512 -21.907 -15.822  0.00  0.00    -0.227 OA
BRANCH  18  20
ATOM     20  O   UNL     1      27.628 -23.737 -17.713  0.00  0.00    -0.303 OA
ATOM     21  H   UNL     1      26.664 -23.658 -17.644  0.00  0.00    +0.222 HD
ENDBRANCH  18  20
BRANCH  18  22
ATOM     22  O   UNL     1      29.759 -22.543 -17.032  0.00  0.00    -0.303 OA
ATOM     23  H   UNL     1      29.834 -22.815 -17.959  0.00  0.00    +0.222 HD
ENDBRANCH  18  22
ENDBRANCH  17  18
ENDBRANCH  16  17
ENDBRANCH   3  16
TORSDOF 6
ENDMDL
MODEL 4
REMARK VINA RESULT:      -8.4      1.040      1.285
REMARK  Name = 165151
REMARK  6 active torsions:
REMARK  status: ('A' for Active; 'I' for Inactive)
REMARK    1  A    between atoms: C_2  and  N_8
REMARK    2  A    between atoms: C_3  and  C_16
REMARK    3  A    between atoms: C_16  and  O_17
REMARK    4  A    between atoms: O_17  and  P_18
REMARK    5  A    between atoms: P_18  and  O_20
REMARK    6  A    between atoms: P_18  and  O_22
REMARK                            x       y       z     vdW  Elec       q    Type
REMARK                         _______ _______ _______ _____ _____    ______ ____
ROOT
ATOM      1  O   UNL     1      35.919 -24.191 -15.743  0.00  0.00    -0.337 OA
ATOM      2  C   UNL     1      35.428 -23.298 -16.754  0.00  0.00    +0.199 C 
ATOM      3  C   UNL     1      37.096 -23.617 -15.148  0.00  0.00    +0.147 C 
ATOM      4  C   UNL     1      36.153 -21.978 -16.568  0.00  0.00    +0.054 C 
ATOM      5  C   UNL     1      37.481 -22.427 -16.013  0.00  0.00    +0.037 C 
ENDROOT
BRANCH   2   8
ATOM      6  O   UNL     1      33.644 -22.888 -18.920  0.00  0.00    -0.252 OA
ATOM      7  O   UNL     1      30.010 -22.856 -16.102  0.00  0.00    -0.270 OA
ATOM      8  N   UNL     1      34.006 -23.176 -16.633  0.00  0.00    -0.219 N 
ATOM      9  N   UNL     1      31.840 -22.873 -17.503  0.00  0.00    -0.236 N 
ATOM     10  C   UNL     1      33.459 -23.265 -15.370  0.00  0.00    +0.071 C 
ATOM     11  C   UNL     1      33.211 -22.974 -17.769  0.00  0.00    +0.315 C 
ATOM     12  C   UNL     1      32.148 -23.167 -15.120  0.00  0.00    +0.047 C 
ATOM     13  C   UNL     1      31.224 -22.953 -16.264  0.00  0.00    +0.250 C 
ATOM     14  C   UNL     1      31.558 -23.263 -13.748  0.00  0.00    +0.037 C 
ATOM     15  H   UNL     1      31.252 -22.730 -18.279  0.00  0.00    +0.159 HD
ENDBRANCH   2   8
BRANCH   3  16
ATOM     16  C   UNL     1      36.769 -23.231 -13.712  0.00  0.00    +0.183 C 
BRANCH  16  17
ATOM     17  O   UNL     1      36.029 -24.281 -13.110  0.00  0.00    -0.271 OA
BRANCH  17  18
ATOM     18  P   UNL     1      36.609 -24.958 -11.760  0.00  0.00    +0.473 P 
ATOM     19  O   UNL     1      37.802 -24.268 -11.166  0.00  0.00    -0.227 OA
BRANCH  18  20
ATOM     20  O   UNL     1      36.840 -26.504 -12.173  0.00  0.00    -0.303 OA
ATOM     21  H   UNL     1      36.750 -27.066 -11.388  0.00  0.00    +0.222 HD
ENDBRANCH  18  20
BRANCH  18  22
ATOM     22  O   UNL     1      35.308 -25.020 -10.801  0.00  0.00    -0.303 OA
ATOM     23  H   UNL     1      35.505 -25.564 -10.024  0.00  0.00    +0.222 HD
ENDBRANCH  18  22
ENDBRANCH  17  18
ENDBRANCH  16  17
ENDBRANCH   3  16
TORSDOF 6
ENDMDL
MODEL 5
REMARK VINA RESULT:      -8.3      7.016      8.983
REMARK  Name = 165151
REMARK  6 active torsions:
REMARK  status: ('A' for Active; 'I' for Inactive)
REMARK    1  A    between atoms: C_2  and  N_8
REMARK    2  A    between atoms: C_3  and  C_16
REMARK    3  A    between atoms: C_16  and  O_17
REMARK    4  A    between atoms: O_17  and  P_18
REMARK    5  A    between atoms: P_18  and  O_20
REMARK    6  A    between atoms: P_18  and  O_22
REMARK                            x       y       z     vdW  Elec       q    Type
REMARK                         _______ _______ _______ _____ _____    ______ ____
ROOT
ATOM      1  O   UNL     1      34.369 -19.404 -22.458  0.00  0.00    -0.337 OA
ATOM      2  C   UNL     1      35.291 -18.304 -22.478  0.00  0.00    +0.199 C 
ATOM      3  C   UNL     1      34.705 -20.271 -21.361  0.00  0.00    +0.147 C 
ATOM      4  C   UNL     1      36.038 -18.329 -21.159  0.00  0.00    +0.054 C 
ATOM      5  C   UNL     1      36.053 -19.802 -20.836  0.00  0.00    +0.037 C 
ENDROOT
BRANCH   2   8
ATOM      6  O   UNL     1      34.931 -17.045 -24.994  0.00  0.00    -0.252 OA
ATOM      7  O   UNL     1      32.504 -13.631 -23.096  0.00  0.00    -0.270 OA
ATOM      8  N   UNL     1      34.571 -17.083 -22.689  0.00  0.00    -0.219 N 
ATOM      9  N   UNL     1      33.723 -15.348 -24.034  0.00  0.00    -0.236 N 
ATOM     10  C   UNL     1      34.009 -16.471 -21.588  0.00  0.00    +0.071 C 
ATOM     11  C   UNL     1      34.451 -16.541 -23.976  0.00  0.00    +0.315 C 
ATOM     12  C   UNL     1      33.313 -15.328 -21.648  0.00  0.00    +0.047 C 
ATOM     13  C   UNL     1      33.132 -14.679 -22.973  0.00  0.00    +0.250 C 
ATOM     14  C   UNL     1      32.705 -14.667 -20.452  0.00  0.00    +0.037 C 
ATOM     15  H   UNL     1      33.619 -14.939 -24.924  0.00  0.00    +0.159 HD
ENDBRANCH   2   8
BRANCH   3  16
ATOM     16  C   UNL     1      33.596 -20.184 -20.322  0.00  0.00    +0.183 C 
BRANCH  16  17
ATOM     17  O   UNL     1      33.054 -21.478 -20.116  0.00  0.00    -0.271 OA
BRANCH  17  18
ATOM     18  P   UNL     1      33.719 -22.421 -18.980  0.00  0.00    +0.473 P 
ATOM     19  O   UNL     1      34.950 -21.861 -18.331  0.00  0.00    -0.227 OA
BRANCH  18  20
ATOM     20  O   UNL     1      33.915 -23.842 -19.727  0.00  0.00    -0.303 OA
ATOM     21  H   UNL     1      33.854 -23.714 -20.686  0.00  0.00    +0.222 HD
ENDBRANCH  18  20
BRANCH  18  22
ATOM     22  O   UNL     1      32.482 -22.698 -17.975  0.00  0.00    -0.303 OA
ATOM     23  H   UNL     1      32.275 -21.887 -17.487  0.00  0.00    +0.222 HD
ENDBRANCH  18  22
ENDBRANCH  17  18
ENDBRANCH  16  17
ENDBRANCH   3  16
TORSDOF 6
ENDMDL
MODEL 6
REMARK VINA RESULT:      -8.2     10.291     12.529
REMARK  Name = 165151
REMARK  6 active torsions:
REMARK  status: ('A' for Active; 'I' for Inactive)
REMARK    1  A    between atoms: C_2  and  N_8
REMARK    2  A    between atoms: C_3  and  C_16
REMARK    3  A    between atoms: C_16  and  O_17
REMARK    4  A    between atoms: O_17  and  P_18
REMARK    5  A    between atoms: P_18  and  O_20
REMARK    6  A    between atoms: P_18  and  O_22
REMARK                            x       y       z     vdW  Elec       q    Type
REMARK                         _______ _______ _______ _____ _____    ______ ____
ROOT
ATOM      1  O   UNL     1      34.694 -14.201 -21.921  0.00  0.00    -0.337 OA
ATOM      2  C   UNL     1      33.540 -13.442 -22.309  0.00  0.00    +0.199 C 
ATOM      3  C   UNL     1      34.311 -15.144 -20.905  0.00  0.00    +0.147 C 
ATOM      4  C   UNL     1      32.330 -14.151 -21.730  0.00  0.00    +0.054 C 
ATOM      5  C   UNL     1      32.900 -14.770 -20.479  0.00  0.00    +0.037 C 
ENDROOT
BRANCH   2   8
ATOM      6  O   UNL     1      34.031 -11.068 -23.779  0.00  0.00    -0.252 OA
ATOM      7  O   UNL     1      33.327 -13.230 -27.776  0.00  0.00    -0.270 OA
ATOM      8  N   UNL     1      33.496 -13.338 -23.737  0.00  0.00    -0.219 N 
ATOM      9  N   UNL     1      33.676 -12.158 -25.766  0.00  0.00    -0.236 N 
ATOM     10  C   UNL     1      33.192 -14.476 -24.455  0.00  0.00    +0.071 C 
ATOM     11  C   UNL     1      33.754 -12.114 -24.369  0.00  0.00    +0.315 C 
ATOM     12  C   UNL     1      33.118 -14.514 -25.791  0.00  0.00    +0.047 C 
ATOM     13  C   UNL     1      33.378 -13.262 -26.550  0.00  0.00    +0.250 C 
ATOM     14  C   UNL     1      32.788 -15.750 -26.567  0.00  0.00    +0.037 C 
ATOM     15  H   UNL     1      33.852 -11.315 -26.242  0.00  0.00    +0.159 HD
ENDBRANCH   2   8
BRANCH   3  16
ATOM     16  C   UNL     1      34.406 -16.547 -21.491  0.00  0.00    +0.183 C 
BRANCH  16  17
ATOM     17  O   UNL     1      35.297 -17.317 -20.700  0.00  0.00    -0.271 OA
BRANCH  17  18
ATOM     18  P   UNL     1      35.877 -18.697 -21.315  0.00  0.00    +0.473 P 
ATOM     19  O   UNL     1      36.697 -19.520 -20.365  0.00  0.00    -0.227 OA
BRANCH  18  20
ATOM     20  O   UNL     1      36.643 -18.227 -22.660  0.00  0.00    -0.303 OA
ATOM     21  H   UNL     1      36.039 -18.295 -23.416  0.00  0.00    +0.222 HD
ENDBRANCH  18  20
BRANCH  18  22
ATOM     22  O   UNL     1      34.548 -19.425 -21.879  0.00  0.00    -0.303 OA
ATOM     23  H   UNL     1      33.768 -18.899 -21.646  0.00  0.00    +0.222 HD
ENDBRANCH  18  22
ENDBRANCH  17  18
ENDBRANCH  16  17
ENDBRANCH   3  16
TORSDOF 6
ENDMDL
MODEL 7
REMARK VINA RESULT:      -7.9      8.256     11.146
REMARK  Name = 165151
REMARK  6 active torsions:
REMARK  status: ('A' for Active; 'I' for Inactive)
REMARK    1  A    between atoms: C_2  and  N_8
REMARK    2  A    between atoms: C_3  and  C_16
REMARK    3  A    between atoms: C_16  and  O_17
REMARK    4  A    between atoms: O_17  and  P_18
REMARK    5  A    between atoms: P_18  and  O_20
REMARK    6  A    between atoms: P_18  and  O_22
REMARK                            x       y       z     vdW  Elec       q    Type
REMARK                         _______ _______ _______ _____ _____    ______ ____
ROOT
ATOM      1  O   UNL     1      35.778 -16.831 -22.463  0.00  0.00    -0.337 OA
ATOM      2  C   UNL     1      35.866 -18.186 -22.927  0.00  0.00    +0.199 C 
ATOM      3  C   UNL     1      34.932 -16.087 -23.357  0.00  0.00    +0.147 C 
ATOM      4  C   UNL     1      34.786 -18.364 -23.978  0.00  0.00    +0.054 C 
ATOM      5  C   UNL     1      34.691 -16.979 -24.565  0.00  0.00    +0.037 C 
ENDROOT
BRANCH   2   8
ATOM      6  O   UNL     1      37.989 -19.099 -21.284  0.00  0.00    -0.252 OA
ATOM      7  O   UNL     1      35.112 -21.610 -18.722  0.00  0.00    -0.270 OA
ATOM      8  N   UNL     1      35.718 -19.081 -21.818  0.00  0.00    -0.219 N 
ATOM      9  N   UNL     1      36.543 -20.348 -20.014  0.00  0.00    -0.236 N 
ATOM     10  C   UNL     1      34.448 -19.534 -21.523  0.00  0.00    +0.071 C 
ATOM     11  C   UNL     1      36.834 -19.473 -21.067  0.00  0.00    +0.315 C 
ATOM     12  C   UNL     1      34.174 -20.372 -20.516  0.00  0.00    +0.047 C 
ATOM     13  C   UNL     1      35.296 -20.842 -19.662  0.00  0.00    +0.250 C 
ATOM     14  C   UNL     1      32.797 -20.862 -20.200  0.00  0.00    +0.037 C 
ATOM     15  H   UNL     1      37.304 -20.644 -19.466  0.00  0.00    +0.159 HD
ENDBRANCH   2   8
BRANCH   3  16
ATOM     16  C   UNL     1      33.652 -15.724 -22.617  0.00  0.00    +0.183 C 
BRANCH  16  17
ATOM     17  O   UNL     1      33.637 -14.325 -22.383  0.00  0.00    -0.271 OA
BRANCH  17  18
ATOM     18  P   UNL     1      33.004 -13.360 -23.517  0.00  0.00    +0.473 P 
ATOM     19  O   UNL     1      32.599 -14.052 -24.785  0.00  0.00    -0.227 OA
BRANCH  18  20
ATOM     20  O   UNL     1      34.110 -12.193 -23.689  0.00  0.00    -0.303 OA
ATOM     21  H   UNL     1      34.201 -11.969 -24.629  0.00  0.00    +0.222 HD
ENDBRANCH  18  20
BRANCH  18  22
ATOM     22  O   UNL     1      31.802 -12.619 -22.728  0.00  0.00    -0.303 OA
ATOM     23  H   UNL     1      31.175 -12.251 -23.369  0.00  0.00    +0.222 HD
ENDBRANCH  18  22
ENDBRANCH  17  18
ENDBRANCH  16  17
ENDBRANCH   3  16
TORSDOF 6
ENDMDL
MODEL 8
REMARK VINA RESULT:      -7.8      3.409      6.303
REMARK  Name = 165151
REMARK  6 active torsions:
REMARK  status: ('A' for Active; 'I' for Inactive)
REMARK    1  A    between atoms: C_2  and  N_8
REMARK    2  A    between atoms: C_3  and  C_16
REMARK    3  A    between atoms: C_16  and  O_17
REMARK    4  A    between atoms: O_17  and  P_18
REMARK    5  A    between atoms: P_18  and  O_20
REMARK    6  A    between atoms: P_18  and  O_22
REMARK                            x       y       z     vdW  Elec       q    Type
REMARK                         _______ _______ _______ _____ _____    ______ ____
ROOT
ATOM      1  O   UNL     1      31.900 -25.442 -14.391  0.00  0.00    -0.337 OA
ATOM      2  C   UNL     1      32.579 -24.381 -13.703  0.00  0.00    +0.199 C 
ATOM      3  C   UNL     1      30.487 -25.179 -14.372  0.00  0.00    +0.147 C 
ATOM      4  C   UNL     1      31.573 -23.261 -13.516  0.00  0.00    +0.054 C 
ATOM      5  C   UNL     1      30.276 -24.022 -13.408  0.00  0.00    +0.037 C 
ENDROOT
BRANCH   2   8
ATOM      6  O   UNL     1      32.492 -23.164 -16.262  0.00  0.00    -0.252 OA
ATOM      7  O   UNL     1      37.079 -22.912 -16.454  0.00  0.00    -0.270 OA
ATOM      8  N   UNL     1      33.727 -23.980 -14.460  0.00  0.00    -0.219 N 
ATOM      9  N   UNL     1      34.781 -23.045 -16.345  0.00  0.00    -0.236 N 
ATOM     10  C   UNL     1      34.971 -24.201 -13.905  0.00  0.00    +0.071 C 
ATOM     11  C   UNL     1      33.576 -23.386 -15.720  0.00  0.00    +0.315 C 
ATOM     12  C   UNL     1      36.121 -23.874 -14.507  0.00  0.00    +0.047 C 
ATOM     13  C   UNL     1      36.061 -23.236 -15.849  0.00  0.00    +0.250 C 
ATOM     14  C   UNL     1      37.469 -24.115 -13.903  0.00  0.00    +0.037 C 
ATOM     15  H   UNL     1      34.711 -22.625 -17.233  0.00  0.00    +0.159 HD
ENDBRANCH   2   8
BRANCH   3  16
ATOM     16  C   UNL     1      30.037 -24.863 -15.792  0.00  0.00    +0.183 C 
BRANCH  16  17
ATOM     17  O   UNL     1      28.723 -24.332 -15.752  0.00  0.00    -0.271 OA
BRANCH  17  18
ATOM     18  P   UNL     1      28.429 -22.942 -16.527  0.00  0.00    +0.473 P 
ATOM     19  O   UNL     1      27.693 -21.911 -15.724  0.00  0.00    -0.227 OA
BRANCH  18  20
ATOM     20  O   UNL     1      27.695 -23.410 -17.891  0.00  0.00    -0.303 OA
ATOM     21  H   UNL     1      27.460 -22.629 -18.415  0.00  0.00    +0.222 HD
ENDBRANCH  18  20
BRANCH  18  22
ATOM     22  O   UNL     1      29.899 -22.495 -17.032  0.00  0.00    -0.303 OA
ATOM     23  H   UNL     1      29.827 -22.069 -17.899  0.00  0.00    +0.222 HD
ENDBRANCH  18  22
ENDBRANCH  17  18
ENDBRANCH  16  17
ENDBRANCH   3  16
TORSDOF 6
ENDMDL
MODEL 9
REMARK VINA RESULT:      -7.5      2.722      3.840
REMARK  Name = 165151
REMARK  6 active torsions:
REMARK  status: ('A' for Active; 'I' for Inactive)
REMARK    1  A    between atoms: C_2  and  N_8
REMARK    2  A    between atoms: C_3  and  C_16
REMARK    3  A    between atoms: C_16  and  O_17
REMARK    4  A    between atoms: O_17  and  P_18
REMARK    5  A    between atoms: P_18  and  O_20
REMARK    6  A    between atoms: P_18  and  O_22
REMARK                            x       y       z     vdW  Elec       q    Type
REMARK                         _______ _______ _______ _____ _____    ______ ____
ROOT
ATOM      1  O   UNL     1      36.255 -24.504 -15.730  0.00  0.00    -0.337 OA
ATOM      2  C   UNL     1      35.284 -23.457 -15.869  0.00  0.00    +0.199 C 
ATOM      3  C   UNL     1      37.547 -23.914 -15.507  0.00  0.00    +0.147 C 
ATOM      4  C   UNL     1      35.949 -22.173 -15.410  0.00  0.00    +0.054 C 
ATOM      5  C   UNL     1      37.392 -22.424 -15.770  0.00  0.00    +0.037 C 
ENDROOT
BRANCH   2   8
ATOM      6  O   UNL     1      35.305 -24.738 -13.339  0.00  0.00    -0.252 OA
ATOM      7  O   UNL     1      30.715 -24.633 -13.092  0.00  0.00    -0.270 OA
ATOM      8  N   UNL     1      34.116 -23.785 -15.106  0.00  0.00    -0.219 N 
ATOM      9  N   UNL     1      33.015 -24.680 -13.229  0.00  0.00    -0.236 N 
ATOM     10  C   UNL     1      32.887 -23.453 -15.638  0.00  0.00    +0.071 C 
ATOM     11  C   UNL     1      34.235 -24.420 -13.863  0.00  0.00    +0.315 C 
ATOM     12  C   UNL     1      31.722 -23.704 -15.029  0.00  0.00    +0.047 C 
ATOM     13  C   UNL     1      31.748 -24.375 -13.703  0.00  0.00    +0.250 C 
ATOM     14  C   UNL     1      30.391 -23.344 -15.609  0.00  0.00    +0.037 C 
ATOM     15  H   UNL     1      33.061 -25.126 -12.353  0.00  0.00    +0.159 HD
ENDBRANCH   2   8
BRANCH   3  16
ATOM     16  C   UNL     1      37.980 -24.227 -14.081  0.00  0.00    +0.183 C 
BRANCH  16  17
ATOM     17  O   UNL     1      39.349 -24.597 -14.085  0.00  0.00    -0.271 OA
BRANCH  17  18
ATOM     18  P   UNL     1      39.748 -26.069 -14.626  0.00  0.00    +0.473 P 
ATOM     19  O   UNL     1      38.634 -27.075 -14.608  0.00  0.00    -0.227 OA
BRANCH  18  20
ATOM     20  O   UNL     1      41.048 -26.462 -13.748  0.00  0.00    -0.303 OA
ATOM     21  H   UNL     1      40.784 -27.049 -13.023  0.00  0.00    +0.222 HD
ENDBRANCH  18  20
BRANCH  18  22
ATOM     22  O   UNL     1      40.366 -25.760 -16.088  0.00  0.00    -0.303 OA
ATOM     23  H   UNL     1      40.380 -26.575 -16.612  0.00  0.00    +0.222 HD
ENDBRANCH  18  22
ENDBRANCH  17  18
ENDBRANCH  16  17
ENDBRANCH   3  16
TORSDOF 6
ENDMDL
