MODEL 1
REMARK VINA RESULT:      -9.3      0.000      0.000
REMARK  Name = 448969
REMARK  7 active torsions:
REMARK  status: ('A' for Active; 'I' for Inactive)
REMARK    1  A    between atoms: N_1  and  C_13
REMARK    2  A    between atoms: C_5  and  C_17
REMARK    3  A    between atoms: C_13  and  C_14
REMARK    4  A    between atoms: C_14  and  C_15
REMARK    5  A    between atoms: C_17  and  C_18
REMARK    6  A    between atoms: C_19  and  O_24
REMARK    7  A    between atoms: C_21  and  O_26
REMARK                            x       y       z     vdW  Elec       q    Type
REMARK                         _______ _______ _______ _____ _____    ______ ____
ROOT
ATOM      1  N   UNL     1      32.355 -11.302 -22.717  0.00  0.00    -0.249 N 
ATOM      2  N   UNL     1      33.910 -12.043 -24.110  0.00  0.00    -0.385 NA
ATOM      3  N   UNL     1      32.846  -8.926 -22.739  0.00  0.00    -0.227 NA
ATOM      4  N   UNL     1      34.732  -8.438 -24.209  0.00  0.00    -0.227 NA
ATOM      5  C   UNL     1      32.900 -12.385 -23.336  0.00  0.00    +0.170 C 
ATOM      6  C   UNL     1      33.045 -10.200 -23.107  0.00  0.00    +0.167 C 
ATOM      7  C   UNL     1      34.011 -10.682 -23.976  0.00  0.00    +0.195 C 
ATOM      8  C   UNL     1      34.875  -9.745 -24.535  0.00  0.00    +0.155 C 
ATOM      9  C   UNL     1      33.741  -8.115 -23.344  0.00  0.00    +0.253 C 
ATOM     10  N   UNL     1      35.886 -10.144 -25.427  0.00  0.00    -0.341 N 
ATOM     11  H   UNL     1      36.492  -9.473 -25.818  0.00  0.00    +0.144 HD
ATOM     12  H   UNL     1      35.987 -11.095 -25.663  0.00  0.00    +0.144 HD
ENDROOT
BRANCH   1  13
ATOM     13  C   UNL     1      31.225 -11.316 -21.793  0.00  0.00    +0.099 C 
BRANCH  13  14
ATOM     14  C   UNL     1      31.636 -11.755 -20.389  0.00  0.00    +0.022 C 
BRANCH  14  15
ATOM     15  C   UNL     1      31.153 -10.761 -19.336  0.00  0.00    +0.002 C 
ATOM     16  C   UNL     1      31.866  -9.423 -19.464  0.00  0.00    +0.000 C 
ENDBRANCH  14  15
ENDBRANCH  13  14
ENDBRANCH   1  13
BRANCH   5  17
ATOM     17  C   UNL     1      32.389 -13.756 -23.136  0.00  0.00    +0.105 C 
BRANCH  17  18
ATOM     18  C   UNL     1      33.300 -14.851 -23.671  0.00  0.00    +0.023 C 
ATOM     19  C   UNL     1      33.304 -15.138 -25.021  0.00  0.00    +0.135 C 
ATOM     20  C   UNL     1      34.103 -15.530 -22.775  0.00  0.00    +0.036 C 
ATOM     21  C   UNL     1      34.944 -16.536 -23.251  0.00  0.00    +0.139 C 
ATOM     22  C   UNL     1      34.146 -16.144 -25.497  0.00  0.00    +0.040 C 
ATOM     23  C   UNL     1      34.965 -16.844 -24.611  0.00  0.00    +0.040 C 
BRANCH  19  24
ATOM     24  O   UNL     1      32.510 -14.464 -25.901  0.00  0.00    -0.472 OA
ATOM     25  C   UNL     1      33.154 -13.843 -27.011  0.00  0.00    +0.252 C 
ENDBRANCH  19  24
BRANCH  21  26
ATOM     26  O   UNL     1      35.744 -17.219 -22.387  0.00  0.00    -0.471 OA
ATOM     27  C   UNL     1      35.185 -17.567 -21.121  0.00  0.00    +0.252 C 
ENDBRANCH  21  26
ENDBRANCH  17  18
ENDBRANCH   5  17
TORSDOF 7
ENDMDL
MODEL 2
REMARK VINA RESULT:      -8.8      1.320      2.349
REMARK  Name = 448969
REMARK  7 active torsions:
REMARK  status: ('A' for Active; 'I' for Inactive)
REMARK    1  A    between atoms: N_1  and  C_13
REMARK    2  A    between atoms: C_5  and  C_17
REMARK    3  A    between atoms: C_13  and  C_14
REMARK    4  A    between atoms: C_14  and  C_15
REMARK    5  A    between atoms: C_17  and  C_18
REMARK    6  A    between atoms: C_19  and  O_24
REMARK    7  A    between atoms: C_21  and  O_26
REMARK                            x       y       z     vdW  Elec       q    Type
REMARK                         _______ _______ _______ _____ _____    ______ ____
ROOT
ATOM      1  N   UNL     1      32.310 -11.276 -22.794  0.00  0.00    -0.249 N 
ATOM      2  N   UNL     1      33.844 -12.052 -24.191  0.00  0.00    -0.385 NA
ATOM      3  N   UNL     1      32.889  -8.919 -22.775  0.00  0.00    -0.227 NA
ATOM      4  N   UNL     1      34.799  -8.478 -24.228  0.00  0.00    -0.227 NA
ATOM      5  C   UNL     1      32.819 -12.368 -23.428  0.00  0.00    +0.170 C 
ATOM      6  C   UNL     1      33.042 -10.194 -23.163  0.00  0.00    +0.167 C 
ATOM      7  C   UNL     1      33.995 -10.697 -24.035  0.00  0.00    +0.195 C 
ATOM      8  C   UNL     1      34.895  -9.784 -24.575  0.00  0.00    +0.155 C 
ATOM      9  C   UNL     1      33.816  -8.132 -23.362  0.00  0.00    +0.253 C 
ATOM     10  N   UNL     1      35.896 -10.205 -25.469  0.00  0.00    -0.341 N 
ATOM     11  H   UNL     1      36.528  -9.551 -25.845  0.00  0.00    +0.144 HD
ATOM     12  H   UNL     1      35.963 -11.155 -25.719  0.00  0.00    +0.144 HD
ENDROOT
BRANCH   1  13
ATOM     13  C   UNL     1      31.176 -11.263 -21.876  0.00  0.00    +0.099 C 
BRANCH  13  14
ATOM     14  C   UNL     1      31.597 -11.558 -20.437  0.00  0.00    +0.022 C 
BRANCH  14  15
ATOM     15  C   UNL     1      31.037 -10.515 -19.473  0.00  0.00    +0.002 C 
ATOM     16  C   UNL     1      31.892  -9.258 -19.455  0.00  0.00    +0.000 C 
ENDBRANCH  14  15
ENDBRANCH  13  14
ENDBRANCH   1  13
BRANCH   5  17
ATOM     17  C   UNL     1      32.257 -13.722 -23.253  0.00  0.00    +0.105 C 
BRANCH  17  18
ATOM     18  C   UNL     1      33.298 -14.828 -23.160  0.00  0.00    +0.023 C 
ATOM     19  C   UNL     1      33.899 -15.102 -21.949  0.00  0.00    +0.135 C 
ATOM     20  C   UNL     1      33.611 -15.529 -24.309  0.00  0.00    +0.036 C 
ATOM     21  C   UNL     1      34.563 -16.546 -24.241  0.00  0.00    +0.139 C 
ATOM     22  C   UNL     1      34.852 -16.119 -21.880  0.00  0.00    +0.040 C 
ATOM     23  C   UNL     1      35.184 -16.841 -23.027  0.00  0.00    +0.040 C 
BRANCH  19  24
ATOM     24  O   UNL     1      33.587 -14.407 -20.818  0.00  0.00    -0.472 OA
ATOM     25  C   UNL     1      32.615 -14.985 -19.950  0.00  0.00    +0.252 C 
ENDBRANCH  19  24
BRANCH  21  26
ATOM     26  O   UNL     1      34.888 -17.251 -25.359  0.00  0.00    -0.471 OA
ATOM     27  C   UNL     1      34.519 -18.629 -25.387  0.00  0.00    +0.252 C 
ENDBRANCH  21  26
ENDBRANCH  17  18
ENDBRANCH   5  17
TORSDOF 7
ENDMDL
MODEL 3
REMARK VINA RESULT:      -8.8     10.930     14.296
REMARK  Name = 448969
REMARK  7 active torsions:
REMARK  status: ('A' for Active; 'I' for Inactive)
REMARK    1  A    between atoms: N_1  and  C_13
REMARK    2  A    between atoms: C_5  and  C_17
REMARK    3  A    between atoms: C_13  and  C_14
REMARK    4  A    between atoms: C_14  and  C_15
REMARK    5  A    between atoms: C_17  and  C_18
REMARK    6  A    between atoms: C_19  and  O_24
REMARK    7  A    between atoms: C_21  and  O_26
REMARK                            x       y       z     vdW  Elec       q    Type
REMARK                         _______ _______ _______ _____ _____    ______ ____
ROOT
ATOM      1  N   UNL     1      33.232 -23.486 -16.456  0.00  0.00    -0.249 N 
ATOM      2  N   UNL     1      35.429 -23.212 -16.393  0.00  0.00    -0.385 NA
ATOM      3  N   UNL     1      32.702 -22.306 -18.509  0.00  0.00    -0.227 NA
ATOM      4  N   UNL     1      34.719 -21.393 -19.535  0.00  0.00    -0.227 NA
ATOM      5  C   UNL     1      34.387 -23.734 -15.780  0.00  0.00    +0.170 C 
ATOM      6  C   UNL     1      33.537 -22.765 -17.565  0.00  0.00    +0.167 C 
ATOM      7  C   UNL     1      34.912 -22.604 -17.510  0.00  0.00    +0.195 C 
ATOM      8  C   UNL     1      35.502 -21.887 -18.546  0.00  0.00    +0.155 C 
ATOM      9  C   UNL     1      33.388 -21.630 -19.456  0.00  0.00    +0.253 C 
ATOM     10  N   UNL     1      36.892 -21.674 -18.571  0.00  0.00    -0.341 N 
ATOM     11  H   UNL     1      37.299 -21.165 -19.309  0.00  0.00    +0.144 HD
ATOM     12  H   UNL     1      37.458 -22.034 -17.851  0.00  0.00    +0.144 HD
ENDROOT
BRANCH   1  13
ATOM     13  C   UNL     1      31.894 -23.917 -16.062  0.00  0.00    +0.099 C 
BRANCH  13  14
ATOM     14  C   UNL     1      31.201 -22.893 -15.165  0.00  0.00    +0.022 C 
BRANCH  14  15
ATOM     15  C   UNL     1      30.845 -23.498 -13.809  0.00  0.00    +0.002 C 
ATOM     16  C   UNL     1      30.839 -25.018 -13.861  0.00  0.00    +0.000 C 
ENDBRANCH  14  15
ENDBRANCH  13  14
ENDBRANCH   1  13
BRANCH   5  17
ATOM     17  C   UNL     1      34.421 -24.500 -14.518  0.00  0.00    +0.105 C 
BRANCH  17  18
ATOM     18  C   UNL     1      35.821 -24.792 -13.997  0.00  0.00    +0.023 C 
ATOM     19  C   UNL     1      36.122 -24.548 -12.672  0.00  0.00    +0.135 C 
ATOM     20  C   UNL     1      36.755 -25.298 -14.880  0.00  0.00    +0.036 C 
ATOM     21  C   UNL     1      38.042 -25.572 -14.418  0.00  0.00    +0.139 C 
ATOM     22  C   UNL     1      37.410 -24.821 -12.210  0.00  0.00    +0.040 C 
ATOM     23  C   UNL     1      38.370 -25.333 -13.083  0.00  0.00    +0.040 C 
BRANCH  19  24
ATOM     24  O   UNL     1      35.196 -24.048 -11.805  0.00  0.00    -0.472 OA
ATOM     25  C   UNL     1      35.415 -24.285 -10.417  0.00  0.00    +0.252 C 
ENDBRANCH  19  24
BRANCH  21  26
ATOM     26  O   UNL     1      38.980 -26.071 -15.268  0.00  0.00    -0.471 OA
ATOM     27  C   UNL     1      40.336 -25.693 -15.035  0.00  0.00    +0.252 C 
ENDBRANCH  21  26
ENDBRANCH  17  18
ENDBRANCH   5  17
TORSDOF 7
ENDMDL
MODEL 4
REMARK VINA RESULT:      -8.6      8.609     12.138
REMARK  Name = 448969
REMARK  7 active torsions:
REMARK  status: ('A' for Active; 'I' for Inactive)
REMARK    1  A    between atoms: N_1  and  C_13
REMARK    2  A    between atoms: C_5  and  C_17
REMARK    3  A    between atoms: C_13  and  C_14
REMARK    4  A    between atoms: C_14  and  C_15
REMARK    5  A    between atoms: C_17  and  C_18
REMARK    6  A    between atoms: C_19  and  O_24
REMARK    7  A    between atoms: C_21  and  O_26
REMARK                            x       y       z     vdW  Elec       q    Type
REMARK                         _______ _______ _______ _____ _____    ______ ____
ROOT
ATOM      1  N   UNL     1      35.495 -21.862 -18.588  0.00  0.00    -0.249 N 
ATOM      2  N   UNL     1      33.340 -21.847 -19.099  0.00  0.00    -0.385 NA
ATOM      3  N   UNL     1      36.316 -20.157 -20.108  0.00  0.00    -0.227 NA
ATOM      4  N   UNL     1      34.497 -19.235 -21.448  0.00  0.00    -0.227 NA
ATOM      5  C   UNL     1      34.266 -22.392 -18.339  0.00  0.00    +0.170 C 
ATOM      6  C   UNL     1      35.361 -20.923 -19.559  0.00  0.00    +0.167 C 
ATOM      7  C   UNL     1      34.009 -20.927 -19.865  0.00  0.00    +0.195 C 
ATOM      8  C   UNL     1      33.586 -20.040 -20.850  0.00  0.00    +0.155 C 
ATOM      9  C   UNL     1      35.786 -19.342 -21.046  0.00  0.00    +0.253 C 
ATOM     10  N   UNL     1      32.233 -19.976 -21.226  0.00  0.00    -0.341 N 
ATOM     11  H   UNL     1      31.944 -19.344 -21.924  0.00  0.00    +0.144 HD
ATOM     12  H   UNL     1      31.573 -20.562 -20.789  0.00  0.00    +0.144 HD
ENDROOT
BRANCH   1  13
ATOM     13  C   UNL     1      36.743 -22.233 -17.929  0.00  0.00    +0.099 C 
BRANCH  13  14
ATOM     14  C   UNL     1      37.078 -21.302 -16.765  0.00  0.00    +0.022 C 
BRANCH  14  15
ATOM     15  C   UNL     1      37.092 -22.059 -15.439  0.00  0.00    +0.002 C 
ATOM     16  C   UNL     1      37.566 -23.493 -15.621  0.00  0.00    +0.000 C 
ENDBRANCH  14  15
ENDBRANCH  13  14
ENDBRANCH   1  13
BRANCH   5  17
ATOM     17  C   UNL     1      34.047 -23.450 -17.332  0.00  0.00    +0.105 C 
BRANCH  17  18
ATOM     18  C   UNL     1      32.830 -23.230 -16.444  0.00  0.00    +0.023 C 
ATOM     19  C   UNL     1      32.962 -23.308 -15.072  0.00  0.00    +0.135 C 
ATOM     20  C   UNL     1      31.620 -22.955 -17.050  0.00  0.00    +0.036 C 
ATOM     21  C   UNL     1      30.495 -22.751 -16.250  0.00  0.00    +0.139 C 
ATOM     22  C   UNL     1      31.837 -23.104 -14.272  0.00  0.00    +0.040 C 
ATOM     23  C   UNL     1      30.604 -22.825 -14.861  0.00  0.00    +0.040 C 
BRANCH  19  24
ATOM     24  O   UNL     1      34.159 -23.579 -14.480  0.00  0.00    -0.472 OA
ATOM     25  C   UNL     1      34.121 -24.184 -13.190  0.00  0.00    +0.252 C 
ENDBRANCH  19  24
BRANCH  21  26
ATOM     26  O   UNL     1      29.292 -22.479 -16.824  0.00  0.00    -0.471 OA
ATOM     27  C   UNL     1      28.338 -23.539 -16.865  0.00  0.00    +0.252 C 
ENDBRANCH  21  26
ENDBRANCH  17  18
ENDBRANCH   5  17
TORSDOF 7
ENDMDL
MODEL 5
REMARK VINA RESULT:      -8.4      9.047     12.963
REMARK  Name = 448969
REMARK  7 active torsions:
REMARK  status: ('A' for Active; 'I' for Inactive)
REMARK    1  A    between atoms: N_1  and  C_13
REMARK    2  A    between atoms: C_5  and  C_17
REMARK    3  A    between atoms: C_13  and  C_14
REMARK    4  A    between atoms: C_14  and  C_15
REMARK    5  A    between atoms: C_17  and  C_18
REMARK    6  A    between atoms: C_19  and  O_24
REMARK    7  A    between atoms: C_21  and  O_26
REMARK                            x       y       z     vdW  Elec       q    Type
REMARK                         _______ _______ _______ _____ _____    ______ ____
ROOT
ATOM      1  N   UNL     1      33.493 -23.301 -16.080  0.00  0.00    -0.249 N 
ATOM      2  N   UNL     1      31.984 -23.103 -17.689  0.00  0.00    -0.385 NA
ATOM      3  N   UNL     1      32.081 -23.047 -14.123  0.00  0.00    -0.227 NA
ATOM      4  N   UNL     1      29.752 -22.706 -14.766  0.00  0.00    -0.227 NA
ATOM      5  C   UNL     1      33.259 -23.291 -17.421  0.00  0.00    +0.170 C 
ATOM      6  C   UNL     1      32.310 -23.109 -15.443  0.00  0.00    +0.167 C 
ATOM      7  C   UNL     1      31.379 -22.987 -16.463  0.00  0.00    +0.195 C 
ATOM      8  C   UNL     1      30.057 -22.779 -16.084  0.00  0.00    +0.155 C 
ATOM      9  C   UNL     1      30.768 -22.842 -13.881  0.00  0.00    +0.253 C 
ATOM     10  N   UNL     1      29.046 -22.644 -17.052  0.00  0.00    -0.341 N 
ATOM     11  H   UNL     1      28.113 -22.497 -16.773  0.00  0.00    +0.144 HD
ATOM     12  H   UNL     1      29.270 -22.698 -18.009  0.00  0.00    +0.144 HD
ENDROOT
BRANCH   1  13
ATOM     13  C   UNL     1      34.788 -23.485 -15.433  0.00  0.00    +0.099 C 
BRANCH  13  14
ATOM     14  C   UNL     1      35.071 -24.953 -15.119  0.00  0.00    +0.022 C 
BRANCH  14  15
ATOM     15  C   UNL     1      36.571 -25.216 -15.012  0.00  0.00    +0.002 C 
ATOM     16  C   UNL     1      36.886 -26.700 -15.125  0.00  0.00    +0.000 C 
ENDBRANCH  14  15
ENDBRANCH  13  14
ENDBRANCH   1  13
BRANCH   5  17
ATOM     17  C   UNL     1      34.334 -23.474 -18.417  0.00  0.00    +0.105 C 
BRANCH  17  18
ATOM     18  C   UNL     1      34.821 -22.184 -19.060  0.00  0.00    +0.023 C 
ATOM     19  C   UNL     1      36.071 -21.690 -18.742  0.00  0.00    +0.135 C 
ATOM     20  C   UNL     1      33.985 -21.541 -19.952  0.00  0.00    +0.036 C 
ATOM     21  C   UNL     1      34.417 -20.357 -20.550  0.00  0.00    +0.139 C 
ATOM     22  C   UNL     1      36.503 -20.507 -19.341  0.00  0.00    +0.040 C 
ATOM     23  C   UNL     1      35.676 -19.840 -20.244  0.00  0.00    +0.040 C 
BRANCH  19  24
ATOM     24  O   UNL     1      36.892 -22.329 -17.861  0.00  0.00    -0.472 OA
ATOM     25  C   UNL     1      37.354 -21.576 -16.743  0.00  0.00    +0.252 C 
ENDBRANCH  19  24
BRANCH  21  26
ATOM     26  O   UNL     1      33.611 -19.706 -21.432  0.00  0.00    -0.471 OA
ATOM     27  C   UNL     1      34.243 -19.068 -22.540  0.00  0.00    +0.252 C 
ENDBRANCH  21  26
ENDBRANCH  17  18
ENDBRANCH   5  17
TORSDOF 7
ENDMDL
MODEL 6
REMARK VINA RESULT:      -8.3      2.743      5.965
REMARK  Name = 448969
REMARK  7 active torsions:
REMARK  status: ('A' for Active; 'I' for Inactive)
REMARK    1  A    between atoms: N_1  and  C_13
REMARK    2  A    between atoms: C_5  and  C_17
REMARK    3  A    between atoms: C_13  and  C_14
REMARK    4  A    between atoms: C_14  and  C_15
REMARK    5  A    between atoms: C_17  and  C_18
REMARK    6  A    between atoms: C_19  and  O_24
REMARK    7  A    between atoms: C_21  and  O_26
REMARK                            x       y       z     vdW  Elec       q    Type
REMARK                         _______ _______ _______ _____ _____    ______ ____
ROOT
ATOM      1  N   UNL     1      32.318 -12.906 -21.988  0.00  0.00    -0.249 N 
ATOM      2  N   UNL     1      33.658 -13.430 -23.671  0.00  0.00    -0.385 NA
ATOM      3  N   UNL     1      32.796 -14.733 -20.464  0.00  0.00    -0.227 NA
ATOM      4  N   UNL     1      34.453 -16.252 -21.415  0.00  0.00    -0.227 NA
ATOM      5  C   UNL     1      32.770 -12.566 -23.225  0.00  0.00    +0.170 C 
ATOM      6  C   UNL     1      32.944 -14.049 -21.608  0.00  0.00    +0.167 C 
ATOM      7  C   UNL     1      33.777 -14.362 -22.671  0.00  0.00    +0.195 C 
ATOM      8  C   UNL     1      34.550 -15.511 -22.545  0.00  0.00    +0.155 C 
ATOM      9  C   UNL     1      33.594 -15.823 -20.459  0.00  0.00    +0.253 C 
ATOM     10  N   UNL     1      35.423 -15.905 -23.575  0.00  0.00    -0.341 N 
ATOM     11  H   UNL     1      35.967 -16.720 -23.475  0.00  0.00    +0.144 HD
ATOM     12  H   UNL     1      35.492 -15.364 -24.395  0.00  0.00    +0.144 HD
ENDROOT
BRANCH   1  13
ATOM     13  C   UNL     1      31.332 -12.174 -21.199  0.00  0.00    +0.099 C 
BRANCH  13  14
ATOM     14  C   UNL     1      31.898 -11.711 -19.857  0.00  0.00    +0.022 C 
BRANCH  14  15
ATOM     15  C   UNL     1      31.068 -10.571 -19.272  0.00  0.00    +0.002 C 
ATOM     16  C   UNL     1      31.818  -9.249 -19.330  0.00  0.00    +0.000 C 
ENDBRANCH  14  15
ENDBRANCH  13  14
ENDBRANCH   1  13
BRANCH   5  17
ATOM     17  C   UNL     1      32.295 -11.366 -23.944  0.00  0.00    +0.105 C 
BRANCH  17  18
ATOM     18  C   UNL     1      33.123 -10.114 -23.694  0.00  0.00    +0.023 C 
ATOM     19  C   UNL     1      34.318  -9.940 -24.362  0.00  0.00    +0.135 C 
ATOM     20  C   UNL     1      32.644  -9.182 -22.794  0.00  0.00    +0.036 C 
ATOM     21  C   UNL     1      33.391  -8.029 -22.554  0.00  0.00    +0.139 C 
ATOM     22  C   UNL     1      35.066  -8.787 -24.122  0.00  0.00    +0.040 C 
ATOM     23  C   UNL     1      34.602  -7.832 -23.218  0.00  0.00    +0.040 C 
BRANCH  19  24
ATOM     24  O   UNL     1      34.786 -10.864 -25.249  0.00  0.00    -0.472 OA
ATOM     25  C   UNL     1      35.653 -10.393 -26.277  0.00  0.00    +0.252 C 
ENDBRANCH  19  24
BRANCH  21  26
ATOM     26  O   UNL     1      32.939  -7.096 -21.673  0.00  0.00    -0.471 OA
ATOM     27  C   UNL     1      31.735  -6.410 -22.013  0.00  0.00    +0.252 C 
ENDBRANCH  21  26
ENDBRANCH  17  18
ENDBRANCH   5  17
TORSDOF 7
ENDMDL
MODEL 7
REMARK VINA RESULT:      -8.2      3.013      6.556
REMARK  Name = 448969
REMARK  7 active torsions:
REMARK  status: ('A' for Active; 'I' for Inactive)
REMARK    1  A    between atoms: N_1  and  C_13
REMARK    2  A    between atoms: C_5  and  C_17
REMARK    3  A    between atoms: C_13  and  C_14
REMARK    4  A    between atoms: C_14  and  C_15
REMARK    5  A    between atoms: C_17  and  C_18
REMARK    6  A    between atoms: C_19  and  O_24
REMARK    7  A    between atoms: C_21  and  O_26
REMARK                            x       y       z     vdW  Elec       q    Type
REMARK                         _______ _______ _______ _____ _____    ______ ____
ROOT
ATOM      1  N   UNL     1      33.649 -14.418 -22.555  0.00  0.00    -0.249 N 
ATOM      2  N   UNL     1      32.203 -13.621 -24.031  0.00  0.00    -0.385 NA
ATOM      3  N   UNL     1      34.871 -15.988 -23.945  0.00  0.00    -0.227 NA
ATOM      4  N   UNL     1      34.009 -15.986 -26.228  0.00  0.00    -0.227 NA
ATOM      5  C   UNL     1      32.613 -13.565 -22.781  0.00  0.00    +0.170 C 
ATOM      6  C   UNL     1      33.928 -15.062 -23.717  0.00  0.00    +0.167 C 
ATOM      7  C   UNL     1      33.016 -14.551 -24.627  0.00  0.00    +0.195 C 
ATOM      8  C   UNL     1      33.079 -15.048 -25.925  0.00  0.00    +0.155 C 
ATOM      9  C   UNL     1      34.835 -16.392 -25.234  0.00  0.00    +0.253 C 
ATOM     10  N   UNL     1      32.193 -14.588 -26.914  0.00  0.00    -0.341 N 
ATOM     11  H   UNL     1      32.246 -14.945 -27.830  0.00  0.00    +0.144 HD
ATOM     12  H   UNL     1      31.518 -13.906 -26.692  0.00  0.00    +0.144 HD
ENDROOT
BRANCH   1  13
ATOM     13  C   UNL     1      34.344 -14.613 -21.287  0.00  0.00    +0.099 C 
BRANCH  13  14
ATOM     14  C   UNL     1      33.937 -15.916 -20.601  0.00  0.00    +0.022 C 
BRANCH  14  15
ATOM     15  C   UNL     1      34.992 -17.000 -20.805  0.00  0.00    +0.002 C 
ATOM     16  C   UNL     1      34.365 -18.312 -21.252  0.00  0.00    +0.000 C 
ENDBRANCH  14  15
ENDBRANCH  13  14
ENDBRANCH   1  13
BRANCH   5  17
ATOM     17  C   UNL     1      32.049 -12.702 -21.724  0.00  0.00    +0.105 C 
BRANCH  17  18
ATOM     18  C   UNL     1      32.246 -11.211 -21.957  0.00  0.00    +0.023 C 
ATOM     19  C   UNL     1      31.608 -10.300 -21.139  0.00  0.00    +0.135 C 
ATOM     20  C   UNL     1      33.067 -10.815 -22.995  0.00  0.00    +0.036 C 
ATOM     21  C   UNL     1      33.258  -9.452 -23.222  0.00  0.00    +0.139 C 
ATOM     22  C   UNL     1      31.799  -8.937 -21.367  0.00  0.00    +0.040 C 
ATOM     23  C   UNL     1      32.623  -8.513 -22.408  0.00  0.00    +0.040 C 
BRANCH  19  24
ATOM     24  O   UNL     1      30.799 -10.697 -20.117  0.00  0.00    -0.472 OA
ATOM     25  C   UNL     1      31.352 -10.666 -18.803  0.00  0.00    +0.252 C 
ENDBRANCH  19  24
BRANCH  21  26
ATOM     26  O   UNL     1      34.062  -9.037 -24.238  0.00  0.00    -0.471 OA
ATOM     27  C   UNL     1      35.038  -9.964 -24.714  0.00  0.00    +0.252 C 
ENDBRANCH  21  26
ENDBRANCH  17  18
ENDBRANCH   5  17
TORSDOF 7
ENDMDL
MODEL 8
REMARK VINA RESULT:      -8.2     10.518     13.855
REMARK  Name = 448969
REMARK  7 active torsions:
REMARK  status: ('A' for Active; 'I' for Inactive)
REMARK    1  A    between atoms: N_1  and  C_13
REMARK    2  A    between atoms: C_5  and  C_17
REMARK    3  A    between atoms: C_13  and  C_14
REMARK    4  A    between atoms: C_14  and  C_15
REMARK    5  A    between atoms: C_17  and  C_18
REMARK    6  A    between atoms: C_19  and  O_24
REMARK    7  A    between atoms: C_21  and  O_26
REMARK                            x       y       z     vdW  Elec       q    Type
REMARK                         _______ _______ _______ _____ _____    ______ ____
ROOT
ATOM      1  N   UNL     1      33.189 -23.282 -16.831  0.00  0.00    -0.249 N 
ATOM      2  N   UNL     1      35.397 -23.102 -16.857  0.00  0.00    -0.385 NA
ATOM      3  N   UNL     1      32.624 -21.992 -18.807  0.00  0.00    -0.227 NA
ATOM      4  N   UNL     1      34.632 -21.120 -19.884  0.00  0.00    -0.227 NA
ATOM      5  C   UNL     1      34.361 -23.607 -16.220  0.00  0.00    +0.170 C 
ATOM      6  C   UNL     1      33.477 -22.527 -17.922  0.00  0.00    +0.167 C 
ATOM      7  C   UNL     1      34.859 -22.425 -17.922  0.00  0.00    +0.195 C 
ATOM      8  C   UNL     1      35.435 -21.689 -18.953  0.00  0.00    +0.155 C 
ATOM      9  C   UNL     1      33.296 -21.304 -19.756  0.00  0.00    +0.253 C 
ATOM     10  N   UNL     1      36.830 -21.533 -19.032  0.00  0.00    -0.341 N 
ATOM     11  H   UNL     1      37.226 -21.010 -19.766  0.00  0.00    +0.144 HD
ATOM     12  H   UNL     1      37.410 -21.947 -18.354  0.00  0.00    +0.144 HD
ENDROOT
BRANCH   1  13
ATOM     13  C   UNL     1      31.852 -23.673 -16.396  0.00  0.00    +0.099 C 
BRANCH  13  14
ATOM     14  C   UNL     1      31.372 -22.850 -15.202  0.00  0.00    +0.022 C 
BRANCH  14  15
ATOM     15  C   UNL     1      30.346 -23.622 -14.376  0.00  0.00    +0.002 C 
ATOM     16  C   UNL     1      30.938 -24.904 -13.810  0.00  0.00    +0.000 C 
ENDBRANCH  14  15
ENDBRANCH  13  14
ENDBRANCH   1  13
BRANCH   5  17
ATOM     17  C   UNL     1      34.416 -24.428 -14.993  0.00  0.00    +0.105 C 
BRANCH  17  18
ATOM     18  C   UNL     1      35.823 -24.702 -14.483  0.00  0.00    +0.023 C 
ATOM     19  C   UNL     1      36.531 -25.781 -14.973  0.00  0.00    +0.135 C 
ATOM     20  C   UNL     1      36.351 -23.851 -13.532  0.00  0.00    +0.036 C 
ATOM     21  C   UNL     1      37.640 -24.088 -13.054  0.00  0.00    +0.139 C 
ATOM     22  C   UNL     1      37.820 -26.018 -14.495  0.00  0.00    +0.040 C 
ATOM     23  C   UNL     1      38.374 -25.172 -13.535  0.00  0.00    +0.040 C 
BRANCH  19  24
ATOM     24  O   UNL     1      36.005 -26.618 -15.912  0.00  0.00    -0.472 OA
ATOM     25  C   UNL     1      36.834 -27.684 -16.367  0.00  0.00    +0.252 C 
ENDBRANCH  19  24
BRANCH  21  26
ATOM     26  O   UNL     1      38.181 -23.262 -12.117  0.00  0.00    -0.471 OA
ATOM     27  C   UNL     1      37.285 -22.670 -11.178  0.00  0.00    +0.252 C 
ENDBRANCH  21  26
ENDBRANCH  17  18
ENDBRANCH   5  17
TORSDOF 7
ENDMDL
MODEL 9
REMARK VINA RESULT:      -8.1     10.106     13.210
REMARK  Name = 448969
REMARK  7 active torsions:
REMARK  status: ('A' for Active; 'I' for Inactive)
REMARK    1  A    between atoms: N_1  and  C_13
REMARK    2  A    between atoms: C_5  and  C_17
REMARK    3  A    between atoms: C_13  and  C_14
REMARK    4  A    between atoms: C_14  and  C_15
REMARK    5  A    between atoms: C_17  and  C_18
REMARK    6  A    between atoms: C_19  and  O_24
REMARK    7  A    between atoms: C_21  and  O_26
REMARK                            x       y       z     vdW  Elec       q    Type
REMARK                         _______ _______ _______ _____ _____    ______ ____
ROOT
ATOM      1  N   UNL     1      33.989 -23.260 -16.985  0.00  0.00    -0.249 N 
ATOM      2  N   UNL     1      32.276 -22.515 -18.175  0.00  0.00    -0.385 NA
ATOM      3  N   UNL     1      35.830 -22.196 -18.156  0.00  0.00    -0.227 NA
ATOM      4  N   UNL     1      35.016 -20.850 -20.022  0.00  0.00    -0.227 NA
ATOM      5  C   UNL     1      32.639 -23.260 -17.152  0.00  0.00    +0.170 C 
ATOM      6  C   UNL     1      34.534 -22.474 -17.949  0.00  0.00    +0.167 C 
ATOM      7  C   UNL     1      33.450 -22.018 -18.682  0.00  0.00    +0.195 C 
ATOM      8  C   UNL     1      33.728 -21.175 -19.754  0.00  0.00    +0.155 C 
ATOM      9  C   UNL     1      35.972 -21.373 -19.218  0.00  0.00    +0.253 C 
ATOM     10  N   UNL     1      32.690 -20.665 -20.553  0.00  0.00    -0.341 N 
ATOM     11  H   UNL     1      32.897 -20.069 -21.309  0.00  0.00    +0.144 HD
ATOM     12  H   UNL     1      31.755 -20.902 -20.356  0.00  0.00    +0.144 HD
ENDROOT
BRANCH   1  13
ATOM     13  C   UNL     1      34.730 -23.977 -15.952  0.00  0.00    +0.099 C 
BRANCH  13  14
ATOM     14  C   UNL     1      34.827 -23.177 -14.654  0.00  0.00    +0.022 C 
BRANCH  14  15
ATOM     15  C   UNL     1      34.447 -24.034 -13.448  0.00  0.00    +0.002 C 
ATOM     16  C   UNL     1      35.527 -23.999 -12.378  0.00  0.00    +0.000 C 
ENDBRANCH  14  15
ENDBRANCH  13  14
ENDBRANCH   1  13
BRANCH   5  17
ATOM     17  C   UNL     1      31.729 -24.019 -16.270  0.00  0.00    +0.105 C 
BRANCH  17  18
ATOM     18  C   UNL     1      30.361 -23.381 -16.079  0.00  0.00    +0.023 C 
ATOM     19  C   UNL     1      30.038 -22.805 -14.867  0.00  0.00    +0.135 C 
ATOM     20  C   UNL     1      29.477 -23.401 -17.140  0.00  0.00    +0.036 C 
ATOM     21  C   UNL     1      28.218 -22.820 -16.981  0.00  0.00    +0.139 C 
ATOM     22  C   UNL     1      28.779 -22.224 -14.708  0.00  0.00    +0.040 C 
ATOM     23  C   UNL     1      27.870 -22.232 -15.765  0.00  0.00    +0.040 C 
BRANCH  19  24
ATOM     24  O   UNL     1      30.915 -22.789 -13.823  0.00  0.00    -0.472 OA
ATOM     25  C   UNL     1      30.801 -23.837 -12.865  0.00  0.00    +0.252 C 
ENDBRANCH  19  24
BRANCH  21  26
ATOM     26  O   UNL     1      27.330 -22.827 -18.012  0.00  0.00    -0.471 OA
ATOM     27  C   UNL     1      26.441 -21.715 -18.110  0.00  0.00    +0.252 C 
ENDBRANCH  21  26
ENDBRANCH  17  18
ENDBRANCH   5  17
TORSDOF 7
ENDMDL
