MODEL 1
REMARK VINA RESULT:      -6.9      0.000      0.000
REMARK  Name = 62258
REMARK  3 active torsions:
REMARK  status: ('A' for Active; 'I' for Inactive)
REMARK    1  A    between atoms: C_2  and  C_3
REMARK    2  A    between atoms: C_2  and  C_9
REMARK    3  A    between atoms: C_9  and  N_11
REMARK                            x       y       z     vdW  Elec       q    Type
REMARK                         _______ _______ _______ _____ _____    ______ ____
ROOT
ATOM      1  O   UNL     1      36.843 -18.562 -21.663  0.00  0.00    -0.294 OA
ATOM      2  C   UNL     1      35.628 -18.792 -21.848  0.00  0.00    +0.153 C 
ENDROOT
BRANCH   2   3
ATOM      3  C   UNL     1      34.925 -19.736 -20.995  0.00  0.00    +0.033 C 
ATOM      4  C   UNL     1      33.540 -19.652 -20.858  0.00  0.00    +0.003 C 
ATOM      5  C   UNL     1      35.635 -20.724 -20.313  0.00  0.00    +0.003 C 
ATOM      6  C   UNL     1      32.864 -20.558 -20.039  0.00  0.00    +0.000 C 
ATOM      7  C   UNL     1      34.959 -21.629 -19.495  0.00  0.00    +0.000 C 
ATOM      8  C   UNL     1      33.573 -21.546 -19.357  0.00  0.00    +0.000 C 
ENDBRANCH   2   3
BRANCH   2   9
ATOM      9  C   UNL     1      34.898 -18.075 -23.004  0.00  0.00    -0.002 C 
ATOM     10  C   UNL     1      34.778 -18.999 -24.209  0.00  0.00    -0.016 C 
BRANCH   9  11
ATOM     11  N   UNL     1      35.670 -16.886 -23.373  0.00  0.00    +0.386 N 
ATOM     12  H   UNL     1      36.501 -17.167 -23.891  0.00  0.00    -0.089 HD
ATOM     13  H   UNL     1      35.949 -16.387 -22.528  0.00  0.00    -0.089 HD
ATOM     14  H   UNL     1      35.096 -16.275 -23.955  0.00  0.00    -0.089 HD
ENDBRANCH   9  11
ENDBRANCH   2   9
TORSDOF 3
ENDMDL
MODEL 2
REMARK VINA RESULT:      -6.9      0.063      1.458
REMARK  Name = 62258
REMARK  3 active torsions:
REMARK  status: ('A' for Active; 'I' for Inactive)
REMARK    1  A    between atoms: C_2  and  C_3
REMARK    2  A    between atoms: C_2  and  C_9
REMARK    3  A    between atoms: C_9  and  N_11
REMARK                            x       y       z     vdW  Elec       q    Type
REMARK                         _______ _______ _______ _____ _____    ______ ____
ROOT
ATOM      1  O   UNL     1      36.853 -18.609 -21.618  0.00  0.00    -0.294 OA
ATOM      2  C   UNL     1      35.635 -18.823 -21.799  0.00  0.00    +0.153 C 
ENDROOT
BRANCH   2   3
ATOM      3  C   UNL     1      34.926 -19.771 -20.956  0.00  0.00    +0.033 C 
ATOM      4  C   UNL     1      35.632 -20.772 -20.289  0.00  0.00    +0.003 C 
ATOM      5  C   UNL     1      33.542 -19.682 -20.816  0.00  0.00    +0.003 C 
ATOM      6  C   UNL     1      34.953 -21.683 -19.479  0.00  0.00    +0.000 C 
ATOM      7  C   UNL     1      32.863 -20.593 -20.007  0.00  0.00    +0.000 C 
ATOM      8  C   UNL     1      33.568 -21.594 -19.338  0.00  0.00    +0.000 C 
ENDBRANCH   2   3
BRANCH   2   9
ATOM      9  C   UNL     1      34.906 -18.079 -22.940  0.00  0.00    -0.002 C 
ATOM     10  C   UNL     1      34.809 -18.967 -24.173  0.00  0.00    -0.016 C 
BRANCH   9  11
ATOM     11  N   UNL     1      35.666 -16.870 -23.264  0.00  0.00    +0.386 N 
ATOM     12  H   UNL     1      36.471 -16.797 -22.643  0.00  0.00    -0.089 HD
ATOM     13  H   UNL     1      35.069 -16.051 -23.145  0.00  0.00    -0.089 HD
ATOM     14  H   UNL     1      35.986 -16.918 -24.232  0.00  0.00    -0.089 HD
ENDBRANCH   9  11
ENDBRANCH   2   9
TORSDOF 3
ENDMDL
MODEL 3
REMARK VINA RESULT:      -6.6      2.006      4.502
REMARK  Name = 62258
REMARK  3 active torsions:
REMARK  status: ('A' for Active; 'I' for Inactive)
REMARK    1  A    between atoms: C_2  and  C_3
REMARK    2  A    between atoms: C_2  and  C_9
REMARK    3  A    between atoms: C_9  and  N_11
REMARK                            x       y       z     vdW  Elec       q    Type
REMARK                         _______ _______ _______ _____ _____    ______ ____
ROOT
ATOM      1  O   UNL     1      36.005 -18.378 -20.512  0.00  0.00    -0.294 OA
ATOM      2  C   UNL     1      35.204 -18.883 -21.328  0.00  0.00    +0.153 C 
ENDROOT
BRANCH   2   3
ATOM      3  C   UNL     1      34.981 -18.252 -22.618  0.00  0.00    +0.033 C 
ATOM      4  C   UNL     1      35.045 -16.864 -22.735  0.00  0.00    +0.003 C 
ATOM      5  C   UNL     1      34.701 -19.034 -23.739  0.00  0.00    +0.003 C 
ATOM      6  C   UNL     1      34.831 -16.257 -23.973  0.00  0.00    +0.000 C 
ATOM      7  C   UNL     1      34.487 -18.427 -24.976  0.00  0.00    +0.000 C 
ATOM      8  C   UNL     1      34.551 -17.039 -25.094  0.00  0.00    +0.000 C 
ENDBRANCH   2   3
BRANCH   2   9
ATOM      9  C   UNL     1      34.448 -20.171 -20.935  0.00  0.00    -0.002 C 
ATOM     10  C   UNL     1      32.992 -19.854 -20.618  0.00  0.00    -0.016 C 
BRANCH   9  11
ATOM     11  N   UNL     1      35.094 -20.746 -19.753  0.00  0.00    +0.386 N 
ATOM     12  H   UNL     1      35.804 -21.416 -20.045  0.00  0.00    -0.089 HD
ATOM     13  H   UNL     1      34.395 -21.219 -19.180  0.00  0.00    -0.089 HD
ATOM     14  H   UNL     1      35.531 -20.001 -19.209  0.00  0.00    -0.089 HD
ENDBRANCH   9  11
ENDBRANCH   2   9
TORSDOF 3
ENDMDL
MODEL 4
REMARK VINA RESULT:      -6.5      1.487      2.227
REMARK  Name = 62258
REMARK  3 active torsions:
REMARK  status: ('A' for Active; 'I' for Inactive)
REMARK    1  A    between atoms: C_2  and  C_3
REMARK    2  A    between atoms: C_2  and  C_9
REMARK    3  A    between atoms: C_9  and  N_11
REMARK                            x       y       z     vdW  Elec       q    Type
REMARK                         _______ _______ _______ _____ _____    ______ ____
ROOT
ATOM      1  O   UNL     1      35.626 -18.238 -23.264  0.00  0.00    -0.294 OA
ATOM      2  C   UNL     1      34.920 -18.054 -22.249  0.00  0.00    +0.153 C 
ENDROOT
BRANCH   2   3
ATOM      3  C   UNL     1      34.643 -19.157 -21.343  0.00  0.00    +0.033 C 
ATOM      4  C   UNL     1      35.695 -19.896 -20.802  0.00  0.00    +0.003 C 
ATOM      5  C   UNL     1      33.325 -19.476 -21.015  0.00  0.00    +0.003 C 
ATOM      6  C   UNL     1      35.429 -20.954 -19.933  0.00  0.00    +0.000 C 
ATOM      7  C   UNL     1      33.060 -20.534 -20.146  0.00  0.00    +0.000 C 
ATOM      8  C   UNL     1      34.112 -21.274 -19.604  0.00  0.00    +0.000 C 
ENDBRANCH   2   3
BRANCH   2   9
ATOM      9  C   UNL     1      34.337 -16.648 -21.987  0.00  0.00    -0.002 C 
ATOM     10  C   UNL     1      34.786 -15.679 -23.073  0.00  0.00    -0.016 C 
BRANCH   9  11
ATOM     11  N   UNL     1      34.817 -16.184 -20.684  0.00  0.00    +0.386 N 
ATOM     12  H   UNL     1      34.094 -15.622 -20.236  0.00  0.00    -0.089 HD
ATOM     13  H   UNL     1      35.656 -15.618 -20.813  0.00  0.00    -0.089 HD
ATOM     14  H   UNL     1      35.037 -16.988 -20.096  0.00  0.00    -0.089 HD
ENDBRANCH   9  11
ENDBRANCH   2   9
TORSDOF 3
ENDMDL
MODEL 5
REMARK VINA RESULT:      -6.3      3.884      5.722
REMARK  Name = 62258
REMARK  3 active torsions:
REMARK  status: ('A' for Active; 'I' for Inactive)
REMARK    1  A    between atoms: C_2  and  C_3
REMARK    2  A    between atoms: C_2  and  C_9
REMARK    3  A    between atoms: C_9  and  N_11
REMARK                            x       y       z     vdW  Elec       q    Type
REMARK                         _______ _______ _______ _____ _____    ______ ____
ROOT
ATOM      1  O   UNL     1      33.858 -24.040 -19.123  0.00  0.00    -0.294 OA
ATOM      2  C   UNL     1      33.821 -22.901 -18.611  0.00  0.00    +0.153 C 
ENDROOT
BRANCH   2   3
ATOM      3  C   UNL     1      34.124 -21.728 -19.414  0.00  0.00    +0.033 C 
ATOM      4  C   UNL     1      35.450 -21.399 -19.694  0.00  0.00    +0.003 C 
ATOM      5  C   UNL     1      33.090 -20.931 -19.905  0.00  0.00    +0.003 C 
ATOM      6  C   UNL     1      35.743 -20.274 -20.465  0.00  0.00    +0.000 C 
ATOM      7  C   UNL     1      33.382 -19.806 -20.676  0.00  0.00    +0.000 C 
ATOM      8  C   UNL     1      34.709 -19.477 -20.956  0.00  0.00    +0.000 C 
ENDBRANCH   2   3
BRANCH   2   9
ATOM      9  C   UNL     1      33.468 -22.764 -17.113  0.00  0.00    -0.002 C 
ATOM     10  C   UNL     1      34.493 -23.499 -16.259  0.00  0.00    -0.016 C 
BRANCH   9  11
ATOM     11  N   UNL     1      32.141 -23.344 -16.896  0.00  0.00    +0.386 N 
ATOM     12  H   UNL     1      32.106 -24.277 -17.306  0.00  0.00    -0.089 HD
ATOM     13  H   UNL     1      31.436 -22.754 -17.335  0.00  0.00    -0.089 HD
ATOM     14  H   UNL     1      31.957 -23.406 -15.894  0.00  0.00    -0.089 HD
ENDBRANCH   9  11
ENDBRANCH   2   9
TORSDOF 3
ENDMDL
MODEL 6
REMARK VINA RESULT:      -6.2      2.203      4.421
REMARK  Name = 62258
REMARK  3 active torsions:
REMARK  status: ('A' for Active; 'I' for Inactive)
REMARK    1  A    between atoms: C_2  and  C_3
REMARK    2  A    between atoms: C_2  and  C_9
REMARK    3  A    between atoms: C_9  and  N_11
REMARK                            x       y       z     vdW  Elec       q    Type
REMARK                         _______ _______ _______ _____ _____    ______ ____
ROOT
ATOM      1  O   UNL     1      33.230 -20.155 -20.212  0.00  0.00    -0.294 OA
ATOM      2  C   UNL     1      34.371 -19.982 -20.692  0.00  0.00    +0.153 C 
ENDROOT
BRANCH   2   3
ATOM      3  C   UNL     1      34.601 -18.929 -21.668  0.00  0.00    +0.033 C 
ATOM      4  C   UNL     1      34.827 -19.256 -23.005  0.00  0.00    +0.003 C 
ATOM      5  C   UNL     1      34.598 -17.593 -21.268  0.00  0.00    +0.003 C 
ATOM      6  C   UNL     1      35.048 -18.246 -23.942  0.00  0.00    +0.000 C 
ATOM      7  C   UNL     1      34.818 -16.584 -22.205  0.00  0.00    +0.000 C 
ATOM      8  C   UNL     1      35.044 -16.910 -23.542  0.00  0.00    +0.000 C 
ENDBRANCH   2   3
BRANCH   2   9
ATOM      9  C   UNL     1      35.520 -20.914 -20.248  0.00  0.00    -0.002 C 
ATOM     10  C   UNL     1      35.039 -21.864 -19.158  0.00  0.00    -0.016 C 
BRANCH   9  11
ATOM     11  N   UNL     1      36.613 -20.088 -19.732  0.00  0.00    +0.386 N 
ATOM     12  H   UNL     1      36.665 -19.221 -20.266  0.00  0.00    -0.089 HD
ATOM     13  H   UNL     1      37.493 -20.595 -19.820  0.00  0.00    -0.089 HD
ATOM     14  H   UNL     1      36.442 -19.873 -18.749  0.00  0.00    -0.089 HD
ENDBRANCH   9  11
ENDBRANCH   2   9
TORSDOF 3
ENDMDL
MODEL 7
REMARK VINA RESULT:      -6.2      3.369      5.421
REMARK  Name = 62258
REMARK  3 active torsions:
REMARK  status: ('A' for Active; 'I' for Inactive)
REMARK    1  A    between atoms: C_2  and  C_3
REMARK    2  A    between atoms: C_2  and  C_9
REMARK    3  A    between atoms: C_9  and  N_11
REMARK                            x       y       z     vdW  Elec       q    Type
REMARK                         _______ _______ _______ _____ _____    ______ ____
ROOT
ATOM      1  O   UNL     1      35.296 -16.753 -20.372  0.00  0.00    -0.294 OA
ATOM      2  C   UNL     1      34.779 -16.710 -21.509  0.00  0.00    +0.153 C 
ENDROOT
BRANCH   2   3
ATOM      3  C   UNL     1      34.077 -15.515 -21.948  0.00  0.00    +0.033 C 
ATOM      4  C   UNL     1      34.449 -14.885 -23.136  0.00  0.00    +0.003 C 
ATOM      5  C   UNL     1      33.033 -14.997 -21.181  0.00  0.00    +0.003 C 
ATOM      6  C   UNL     1      33.776 -13.738 -23.557  0.00  0.00    +0.000 C 
ATOM      7  C   UNL     1      32.361 -13.850 -21.603  0.00  0.00    +0.000 C 
ATOM      8  C   UNL     1      32.732 -13.220 -22.791  0.00  0.00    +0.000 C 
ENDBRANCH   2   3
BRANCH   2   9
ATOM      9  C   UNL     1      34.881 -17.949 -22.426  0.00  0.00    -0.002 C 
ATOM     10  C   UNL     1      34.441 -19.200 -21.677  0.00  0.00    -0.016 C 
BRANCH   9  11
ATOM     11  N   UNL     1      36.275 -18.096 -22.851  0.00  0.00    +0.386 N 
ATOM     12  H   UNL     1      36.497 -19.085 -22.954  0.00  0.00    -0.089 HD
ATOM     13  H   UNL     1      36.889 -17.681 -22.151  0.00  0.00    -0.089 HD
ATOM     14  H   UNL     1      36.410 -17.622 -23.745  0.00  0.00    -0.089 HD
ENDBRANCH   9  11
ENDBRANCH   2   9
TORSDOF 3
ENDMDL
MODEL 8
REMARK VINA RESULT:      -6.1      4.132      5.412
REMARK  Name = 62258
REMARK  3 active torsions:
REMARK  status: ('A' for Active; 'I' for Inactive)
REMARK    1  A    between atoms: C_2  and  C_3
REMARK    2  A    between atoms: C_2  and  C_9
REMARK    3  A    between atoms: C_9  and  N_11
REMARK                            x       y       z     vdW  Elec       q    Type
REMARK                         _______ _______ _______ _____ _____    ______ ____
ROOT
ATOM      1  O   UNL     1      33.031 -14.502 -25.435  0.00  0.00    -0.294 OA
ATOM      2  C   UNL     1      33.649 -14.719 -24.371  0.00  0.00    +0.153 C 
ENDROOT
BRANCH   2   3
ATOM      3  C   UNL     1      34.235 -16.025 -24.120  0.00  0.00    +0.033 C 
ATOM      4  C   UNL     1      34.154 -17.023 -25.091  0.00  0.00    +0.003 C 
ATOM      5  C   UNL     1      34.878 -16.282 -22.909  0.00  0.00    +0.003 C 
ATOM      6  C   UNL     1      34.717 -18.277 -24.851  0.00  0.00    +0.000 C 
ATOM      7  C   UNL     1      35.440 -17.535 -22.669  0.00  0.00    +0.000 C 
ATOM      8  C   UNL     1      35.359 -18.534 -23.640  0.00  0.00    +0.000 C 
ENDBRANCH   2   3
BRANCH   2   9
ATOM      9  C   UNL     1      33.761 -13.587 -23.326  0.00  0.00    -0.002 C 
ATOM     10  C   UNL     1      32.437 -13.408 -22.596  0.00  0.00    -0.016 C 
BRANCH   9  11
ATOM     11  N   UNL     1      34.110 -12.347 -24.022  0.00  0.00    +0.386 N 
ATOM     12  H   UNL     1      34.340 -11.626 -23.339  0.00  0.00    -0.089 HD
ATOM     13  H   UNL     1      33.318 -12.040 -24.587  0.00  0.00    -0.089 HD
ATOM     14  H   UNL     1      34.915 -12.511 -24.628  0.00  0.00    -0.089 HD
ENDBRANCH   9  11
ENDBRANCH   2   9
TORSDOF 3
ENDMDL
MODEL 9
REMARK VINA RESULT:      -6.0     10.127     11.203
REMARK  Name = 62258
REMARK  3 active torsions:
REMARK  status: ('A' for Active; 'I' for Inactive)
REMARK    1  A    between atoms: C_2  and  C_3
REMARK    2  A    between atoms: C_2  and  C_9
REMARK    3  A    between atoms: C_9  and  N_11
REMARK                            x       y       z     vdW  Elec       q    Type
REMARK                         _______ _______ _______ _____ _____    ______ ____
ROOT
ATOM      1  O   UNL     1      32.835  -7.182 -19.643  0.00  0.00    -0.294 OA
ATOM      2  C   UNL     1      32.344  -7.739 -20.648  0.00  0.00    +0.153 C 
ENDROOT
BRANCH   2   3
ATOM      3  C   UNL     1      31.988  -9.148 -20.603  0.00  0.00    +0.033 C 
ATOM      4  C   UNL     1      31.715  -9.835 -21.785  0.00  0.00    +0.003 C 
ATOM      5  C   UNL     1      31.919  -9.812 -19.378  0.00  0.00    +0.003 C 
ATOM      6  C   UNL     1      31.373 -11.188 -21.743  0.00  0.00    +0.000 C 
ATOM      7  C   UNL     1      31.577 -11.163 -19.336  0.00  0.00    +0.000 C 
ATOM      8  C   UNL     1      31.304 -11.851 -20.518  0.00  0.00    +0.000 C 
ENDBRANCH   2   3
BRANCH   2   9
ATOM      9  C   UNL     1      32.141  -6.912 -21.937  0.00  0.00    -0.002 C 
ATOM     10  C   UNL     1      33.362  -7.031 -22.840  0.00  0.00    -0.016 C 
BRANCH   9  11
ATOM     11  N   UNL     1      31.942  -5.511 -21.562  0.00  0.00    +0.386 N 
ATOM     12  H   UNL     1      32.845  -5.078 -21.373  0.00  0.00    -0.089 HD
ATOM     13  H   UNL     1      31.360  -5.463 -20.726  0.00  0.00    -0.089 HD
ATOM     14  H   UNL     1      31.480  -5.016 -22.326  0.00  0.00    -0.089 HD
ENDBRANCH   9  11
ENDBRANCH   2   9
TORSDOF 3
ENDMDL
