MODEL 1
REMARK VINA RESULT:      -7.6      0.000      0.000
REMARK  Name = 4908
REMARK  7 active torsions:
REMARK  status: ('A' for Active; 'I' for Inactive)
REMARK    1  A    between atoms: C_2  and  N_13
REMARK    2  A    between atoms: C_6  and  O_11
REMARK    3  A    between atoms: N_13  and  C_15
REMARK    4  A    between atoms: C_15  and  C_17
REMARK    5  A    between atoms: C_17  and  C_18
REMARK    6  A    between atoms: C_18  and  C_19
REMARK    7  A    between atoms: C_19  and  N_20
REMARK                            x       y       z     vdW  Elec       q    Type
REMARK                         _______ _______ _______ _____ _____    ______ ____
ROOT
ATOM      1  N   UNL     1      34.187 -22.848 -17.650  0.00  0.00    -0.247 NA
ATOM      2  C   UNL     1      34.682 -23.509 -15.425  0.00  0.00    +0.120 C 
ATOM      3  C   UNL     1      35.070 -22.899 -16.635  0.00  0.00    +0.074 C 
ATOM      4  C   UNL     1      35.603 -23.565 -14.354  0.00  0.00    +0.028 C 
ATOM      5  C   UNL     1      36.369 -22.358 -16.749  0.00  0.00    +0.001 C 
ATOM      6  C   UNL     1      36.880 -23.031 -14.474  0.00  0.00    +0.118 C 
ATOM      7  C   UNL     1      37.264 -22.428 -15.669  0.00  0.00    +0.091 C 
ATOM      8  C   UNL     1      36.728 -21.758 -17.963  0.00  0.00    -0.001 C 
ATOM      9  C   UNL     1      35.821 -21.705 -19.012  0.00  0.00    +0.020 C 
ATOM     10  C   UNL     1      34.574 -22.260 -18.806  0.00  0.00    +0.098 C 
ENDROOT
BRANCH   6  11
ATOM     11  O   UNL     1      37.750 -23.095 -13.431  0.00  0.00    -0.476 OA
ATOM     12  C   UNL     1      37.192 -23.099 -12.117  0.00  0.00    +0.252 C 
ENDBRANCH   6  11
BRANCH   2  13
ATOM     13  N   UNL     1      33.421 -24.053 -15.265  0.00  0.00    -0.291 NA
ATOM     14  H   UNL     1      33.080 -24.656 -15.966  0.00  0.00    +0.124 HD
BRANCH  13  15
ATOM     15  C   UNL     1      32.571 -23.786 -14.122  0.00  0.00    +0.054 C 
ATOM     16  C   UNL     1      31.855 -25.075 -13.736  0.00  0.00    +0.017 C 
BRANCH  15  17
ATOM     17  C   UNL     1      31.563 -22.677 -14.456  0.00  0.00    +0.014 C 
BRANCH  17  18
ATOM     18  C   UNL     1      30.206 -23.232 -14.902  0.00  0.00    -0.023 C 
BRANCH  18  19
ATOM     19  C   UNL     1      29.918 -22.876 -16.361  0.00  0.00    -0.086 C 
BRANCH  19  20
ATOM     20  N   UNL     1      31.163 -22.643 -17.081  0.00  0.00    +0.380 N 
ATOM     21  H   UNL     1      31.331 -23.413 -17.728  0.00  0.00    -0.089 HD
ATOM     22  H   UNL     1      31.934 -22.583 -16.416  0.00  0.00    -0.089 HD
ATOM     23  H   UNL     1      31.096 -21.769 -17.603  0.00  0.00    -0.089 HD
ENDBRANCH  19  20
ENDBRANCH  18  19
ENDBRANCH  17  18
ENDBRANCH  15  17
ENDBRANCH  13  15
ENDBRANCH   2  13
TORSDOF 7
ENDMDL
MODEL 2
REMARK VINA RESULT:      -7.6      8.141     11.013
REMARK  Name = 4908
REMARK  7 active torsions:
REMARK  status: ('A' for Active; 'I' for Inactive)
REMARK    1  A    between atoms: C_2  and  N_13
REMARK    2  A    between atoms: C_6  and  O_11
REMARK    3  A    between atoms: N_13  and  C_15
REMARK    4  A    between atoms: C_15  and  C_17
REMARK    5  A    between atoms: C_17  and  C_18
REMARK    6  A    between atoms: C_18  and  C_19
REMARK    7  A    between atoms: C_19  and  N_20
REMARK                            x       y       z     vdW  Elec       q    Type
REMARK                         _______ _______ _______ _____ _____    ______ ____
ROOT
ATOM      1  N   UNL     1      34.369 -15.942 -21.437  0.00  0.00    -0.247 NA
ATOM      2  C   UNL     1      34.778 -16.521 -23.702  0.00  0.00    +0.120 C 
ATOM      3  C   UNL     1      34.138 -15.711 -22.743  0.00  0.00    +0.074 C 
ATOM      4  C   UNL     1      34.539 -16.284 -25.075  0.00  0.00    +0.028 C 
ATOM      5  C   UNL     1      33.273 -14.682 -23.175  0.00  0.00    +0.001 C 
ATOM      6  C   UNL     1      33.687 -15.269 -25.493  0.00  0.00    +0.118 C 
ATOM      7  C   UNL     1      33.054 -14.469 -24.546  0.00  0.00    +0.091 C 
ATOM      8  C   UNL     1      32.649 -13.893 -22.200  0.00  0.00    -0.001 C 
ATOM      9  C   UNL     1      32.885 -14.129 -20.854  0.00  0.00    +0.020 C 
ATOM     10  C   UNL     1      33.747 -15.157 -20.528  0.00  0.00    +0.098 C 
ENDROOT
BRANCH   6  11
ATOM     11  O   UNL     1      33.473 -15.059 -26.819  0.00  0.00    -0.476 OA
ATOM     12  C   UNL     1      33.289 -13.708 -27.242  0.00  0.00    +0.252 C 
ENDBRANCH   6  11
BRANCH   2  13
ATOM     13  N   UNL     1      35.633 -17.541 -23.327  0.00  0.00    -0.291 NA
ATOM     14  H   UNL     1      36.554 -17.306 -23.068  0.00  0.00    +0.124 HD
BRANCH  13  15
ATOM     15  C   UNL     1      35.249 -18.938 -23.295  0.00  0.00    +0.054 C 
ATOM     16  C   UNL     1      34.582 -19.289 -24.620  0.00  0.00    +0.017 C 
BRANCH  15  17
ATOM     17  C   UNL     1      34.302 -19.202 -22.117  0.00  0.00    +0.014 C 
BRANCH  17  18
ATOM     18  C   UNL     1      35.008 -19.878 -20.936  0.00  0.00    -0.023 C 
BRANCH  18  19
ATOM     19  C   UNL     1      34.026 -20.712 -20.112  0.00  0.00    -0.086 C 
BRANCH  19  20
ATOM     20  N   UNL     1      32.661 -20.493 -20.575  0.00  0.00    +0.380 N 
ATOM     21  H   UNL     1      32.664 -19.799 -21.323  0.00  0.00    -0.089 HD
ATOM     22  H   UNL     1      32.089 -20.156 -19.801  0.00  0.00    -0.089 HD
ATOM     23  H   UNL     1      32.276 -21.370 -20.926  0.00  0.00    -0.089 HD
ENDBRANCH  19  20
ENDBRANCH  18  19
ENDBRANCH  17  18
ENDBRANCH  15  17
ENDBRANCH  13  15
ENDBRANCH   2  13
TORSDOF 7
ENDMDL
MODEL 3
REMARK VINA RESULT:      -7.5      9.591     12.000
REMARK  Name = 4908
REMARK  7 active torsions:
REMARK  status: ('A' for Active; 'I' for Inactive)
REMARK    1  A    between atoms: C_2  and  N_13
REMARK    2  A    between atoms: C_6  and  O_11
REMARK    3  A    between atoms: N_13  and  C_15
REMARK    4  A    between atoms: C_15  and  C_17
REMARK    5  A    between atoms: C_17  and  C_18
REMARK    6  A    between atoms: C_18  and  C_19
REMARK    7  A    between atoms: C_19  and  N_20
REMARK                            x       y       z     vdW  Elec       q    Type
REMARK                         _______ _______ _______ _____ _____    ______ ____
ROOT
ATOM      1  N   UNL     1      34.751 -16.443 -21.473  0.00  0.00    -0.247 NA
ATOM      2  C   UNL     1      33.851 -14.951 -23.084  0.00  0.00    +0.120 C 
ATOM      3  C   UNL     1      34.447 -16.186 -22.759  0.00  0.00    +0.074 C 
ATOM      4  C   UNL     1      33.528 -14.675 -24.433  0.00  0.00    +0.028 C 
ATOM      5  C   UNL     1      34.709 -17.118 -23.787  0.00  0.00    +0.001 C 
ATOM      6  C   UNL     1      33.789 -15.597 -25.440  0.00  0.00    +0.118 C 
ATOM      7  C   UNL     1      34.378 -16.817 -25.118  0.00  0.00    +0.091 C 
ATOM      8  C   UNL     1      35.303 -18.337 -23.435  0.00  0.00    -0.001 C 
ATOM      9  C   UNL     1      35.619 -18.604 -22.111  0.00  0.00    +0.020 C 
ATOM     10  C   UNL     1      35.324 -17.632 -21.176  0.00  0.00    +0.098 C 
ENDROOT
BRANCH   6  11
ATOM     11  O   UNL     1      33.470 -15.311 -26.730  0.00  0.00    -0.476 OA
ATOM     12  C   UNL     1      33.203 -13.945 -27.046  0.00  0.00    +0.252 C 
ENDBRANCH   6  11
BRANCH   2  13
ATOM     13  N   UNL     1      33.575 -14.006 -22.113  0.00  0.00    -0.291 NA
ATOM     14  H   UNL     1      34.227 -13.882 -21.386  0.00  0.00    +0.124 HD
BRANCH  13  15
ATOM     15  C   UNL     1      32.379 -13.189 -22.106  0.00  0.00    +0.054 C 
ATOM     16  C   UNL     1      32.648 -11.926 -22.916  0.00  0.00    +0.017 C 
BRANCH  15  17
ATOM     17  C   UNL     1      31.979 -12.843 -20.665  0.00  0.00    +0.014 C 
BRANCH  17  18
ATOM     18  C   UNL     1      31.419 -11.422 -20.537  0.00  0.00    -0.023 C 
BRANCH  18  19
ATOM     19  C   UNL     1      31.571 -10.897 -19.108  0.00  0.00    -0.086 C 
BRANCH  19  20
ATOM     20  N   UNL     1      32.411  -9.706 -19.093  0.00  0.00    +0.380 N 
ATOM     21  H   UNL     1      33.331  -9.943 -18.720  0.00  0.00    -0.089 HD
ATOM     22  H   UNL     1      31.980  -8.994 -18.504  0.00  0.00    -0.089 HD
ATOM     23  H   UNL     1      32.511  -9.347 -20.042  0.00  0.00    -0.089 HD
ENDBRANCH  19  20
ENDBRANCH  18  19
ENDBRANCH  17  18
ENDBRANCH  15  17
ENDBRANCH  13  15
ENDBRANCH   2  13
TORSDOF 7
ENDMDL
MODEL 4
REMARK VINA RESULT:      -7.4      7.748      9.942
REMARK  Name = 4908
REMARK  7 active torsions:
REMARK  status: ('A' for Active; 'I' for Inactive)
REMARK    1  A    between atoms: C_2  and  N_13
REMARK    2  A    between atoms: C_6  and  O_11
REMARK    3  A    between atoms: N_13  and  C_15
REMARK    4  A    between atoms: C_15  and  C_17
REMARK    5  A    between atoms: C_17  and  C_18
REMARK    6  A    between atoms: C_18  and  C_19
REMARK    7  A    between atoms: C_19  and  N_20
REMARK                            x       y       z     vdW  Elec       q    Type
REMARK                         _______ _______ _______ _____ _____    ______ ____
ROOT
ATOM      1  N   UNL     1      34.028 -15.731 -23.961  0.00  0.00    -0.247 NA
ATOM      2  C   UNL     1      34.689 -16.226 -21.737  0.00  0.00    +0.120 C 
ATOM      3  C   UNL     1      34.530 -16.618 -23.081  0.00  0.00    +0.074 C 
ATOM      4  C   UNL     1      35.216 -17.152 -20.807  0.00  0.00    +0.028 C 
ATOM      5  C   UNL     1      34.899 -17.924 -23.468  0.00  0.00    +0.001 C 
ATOM      6  C   UNL     1      35.577 -18.436 -21.194  0.00  0.00    +0.118 C 
ATOM      7  C   UNL     1      35.420 -18.823 -22.523  0.00  0.00    +0.091 C 
ATOM      8  C   UNL     1      34.729 -18.287 -24.810  0.00  0.00    -0.001 C 
ATOM      9  C   UNL     1      34.211 -17.376 -25.720  0.00  0.00    +0.020 C 
ATOM     10  C   UNL     1      33.880 -16.122 -25.248  0.00  0.00    +0.098 C 
ENDROOT
BRANCH   6  11
ATOM     11  O   UNL     1      36.082 -19.310 -20.283  0.00  0.00    -0.476 OA
ATOM     12  C   UNL     1      35.566 -20.641 -20.302  0.00  0.00    +0.252 C 
ENDBRANCH   6  11
BRANCH   2  13
ATOM     13  N   UNL     1      34.341 -14.958 -21.310  0.00  0.00    -0.291 NA
ATOM     14  H   UNL     1      34.910 -14.202 -21.583  0.00  0.00    +0.124 HD
BRANCH  13  15
ATOM     15  C   UNL     1      33.186 -14.680 -20.481  0.00  0.00    +0.054 C 
ATOM     16  C   UNL     1      32.178 -15.811 -20.657  0.00  0.00    +0.017 C 
BRANCH  15  17
ATOM     17  C   UNL     1      32.567 -13.329 -20.867  0.00  0.00    +0.014 C 
BRANCH  17  18
ATOM     18  C   UNL     1      32.148 -13.274 -22.340  0.00  0.00    -0.023 C 
BRANCH  18  19
ATOM     19  C   UNL     1      32.937 -12.205 -23.097  0.00  0.00    -0.086 C 
BRANCH  19  20
ATOM     20  N   UNL     1      34.120 -12.790 -23.716  0.00  0.00    +0.380 N 
ATOM     21  H   UNL     1      34.830 -12.957 -23.002  0.00  0.00    -0.089 HD
ATOM     22  H   UNL     1      34.489 -12.150 -24.418  0.00  0.00    -0.089 HD
ATOM     23  H   UNL     1      33.870 -13.674 -24.160  0.00  0.00    -0.089 HD
ENDBRANCH  19  20
ENDBRANCH  18  19
ENDBRANCH  17  18
ENDBRANCH  15  17
ENDBRANCH  13  15
ENDBRANCH   2  13
TORSDOF 7
ENDMDL
MODEL 5
REMARK VINA RESULT:      -7.3      2.501      5.922
REMARK  Name = 4908
REMARK  7 active torsions:
REMARK  status: ('A' for Active; 'I' for Inactive)
REMARK    1  A    between atoms: C_2  and  N_13
REMARK    2  A    between atoms: C_6  and  O_11
REMARK    3  A    between atoms: N_13  and  C_15
REMARK    4  A    between atoms: C_15  and  C_17
REMARK    5  A    between atoms: C_17  and  C_18
REMARK    6  A    between atoms: C_18  and  C_19
REMARK    7  A    between atoms: C_19  and  N_20
REMARK                            x       y       z     vdW  Elec       q    Type
REMARK                         _______ _______ _______ _____ _____    ______ ____
ROOT
ATOM      1  N   UNL     1      33.596 -24.383 -14.313  0.00  0.00    -0.247 NA
ATOM      2  C   UNL     1      34.428 -23.517 -16.360  0.00  0.00    +0.120 C 
ATOM      3  C   UNL     1      33.349 -23.783 -15.494  0.00  0.00    +0.074 C 
ATOM      4  C   UNL     1      34.177 -22.887 -17.601  0.00  0.00    +0.028 C 
ATOM      5  C   UNL     1      32.044 -23.415 -15.884  0.00  0.00    +0.001 C 
ATOM      6  C   UNL     1      32.889 -22.528 -17.979  0.00  0.00    +0.118 C 
ATOM      7  C   UNL     1      31.823 -22.791 -17.122  0.00  0.00    +0.091 C 
ATOM      8  C   UNL     1      30.990 -23.692 -15.003  0.00  0.00    -0.001 C 
ATOM      9  C   UNL     1      31.240 -24.310 -13.786  0.00  0.00    +0.020 C 
ATOM     10  C   UNL     1      32.550 -24.632 -13.492  0.00  0.00    +0.098 C 
ENDROOT
BRANCH   6  11
ATOM     11  O   UNL     1      32.670 -21.923 -19.176  0.00  0.00    -0.476 OA
ATOM     12  C   UNL     1      33.741 -21.150 -19.720  0.00  0.00    +0.252 C 
ENDBRANCH   6  11
BRANCH   2  13
ATOM     13  N   UNL     1      35.725 -23.859 -16.023  0.00  0.00    -0.291 NA
ATOM     14  H   UNL     1      36.079 -24.720 -16.345  0.00  0.00    +0.124 HD
BRANCH  13  15
ATOM     15  C   UNL     1      36.592 -23.021 -15.220  0.00  0.00    +0.054 C 
ATOM     16  C   UNL     1      37.584 -22.323 -16.144  0.00  0.00    +0.017 C 
BRANCH  15  17
ATOM     17  C   UNL     1      37.323 -23.865 -14.167  0.00  0.00    +0.014 C 
BRANCH  17  18
ATOM     18  C   UNL     1      37.869 -25.177 -14.742  0.00  0.00    -0.023 C 
BRANCH  18  19
ATOM     19  C   UNL     1      37.144 -26.384 -14.145  0.00  0.00    -0.086 C 
BRANCH  19  20
ATOM     20  N   UNL     1      35.934 -26.675 -14.904  0.00  0.00    +0.380 N 
ATOM     21  H   UNL     1      36.149 -27.345 -15.642  0.00  0.00    -0.089 HD
ATOM     22  H   UNL     1      35.578 -25.815 -15.319  0.00  0.00    -0.089 HD
ATOM     23  H   UNL     1      35.229 -27.069 -14.282  0.00  0.00    -0.089 HD
ENDBRANCH  19  20
ENDBRANCH  18  19
ENDBRANCH  17  18
ENDBRANCH  15  17
ENDBRANCH  13  15
ENDBRANCH   2  13
TORSDOF 7
ENDMDL
MODEL 6
REMARK VINA RESULT:      -7.2     10.351     12.676
REMARK  Name = 4908
REMARK  7 active torsions:
REMARK  status: ('A' for Active; 'I' for Inactive)
REMARK    1  A    between atoms: C_2  and  N_13
REMARK    2  A    between atoms: C_6  and  O_11
REMARK    3  A    between atoms: N_13  and  C_15
REMARK    4  A    between atoms: C_15  and  C_17
REMARK    5  A    between atoms: C_17  and  C_18
REMARK    6  A    between atoms: C_18  and  C_19
REMARK    7  A    between atoms: C_19  and  N_20
REMARK                            x       y       z     vdW  Elec       q    Type
REMARK                         _______ _______ _______ _____ _____    ______ ____
ROOT
ATOM      1  N   UNL     1      34.252 -14.653 -21.268  0.00  0.00    -0.247 NA
ATOM      2  C   UNL     1      33.603 -13.629 -23.308  0.00  0.00    +0.120 C 
ATOM      3  C   UNL     1      34.053 -14.758 -22.595  0.00  0.00    +0.074 C 
ATOM      4  C   UNL     1      33.391 -13.732 -24.702  0.00  0.00    +0.028 C 
ATOM      5  C   UNL     1      34.283 -15.965 -23.289  0.00  0.00    +0.001 C 
ATOM      6  C   UNL     1      33.619 -14.924 -25.379  0.00  0.00    +0.118 C 
ATOM      7  C   UNL     1      34.064 -16.040 -24.675  0.00  0.00    +0.091 C 
ATOM      8  C   UNL     1      34.731 -17.072 -22.556  0.00  0.00    -0.001 C 
ATOM      9  C   UNL     1      34.938 -16.966 -21.188  0.00  0.00    +0.020 C 
ATOM     10  C   UNL     1      34.685 -15.745 -20.597  0.00  0.00    +0.098 C 
ENDROOT
BRANCH   6  11
ATOM     11  O   UNL     1      33.408 -15.001 -26.720  0.00  0.00    -0.476 OA
ATOM     12  C   UNL     1      33.247 -13.770 -27.425  0.00  0.00    +0.252 C 
ENDBRANCH   6  11
BRANCH   2  13
ATOM     13  N   UNL     1      33.364 -12.424 -22.672  0.00  0.00    -0.291 NA
ATOM     14  H   UNL     1      34.138 -11.882 -22.394  0.00  0.00    +0.124 HD
BRANCH  13  15
ATOM     15  C   UNL     1      32.037 -11.914 -22.393  0.00  0.00    +0.054 C 
ATOM     16  C   UNL     1      32.014 -10.421 -22.705  0.00  0.00    +0.017 C 
BRANCH  15  17
ATOM     17  C   UNL     1      31.665 -12.174 -20.926  0.00  0.00    +0.014 C 
BRANCH  17  18
ATOM     18  C   UNL     1      30.930 -10.989 -20.288  0.00  0.00    -0.023 C 
BRANCH  18  19
ATOM     19  C   UNL     1      31.573 -10.595 -18.957  0.00  0.00    -0.086 C 
BRANCH  19  20
ATOM     20  N   UNL     1      32.491  -9.479 -19.149  0.00  0.00    +0.380 N 
ATOM     21  H   UNL     1      33.367  -9.823 -19.541  0.00  0.00    -0.089 HD
ATOM     22  H   UNL     1      32.674  -9.032 -18.251  0.00  0.00    -0.089 HD
ATOM     23  H   UNL     1      32.074  -8.802 -19.787  0.00  0.00    -0.089 HD
ENDBRANCH  19  20
ENDBRANCH  18  19
ENDBRANCH  17  18
ENDBRANCH  15  17
ENDBRANCH  13  15
ENDBRANCH   2  13
TORSDOF 7
ENDMDL
MODEL 7
REMARK VINA RESULT:      -7.1      2.367      3.916
REMARK  Name = 4908
REMARK  7 active torsions:
REMARK  status: ('A' for Active; 'I' for Inactive)
REMARK    1  A    between atoms: C_2  and  N_13
REMARK    2  A    between atoms: C_6  and  O_11
REMARK    3  A    between atoms: N_13  and  C_15
REMARK    4  A    between atoms: C_15  and  C_17
REMARK    5  A    between atoms: C_17  and  C_18
REMARK    6  A    between atoms: C_18  and  C_19
REMARK    7  A    between atoms: C_19  and  N_20
REMARK                            x       y       z     vdW  Elec       q    Type
REMARK                         _______ _______ _______ _____ _____    ______ ____
ROOT
ATOM      1  N   UNL     1      35.436 -23.348 -15.214  0.00  0.00    -0.247 NA
ATOM      2  C   UNL     1      33.481 -23.247 -16.555  0.00  0.00    +0.120 C 
ATOM      3  C   UNL     1      34.854 -22.987 -16.373  0.00  0.00    +0.074 C 
ATOM      4  C   UNL     1      32.864 -22.870 -17.771  0.00  0.00    +0.028 C 
ATOM      5  C   UNL     1      35.581 -22.357 -17.406  0.00  0.00    +0.001 C 
ATOM      6  C   UNL     1      33.586 -22.251 -18.784  0.00  0.00    +0.118 C 
ATOM      7  C   UNL     1      34.942 -21.994 -18.603  0.00  0.00    +0.091 C 
ATOM      8  C   UNL     1      36.944 -22.111 -17.197  0.00  0.00    -0.001 C 
ATOM      9  C   UNL     1      37.546 -22.481 -16.003  0.00  0.00    +0.020 C 
ATOM     10  C   UNL     1      36.755 -23.092 -15.052  0.00  0.00    +0.098 C 
ENDROOT
BRANCH   6  11
ATOM     11  O   UNL     1      32.972 -21.898 -19.944  0.00  0.00    -0.476 OA
ATOM     12  C   UNL     1      33.048 -20.526 -20.330  0.00  0.00    +0.252 C 
ENDBRANCH   6  11
BRANCH   2  13
ATOM     13  N   UNL     1      32.727 -23.861 -15.572  0.00  0.00    -0.291 NA
ATOM     14  H   UNL     1      33.110 -24.642 -15.111  0.00  0.00    +0.124 HD
BRANCH  13  15
ATOM     15  C   UNL     1      31.404 -23.417 -15.183  0.00  0.00    +0.054 C 
ATOM     16  C   UNL     1      31.382 -23.224 -13.670  0.00  0.00    +0.017 C 
BRANCH  15  17
ATOM     17  C   UNL     1      30.349 -24.442 -15.621  0.00  0.00    +0.014 C 
BRANCH  17  18
ATOM     18  C   UNL     1      28.924 -24.013 -15.252  0.00  0.00    -0.023 C 
BRANCH  18  19
ATOM     19  C   UNL     1      28.543 -22.709 -15.955  0.00  0.00    -0.086 C 
BRANCH  19  20
ATOM     20  N   UNL     1      28.421 -22.925 -17.391  0.00  0.00    +0.380 N 
ATOM     21  H   UNL     1      27.915 -22.145 -17.810  0.00  0.00    -0.089 HD
ATOM     22  H   UNL     1      27.912 -23.792 -17.562  0.00  0.00    -0.089 HD
ATOM     23  H   UNL     1      29.351 -22.989 -17.806  0.00  0.00    -0.089 HD
ENDBRANCH  19  20
ENDBRANCH  18  19
ENDBRANCH  17  18
ENDBRANCH  15  17
ENDBRANCH  13  15
ENDBRANCH   2  13
TORSDOF 7
ENDMDL
MODEL 8
REMARK VINA RESULT:      -7.1      2.520      5.024
REMARK  Name = 4908
REMARK  7 active torsions:
REMARK  status: ('A' for Active; 'I' for Inactive)
REMARK    1  A    between atoms: C_2  and  N_13
REMARK    2  A    between atoms: C_6  and  O_11
REMARK    3  A    between atoms: N_13  and  C_15
REMARK    4  A    between atoms: C_15  and  C_17
REMARK    5  A    between atoms: C_17  and  C_18
REMARK    6  A    between atoms: C_18  and  C_19
REMARK    7  A    between atoms: C_19  and  N_20
REMARK                            x       y       z     vdW  Elec       q    Type
REMARK                         _______ _______ _______ _____ _____    ______ ____
ROOT
ATOM      1  N   UNL     1      36.203 -22.262 -16.957  0.00  0.00    -0.247 NA
ATOM      2  C   UNL     1      34.597 -23.056 -15.401  0.00  0.00    +0.120 C 
ATOM      3  C   UNL     1      34.936 -22.643 -16.705  0.00  0.00    +0.074 C 
ATOM      4  C   UNL     1      33.268 -23.457 -15.130  0.00  0.00    +0.028 C 
ATOM      5  C   UNL     1      33.944 -22.639 -17.709  0.00  0.00    +0.001 C 
ATOM      6  C   UNL     1      32.296 -23.451 -16.122  0.00  0.00    +0.118 C 
ATOM      7  C   UNL     1      32.632 -23.043 -17.411  0.00  0.00    +0.091 C 
ATOM      8  C   UNL     1      34.310 -22.224 -18.996  0.00  0.00    -0.001 C 
ATOM      9  C   UNL     1      35.614 -21.830 -19.259  0.00  0.00    +0.020 C 
ATOM     10  C   UNL     1      36.514 -21.868 -18.214  0.00  0.00    +0.098 C 
ENDROOT
BRANCH   6  11
ATOM     11  O   UNL     1      31.025 -23.842 -15.839  0.00  0.00    -0.476 OA
ATOM     12  C   UNL     1      29.966 -23.084 -16.423  0.00  0.00    +0.252 C 
ENDBRANCH   6  11
BRANCH   2  13
ATOM     13  N   UNL     1      35.534 -23.076 -14.385  0.00  0.00    -0.291 NA
ATOM     14  H   UNL     1      36.209 -22.359 -14.359  0.00  0.00    +0.124 HD
BRANCH  13  15
ATOM     15  C   UNL     1      35.577 -24.094 -13.355  0.00  0.00    +0.054 C 
ATOM     16  C   UNL     1      36.114 -23.466 -12.073  0.00  0.00    +0.017 C 
BRANCH  15  17
ATOM     17  C   UNL     1      36.461 -25.266 -13.803  0.00  0.00    +0.014 C 
BRANCH  17  18
ATOM     18  C   UNL     1      37.933 -25.072 -13.421  0.00  0.00    -0.023 C 
BRANCH  18  19
ATOM     19  C   UNL     1      38.824 -25.039 -14.664  0.00  0.00    -0.086 C 
BRANCH  19  20
ATOM     20  N   UNL     1      38.379 -23.996 -15.580  0.00  0.00    +0.380 N 
ATOM     21  H   UNL     1      38.238 -24.396 -16.508  0.00  0.00    -0.089 HD
ATOM     22  H   UNL     1      39.086 -23.263 -15.629  0.00  0.00    -0.089 HD
ATOM     23  H   UNL     1      37.501 -23.600 -15.243  0.00  0.00    -0.089 HD
ENDBRANCH  19  20
ENDBRANCH  18  19
ENDBRANCH  17  18
ENDBRANCH  15  17
ENDBRANCH  13  15
ENDBRANCH   2  13
TORSDOF 7
ENDMDL
MODEL 9
REMARK VINA RESULT:      -7.0      2.717      5.936
REMARK  Name = 4908
REMARK  7 active torsions:
REMARK  status: ('A' for Active; 'I' for Inactive)
REMARK    1  A    between atoms: C_2  and  N_13
REMARK    2  A    between atoms: C_6  and  O_11
REMARK    3  A    between atoms: N_13  and  C_15
REMARK    4  A    between atoms: C_15  and  C_17
REMARK    5  A    between atoms: C_17  and  C_18
REMARK    6  A    between atoms: C_18  and  C_19
REMARK    7  A    between atoms: C_19  and  N_20
REMARK                            x       y       z     vdW  Elec       q    Type
REMARK                         _______ _______ _______ _____ _____    ______ ____
ROOT
ATOM      1  N   UNL     1      35.706 -23.490 -16.325  0.00  0.00    -0.247 NA
ATOM      2  C   UNL     1      33.611 -23.092 -17.367  0.00  0.00    +0.120 C 
ATOM      3  C   UNL     1      34.367 -23.404 -16.219  0.00  0.00    +0.074 C 
ATOM      4  C   UNL     1      32.204 -23.001 -17.262  0.00  0.00    +0.028 C 
ATOM      5  C   UNL     1      33.702 -23.618 -14.992  0.00  0.00    +0.001 C 
ATOM      6  C   UNL     1      31.556 -23.212 -16.051  0.00  0.00    +0.118 C 
ATOM      7  C   UNL     1      32.303 -23.521 -14.917  0.00  0.00    +0.091 C 
ATOM      8  C   UNL     1      34.478 -23.927 -13.867  0.00  0.00    -0.001 C 
ATOM      9  C   UNL     1      35.858 -24.017 -13.974  0.00  0.00    +0.020 C 
ATOM     10  C   UNL     1      36.418 -23.791 -15.215  0.00  0.00    +0.098 C 
ENDROOT
BRANCH   6  11
ATOM     11  O   UNL     1      30.202 -23.118 -15.974  0.00  0.00    -0.476 OA
ATOM     12  C   UNL     1      29.472 -24.337 -15.836  0.00  0.00    +0.252 C 
ENDBRANCH   6  11
BRANCH   2  13
ATOM     13  N   UNL     1      34.217 -22.875 -18.591  0.00  0.00    -0.291 NA
ATOM     14  H   UNL     1      34.460 -23.658 -19.136  0.00  0.00    +0.124 HD
BRANCH  13  15
ATOM     15  C   UNL     1      34.514 -21.558 -19.115  0.00  0.00    +0.054 C 
ATOM     16  C   UNL     1      33.329 -21.089 -19.953  0.00  0.00    +0.017 C 
BRANCH  15  17
ATOM     17  C   UNL     1      35.798 -21.596 -19.955  0.00  0.00    +0.014 C 
BRANCH  17  18
ATOM     18  C   UNL     1      36.626 -20.313 -19.822  0.00  0.00    -0.023 C 
BRANCH  18  19
ATOM     19  C   UNL     1      36.435 -19.406 -21.039  0.00  0.00    -0.086 C 
BRANCH  19  20
ATOM     20  N   UNL     1      35.630 -18.244 -20.684  0.00  0.00    +0.380 N 
ATOM     21  H   UNL     1      34.866 -18.143 -21.353  0.00  0.00    -0.089 HD
ATOM     22  H   UNL     1      36.214 -17.408 -20.706  0.00  0.00    -0.089 HD
ATOM     23  H   UNL     1      35.249 -18.368 -19.747  0.00  0.00    -0.089 HD
ENDBRANCH  19  20
ENDBRANCH  18  19
ENDBRANCH  17  18
ENDBRANCH  15  17
ENDBRANCH  13  15
ENDBRANCH   2  13
TORSDOF 7
ENDMDL
