MODEL 1
REMARK VINA RESULT:      -3.7      0.000      0.000
REMARK  Name = 9932888
REMARK  3 active torsions:
REMARK  status: ('A' for Active; 'I' for Inactive)
REMARK    1  A    between atoms: C_7  and  O_32
REMARK    2  A    between atoms: C_7  and  C_34
REMARK    3  A    between atoms: C_34  and  O_35
REMARK                            x       y       z     vdW  Elec       q    Type
REMARK                         _______ _______ _______ _____ _____    ______ ____
ROOT
ATOM      1  O   UNL     1      32.596 -10.368 -25.475  0.00  0.00    -0.319 OA
ATOM      2  O   UNL     1      30.905  -8.698 -18.572  0.00  0.00    -0.270 OA
ATOM      3  N   UNL     1      33.353 -11.833 -23.877  0.00  0.00    -0.305 N 
ATOM      4  N   UNL     1      32.797  -8.902 -23.708  0.00  0.00    -0.304 N 
ATOM      5  N   UNL     1      31.169 -11.008 -18.294  0.00  0.00    -0.297 N 
ATOM      6  C   UNL     1      33.663 -11.305 -25.198  0.00  0.00    +0.190 C 
ATOM      7  C   UNL     1      34.995 -10.484 -25.220  0.00  0.00    +0.160 C 
ATOM      8  C   UNL     1      33.067  -9.087 -25.111  0.00  0.00    +0.209 C 
ATOM      9  C   UNL     1      34.531  -9.060 -25.500  0.00  0.00    +0.088 C 
ATOM     10  C   UNL     1      32.815 -11.193 -22.780  0.00  0.00    +0.077 A 
ATOM     11  C   UNL     1      32.565  -9.789 -22.695  0.00  0.00    +0.078 A 
ATOM     12  C   UNL     1      32.519 -11.928 -21.576  0.00  0.00    +0.016 A 
ATOM     13  C   UNL     1      33.491 -12.297 -26.359  0.00  0.00    +0.057 C 
ATOM     14  C   UNL     1      32.064  -9.323 -21.417  0.00  0.00    +0.023 A 
ATOM     15  C   UNL     1      33.567 -13.119 -23.363  0.00  0.00    +0.062 A 
ATOM     16  C   UNL     1      32.506  -7.683 -23.098  0.00  0.00    +0.062 A 
ATOM     17  C   UNL     1      33.015 -13.219 -22.045  0.00  0.00    +0.017 A 
ATOM     18  C   UNL     1      31.977 -11.474 -20.376  0.00  0.00    +0.003 A 
ATOM     19  C   UNL     1      31.750 -10.106 -20.308  0.00  0.00    +0.053 A 
ATOM     20  C   UNL     1      32.057  -7.894 -21.759  0.00  0.00    +0.017 A 
ATOM     21  C   UNL     1      31.629 -12.131 -19.084  0.00  0.00    +0.117 C 
ATOM     22  C   UNL     1      34.219 -14.235 -23.925  0.00  0.00    +0.017 C 
ATOM     23  C   UNL     1      31.226  -9.798 -18.980  0.00  0.00    +0.246 C 
ATOM     24  C   UNL     1      32.593  -6.386 -23.643  0.00  0.00    +0.017 C 
ATOM     25  C   UNL     1      33.078 -14.469 -21.379  0.00  0.00    +0.001 C 
ATOM     26  C   UNL     1      31.707  -6.745 -21.007  0.00  0.00    +0.001 C 
ATOM     27  C   UNL     1      34.264 -15.447 -23.230  0.00  0.00    +0.001 C 
ATOM     28  C   UNL     1      33.690 -15.569 -21.978  0.00  0.00    +0.000 C 
ATOM     29  C   UNL     1      32.237  -5.288 -22.862  0.00  0.00    +0.001 C 
ATOM     30  C   UNL     1      31.798  -5.463 -21.560  0.00  0.00    +0.000 C 
ATOM     31  H   UNL     1      30.849 -11.091 -17.368  0.00  0.00    +0.150 HD
ENDROOT
BRANCH   7  32
ATOM     32  O   UNL     1      35.634 -10.469 -23.937  0.00  0.00    -0.380 OA
ATOM     33  H   UNL     1      35.622 -11.362 -23.560  0.00  0.00    +0.211 HD
ENDBRANCH   7  32
BRANCH   7  34
ATOM     34  C   UNL     1      36.059 -10.929 -26.223  0.00  0.00    +0.168 C 
BRANCH  34  35
ATOM     35  O   UNL     1      36.003 -10.064 -27.339  0.00  0.00    -0.379 OA
ATOM     36  H   UNL     1      35.827 -10.581 -28.141  0.00  0.00    +0.211 HD
ENDBRANCH  34  35
ENDBRANCH   7  34
TORSDOF 3
ENDMDL
MODEL 2
REMARK VINA RESULT:      -3.4      2.067      5.676
REMARK  Name = 9932888
REMARK  3 active torsions:
REMARK  status: ('A' for Active; 'I' for Inactive)
REMARK    1  A    between atoms: C_7  and  O_32
REMARK    2  A    between atoms: C_7  and  C_34
REMARK    3  A    between atoms: C_34  and  O_35
REMARK                            x       y       z     vdW  Elec       q    Type
REMARK                         _______ _______ _______ _____ _____    ______ ____
ROOT
ATOM      1  O   UNL     1      33.924  -9.219 -23.254  0.00  0.00    -0.319 OA
ATOM      2  O   UNL     1      33.248 -16.485 -23.050  0.00  0.00    -0.270 OA
ATOM      3  N   UNL     1      32.514 -10.048 -21.642  0.00  0.00    -0.305 N 
ATOM      4  N   UNL     1      33.264 -11.156 -24.314  0.00  0.00    -0.304 N 
ATOM      5  N   UNL     1      32.675 -16.041 -20.823  0.00  0.00    -0.297 N 
ATOM      6  C   UNL     1      32.741  -8.887 -22.491  0.00  0.00    +0.190 C 
ATOM      7  C   UNL     1      31.589  -8.667 -23.528  0.00  0.00    +0.160 C 
ATOM      8  C   UNL     1      33.486  -9.744 -24.490  0.00  0.00    +0.209 C 
ATOM      9  C   UNL     1      32.261  -8.936 -24.869  0.00  0.00    +0.088 C 
ATOM     10  C   UNL     1      32.695 -11.387 -21.920  0.00  0.00    +0.077 A 
ATOM     11  C   UNL     1      33.037 -11.916 -23.201  0.00  0.00    +0.078 A 
ATOM     12  C   UNL     1      32.476 -12.381 -20.900  0.00  0.00    +0.016 A 
ATOM     13  C   UNL     1      33.208  -7.619 -21.760  0.00  0.00    +0.057 C 
ATOM     14  C   UNL     1      33.103 -13.363 -23.279  0.00  0.00    +0.023 A 
ATOM     15  C   UNL     1      32.007 -10.107 -20.337  0.00  0.00    +0.062 A 
ATOM     16  C   UNL     1      33.443 -12.128 -25.297  0.00  0.00    +0.062 A 
ATOM     17  C   UNL     1      32.050 -11.455 -19.855  0.00  0.00    +0.017 A 
ATOM     18  C   UNL     1      32.606 -13.766 -20.976  0.00  0.00    +0.003 A 
ATOM     19  C   UNL     1      32.929 -14.264 -22.231  0.00  0.00    +0.053 A 
ATOM     20  C   UNL     1      33.371 -13.433 -24.722  0.00  0.00    +0.017 A 
ATOM     21  C   UNL     1      32.412 -14.878 -20.001  0.00  0.00    +0.117 C 
ATOM     22  C   UNL     1      31.486  -9.093 -19.509  0.00  0.00    +0.017 C 
ATOM     23  C   UNL     1      32.983 -15.720 -22.142  0.00  0.00    +0.246 C 
ATOM     24  C   UNL     1      33.681 -11.949 -26.675  0.00  0.00    +0.017 C 
ATOM     25  C   UNL     1      31.634 -11.709 -18.524  0.00  0.00    +0.001 C 
ATOM     26  C   UNL     1      33.548 -14.534 -25.597  0.00  0.00    +0.001 C 
ATOM     27  C   UNL     1      31.080  -9.389 -18.205  0.00  0.00    +0.001 C 
ATOM     28  C   UNL     1      31.165 -10.679 -17.710  0.00  0.00    +0.000 C 
ATOM     29  C   UNL     1      33.849 -13.065 -27.493  0.00  0.00    +0.001 C 
ATOM     30  C   UNL     1      33.784 -14.343 -26.962  0.00  0.00    +0.000 C 
ATOM     31  H   UNL     1      32.642 -16.964 -20.484  0.00  0.00    +0.150 HD
ENDROOT
BRANCH   7  32
ATOM     32  O   UNL     1      30.547  -9.640 -23.382  0.00  0.00    -0.380 OA
ATOM     33  H   UNL     1      29.690  -9.227 -23.572  0.00  0.00    +0.211 HD
ENDBRANCH   7  32
BRANCH   7  34
ATOM     34  C   UNL     1      30.905  -7.299 -23.514  0.00  0.00    +0.168 C 
BRANCH  34  35
ATOM     35  O   UNL     1      31.411  -6.542 -24.594  0.00  0.00    -0.379 OA
ATOM     36  H   UNL     1      31.492  -7.109 -25.377  0.00  0.00    +0.211 HD
ENDBRANCH  34  35
ENDBRANCH   7  34
TORSDOF 3
ENDMDL
MODEL 3
REMARK VINA RESULT:      -1.2     12.514     16.074
REMARK  Name = 9932888
REMARK  3 active torsions:
REMARK  status: ('A' for Active; 'I' for Inactive)
REMARK    1  A    between atoms: C_7  and  O_32
REMARK    2  A    between atoms: C_7  and  C_34
REMARK    3  A    between atoms: C_34  and  O_35
REMARK                            x       y       z     vdW  Elec       q    Type
REMARK                         _______ _______ _______ _____ _____    ______ ____
ROOT
ATOM      1  O   UNL     1      32.339 -25.257 -13.627  0.00  0.00    -0.319 OA
ATOM      2  O   UNL     1      35.995 -22.004 -19.044  0.00  0.00    -0.270 OA
ATOM      3  N   UNL     1      31.160 -23.701 -14.837  0.00  0.00    -0.305 N 
ATOM      4  N   UNL     1      34.088 -23.902 -14.274  0.00  0.00    -0.304 N 
ATOM      5  N   UNL     1      33.831 -21.712 -19.889  0.00  0.00    -0.297 N 
ATOM      6  C   UNL     1      31.258 -24.302 -13.515  0.00  0.00    +0.190 C 
ATOM      7  C   UNL     1      31.685 -23.272 -12.416  0.00  0.00    +0.160 C 
ATOM      8  C   UNL     1      33.509 -24.613 -13.164  0.00  0.00    +0.209 C 
ATOM      9  C   UNL     1      33.070 -23.751 -11.998  0.00  0.00    +0.088 C 
ATOM     10  C   UNL     1      32.161 -23.376 -15.729  0.00  0.00    +0.077 A 
ATOM     11  C   UNL     1      33.559 -23.456 -15.453  0.00  0.00    +0.078 A 
ATOM     12  C   UNL     1      31.836 -22.848 -17.031  0.00  0.00    +0.016 A 
ATOM     13  C   UNL     1      30.093 -25.223 -13.123  0.00  0.00    +0.057 C 
ATOM     14  C   UNL     1      34.431 -22.991 -16.514  0.00  0.00    +0.023 A 
ATOM     15  C   UNL     1      30.025 -23.256 -15.527  0.00  0.00    +0.062 A 
ATOM     16  C   UNL     1      35.450 -23.681 -14.466  0.00  0.00    +0.062 A 
ATOM     17  C   UNL     1      30.389 -22.825 -16.844  0.00  0.00    +0.017 A 
ATOM     18  C   UNL     1      32.688 -22.465 -18.064  0.00  0.00    +0.003 A 
ATOM     19  C   UNL     1      34.044 -22.541 -17.775  0.00  0.00    +0.053 A 
ATOM     20  C   UNL     1      35.689 -23.162 -15.775  0.00  0.00    +0.017 A 
ATOM     21  C   UNL     1      32.471 -21.917 -19.434  0.00  0.00    +0.117 C 
ATOM     22  C   UNL     1      28.679 -23.168 -15.118  0.00  0.00    +0.017 C 
ATOM     23  C   UNL     1      34.785 -22.067 -18.940  0.00  0.00    +0.246 C 
ATOM     24  C   UNL     1      36.513 -23.917 -13.569  0.00  0.00    +0.017 C 
ATOM     25  C   UNL     1      29.362 -22.394 -17.721  0.00  0.00    +0.001 C 
ATOM     26  C   UNL     1      37.036 -22.897 -16.128  0.00  0.00    +0.001 C 
ATOM     27  C   UNL     1      27.700 -22.729 -16.014  0.00  0.00    +0.001 C 
ATOM     28  C   UNL     1      28.032 -22.359 -17.305  0.00  0.00    +0.000 C 
ATOM     29  C   UNL     1      37.820 -23.640 -13.966  0.00  0.00    +0.001 C 
ATOM     30  C   UNL     1      38.080 -23.136 -15.229  0.00  0.00    +0.000 C 
ATOM     31  H   UNL     1      34.057 -21.359 -20.779  0.00  0.00    +0.150 HD
ENDROOT
BRANCH   7  32
ATOM     32  O   UNL     1      31.847 -21.954 -12.957  0.00  0.00    -0.380 OA
ATOM     33  H   UNL     1      30.979 -21.594 -13.197  0.00  0.00    +0.211 HD
ENDBRANCH   7  32
BRANCH   7  34
ATOM     34  C   UNL     1      30.757 -23.130 -11.210  0.00  0.00    +0.168 C 
BRANCH  34  35
ATOM     35  O   UNL     1      31.383 -22.282 -10.269  0.00  0.00    -0.379 OA
ATOM     36  H   UNL     1      32.098 -22.764  -9.825  0.00  0.00    +0.211 HD
ENDBRANCH  34  35
ENDBRANCH   7  34
TORSDOF 3
ENDMDL
MODEL 4
REMARK VINA RESULT:      -1.0     12.427     16.184
REMARK  Name = 9932888
REMARK  3 active torsions:
REMARK  status: ('A' for Active; 'I' for Inactive)
REMARK    1  A    between atoms: C_7  and  O_32
REMARK    2  A    between atoms: C_7  and  C_34
REMARK    3  A    between atoms: C_34  and  O_35
REMARK                            x       y       z     vdW  Elec       q    Type
REMARK                         _______ _______ _______ _____ _____    ______ ____
ROOT
ATOM      1  O   UNL     1      31.972 -24.873 -15.095  0.00  0.00    -0.319 OA
ATOM      2  O   UNL     1      39.126 -23.665 -14.283  0.00  0.00    -0.270 OA
ATOM      3  N   UNL     1      32.857 -23.197 -16.391  0.00  0.00    -0.305 N 
ATOM      4  N   UNL     1      33.707 -24.233 -13.720  0.00  0.00    -0.304 N 
ATOM      5  N   UNL     1      38.896 -22.820 -16.455  0.00  0.00    -0.297 N 
ATOM      6  C   UNL     1      31.630 -23.622 -15.733  0.00  0.00    +0.190 C 
ATOM      7  C   UNL     1      31.190 -22.644 -14.592  0.00  0.00    +0.160 C 
ATOM      8  C   UNL     1      32.309 -24.576 -13.756  0.00  0.00    +0.209 C 
ATOM      9  C   UNL     1      31.360 -23.476 -13.327  0.00  0.00    +0.088 C 
ATOM     10  C   UNL     1      34.165 -23.321 -15.972  0.00  0.00    +0.077 A 
ATOM     11  C   UNL     1      34.570 -23.800 -14.689  0.00  0.00    +0.078 A 
ATOM     12  C   UNL     1      35.249 -22.891 -16.820  0.00  0.00    +0.016 A 
ATOM     13  C   UNL     1      30.501 -24.071 -16.674  0.00  0.00    +0.057 C 
ATOM     14  C   UNL     1      35.997 -23.773 -14.436  0.00  0.00    +0.023 A 
ATOM     15  C   UNL     1      33.024 -22.510 -17.601  0.00  0.00    +0.062 A 
ATOM     16  C   UNL     1      34.570 -24.477 -12.654  0.00  0.00    +0.062 A 
ATOM     17  C   UNL     1      34.417 -22.390 -17.910  0.00  0.00    +0.017 A 
ATOM     18  C   UNL     1      36.621 -22.932 -16.586  0.00  0.00    +0.003 A 
ATOM     19  C   UNL     1      36.996 -23.392 -15.330  0.00  0.00    +0.053 A 
ATOM     20  C   UNL     1      35.922 -24.234 -13.043  0.00  0.00    +0.017 A 
ATOM     21  C   UNL     1      37.818 -22.527 -17.377  0.00  0.00    +0.117 C 
ATOM     22  C   UNL     1      32.072 -21.952 -18.477  0.00  0.00    +0.017 C 
ATOM     23  C   UNL     1      38.452 -23.330 -15.238  0.00  0.00    +0.246 C 
ATOM     24  C   UNL     1      34.253 -24.918 -11.352  0.00  0.00    +0.017 C 
ATOM     25  C   UNL     1      34.788 -21.776 -19.132  0.00  0.00    +0.001 C 
ATOM     26  C   UNL     1      36.925 -24.454 -12.066  0.00  0.00    +0.001 C 
ATOM     27  C   UNL     1      32.482 -21.348 -19.669  0.00  0.00    +0.001 C 
ATOM     28  C   UNL     1      33.822 -21.271 -20.002  0.00  0.00    +0.000 C 
ATOM     29  C   UNL     1      35.276 -25.119 -10.427  0.00  0.00    +0.001 C 
ATOM     30  C   UNL     1      36.597 -24.891 -10.778  0.00  0.00    +0.000 C 
ATOM     31  H   UNL     1      39.846 -22.674 -16.667  0.00  0.00    +0.150 HD
ENDROOT
BRANCH   7  32
ATOM     32  O   UNL     1      32.079 -21.525 -14.477  0.00  0.00    -0.380 OA
ATOM     33  H   UNL     1      32.365 -21.247 -15.361  0.00  0.00    +0.211 HD
ENDBRANCH   7  32
BRANCH   7  34
ATOM     34  C   UNL     1      29.780 -22.063 -14.692  0.00  0.00    +0.168 C 
BRANCH  34  35
ATOM     35  O   UNL     1      28.858 -23.134 -14.662  0.00  0.00    -0.379 OA
ATOM     36  H   UNL     1      27.978 -22.797 -14.436  0.00  0.00    +0.211 HD
ENDBRANCH  34  35
ENDBRANCH   7  34
TORSDOF 3
ENDMDL
