MODEL 1
REMARK VINA RESULT:      -8.6      0.000      0.000
REMARK  Name = 8955
REMARK  2 active torsions:
REMARK  status: ('A' for Active; 'I' for Inactive)
REMARK    1  A    between atoms: C_7  and  C_21
REMARK    2  A    between atoms: C_19  and  O_23
REMARK                            x       y       z     vdW  Elec       q    Type
REMARK                         _______ _______ _______ _____ _____    ______ ____
ROOT
ATOM      1  C   UNL     1      31.401 -23.847 -15.070  0.00  0.00    +0.007 C 
ATOM      2  C   UNL     1      32.428 -23.531 -16.175  0.00  0.00    +0.001 C 
ATOM      3  C   UNL     1      33.836 -23.257 -15.636  0.00  0.00    +0.005 C 
ATOM      4  C   UNL     1      34.328 -24.491 -14.826  0.00  0.00    +0.004 C 
ATOM      5  C   UNL     1      35.774 -24.264 -14.225  0.00  0.00    +0.015 C 
ATOM      6  C   UNL     1      31.861 -25.129 -14.363  0.00  0.00    +0.000 C 
ATOM      7  C   UNL     1      30.135 -24.006 -15.941  0.00  0.00    +0.058 C 
ATOM      8  C   UNL     1      33.278 -24.971 -13.784  0.00  0.00    +0.000 C 
ATOM      9  C   UNL     1      31.736 -22.458 -17.008  0.00  0.00    +0.000 C 
ATOM     10  C   UNL     1      30.257 -22.886 -16.997  0.00  0.00    +0.007 C 
ATOM     11  C   UNL     1      34.808 -22.957 -16.785  0.00  0.00    +0.025 C 
ATOM     12  C   UNL     1      36.698 -23.586 -15.243  0.00  0.00    -0.047 C 
ATOM     13  C   UNL     1      31.223 -22.704 -14.035  0.00  0.00    +0.000 C 
ATOM     14  C   UNL     1      36.354 -25.654 -13.796  0.00  0.00    +0.006 C 
ATOM     15  C   UNL     1      36.245 -23.032 -16.382  0.00  0.00    -0.035 C 
ATOM     16  C   UNL     1      35.714 -23.338 -12.983  0.00  0.00    +0.004 C 
ATOM     17  C   UNL     1      38.186 -23.568 -14.949  0.00  0.00    +0.051 C 
ATOM     18  C   UNL     1      37.723 -25.998 -14.391  0.00  0.00    +0.030 C 
ATOM     19  C   UNL     1      38.702 -24.838 -14.266  0.00  0.00    +0.115 C 
ENDROOT
BRANCH   7  21
ATOM     20  O   UNL     1      28.519 -24.813 -14.383  0.00  0.00    -0.296 OA
ATOM     21  C   UNL     1      28.848 -23.935 -15.181  0.00  0.00    +0.151 C 
ATOM     22  C   UNL     1      27.975 -22.736 -15.440  0.00  0.00    +0.072 C 
ENDBRANCH   7  21
BRANCH  19  23
ATOM     23  O   UNL     1      38.937 -24.558 -12.887  0.00  0.00    -0.384 OA
ATOM     24  H   UNL     1      38.876 -25.379 -12.374  0.00  0.00    +0.210 HD
ENDBRANCH  19  23
TORSDOF 2
ENDMDL
MODEL 2
REMARK VINA RESULT:      -8.6      1.099      6.820
REMARK  Name = 8955
REMARK  2 active torsions:
REMARK  status: ('A' for Active; 'I' for Inactive)
REMARK    1  A    between atoms: C_7  and  C_21
REMARK    2  A    between atoms: C_19  and  O_23
REMARK                            x       y       z     vdW  Elec       q    Type
REMARK                         _______ _______ _______ _____ _____    ______ ____
ROOT
ATOM      1  C   UNL     1      35.860 -24.179 -13.792  0.00  0.00    +0.007 C 
ATOM      2  C   UNL     1      35.468 -23.369 -15.043  0.00  0.00    +0.001 C 
ATOM      3  C   UNL     1      34.071 -23.706 -15.573  0.00  0.00    +0.005 C 
ATOM      4  C   UNL     1      33.019 -23.450 -14.455  0.00  0.00    +0.004 C 
ATOM      5  C   UNL     1      31.552 -23.798 -14.935  0.00  0.00    +0.015 C 
ATOM      6  C   UNL     1      34.866 -23.821 -12.679  0.00  0.00    +0.000 C 
ATOM      7  C   UNL     1      37.292 -23.639 -13.580  0.00  0.00    +0.058 C 
ATOM      8  C   UNL     1      33.417 -24.113 -13.106  0.00  0.00    +0.000 C 
ATOM      9  C   UNL     1      36.668 -23.539 -15.968  0.00  0.00    +0.000 C 
ATOM     10  C   UNL     1      37.872 -23.531 -15.007  0.00  0.00    +0.007 C 
ATOM     11  C   UNL     1      33.742 -22.862 -16.812  0.00  0.00    +0.025 C 
ATOM     12  C   UNL     1      31.302 -23.300 -16.363  0.00  0.00    -0.047 C 
ATOM     13  C   UNL     1      35.872 -25.714 -14.019  0.00  0.00    +0.000 C 
ATOM     14  C   UNL     1      30.538 -23.141 -13.939  0.00  0.00    +0.006 C 
ATOM     15  C   UNL     1      32.291 -22.870 -17.168  0.00  0.00    -0.035 C 
ATOM     16  C   UNL     1      31.326 -25.332 -14.946  0.00  0.00    +0.004 C 
ATOM     17  C   UNL     1      29.872 -23.277 -16.867  0.00  0.00    +0.051 C 
ATOM     18  C   UNL     1      29.484 -22.238 -14.587  0.00  0.00    +0.030 C 
ATOM     19  C   UNL     1      28.841 -22.899 -15.799  0.00  0.00    +0.115 C 
ENDROOT
BRANCH   7  21
ATOM     20  O   UNL     1      37.962 -24.512 -11.464  0.00  0.00    -0.296 OA
ATOM     21  C   UNL     1      38.143 -24.479 -12.680  0.00  0.00    +0.151 C 
ATOM     22  C   UNL     1      39.232 -25.284 -13.339  0.00  0.00    +0.072 C 
ENDBRANCH   7  21
BRANCH  19  23
ATOM     23  O   UNL     1      28.147 -24.077 -15.390  0.00  0.00    -0.384 OA
ATOM     24  H   UNL     1      28.785 -24.739 -15.083  0.00  0.00    +0.210 HD
ENDBRANCH  19  23
TORSDOF 2
ENDMDL
MODEL 3
REMARK VINA RESULT:      -8.2      1.519      2.855
REMARK  Name = 8955
REMARK  2 active torsions:
REMARK  status: ('A' for Active; 'I' for Inactive)
REMARK    1  A    between atoms: C_7  and  C_21
REMARK    2  A    between atoms: C_19  and  O_23
REMARK                            x       y       z     vdW  Elec       q    Type
REMARK                         _______ _______ _______ _____ _____    ______ ____
ROOT
ATOM      1  C   UNL     1      32.175 -23.618 -15.211  0.00  0.00    +0.007 C 
ATOM      2  C   UNL     1      32.807 -23.528 -13.808  0.00  0.00    +0.001 C 
ATOM      3  C   UNL     1      34.022 -24.443 -13.628  0.00  0.00    +0.005 C 
ATOM      4  C   UNL     1      35.100 -24.085 -14.692  0.00  0.00    +0.004 C 
ATOM      5  C   UNL     1      36.377 -25.010 -14.572  0.00  0.00    +0.015 C 
ATOM      6  C   UNL     1      33.230 -23.156 -16.224  0.00  0.00    +0.000 C 
ATOM      7  C   UNL     1      30.992 -22.643 -15.017  0.00  0.00    +0.058 C 
ATOM      8  C   UNL     1      34.509 -24.006 -16.129  0.00  0.00    +0.000 C 
ATOM      9  C   UNL     1      31.616 -23.690 -12.870  0.00  0.00    +0.000 C 
ATOM     10  C   UNL     1      30.478 -22.947 -13.593  0.00  0.00    +0.007 C 
ATOM     11  C   UNL     1      34.606 -24.299 -12.216  0.00  0.00    +0.025 C 
ATOM     12  C   UNL     1      36.775 -25.220 -13.106  0.00  0.00    -0.047 C 
ATOM     13  C   UNL     1      31.670 -25.038 -15.580  0.00  0.00    +0.000 C 
ATOM     14  C   UNL     1      37.548 -24.341 -15.368  0.00  0.00    +0.006 C 
ATOM     15  C   UNL     1      35.977 -24.876 -12.079  0.00  0.00    -0.035 C 
ATOM     16  C   UNL     1      36.099 -26.413 -15.169  0.00  0.00    +0.004 C 
ATOM     17  C   UNL     1      38.137 -25.821 -12.819  0.00  0.00    +0.051 C 
ATOM     18  C   UNL     1      38.837 -24.125 -14.569  0.00  0.00    +0.030 C 
ATOM     19  C   UNL     1      39.234 -25.371 -13.789  0.00  0.00    +0.115 C 
ENDROOT
BRANCH   7  21
ATOM     20  O   UNL     1      30.072 -22.352 -17.199  0.00  0.00    -0.296 OA
ATOM     21  C   UNL     1      29.915 -22.764 -16.050  0.00  0.00    +0.151 C 
ATOM     22  C   UNL     1      28.630 -23.416 -15.613  0.00  0.00    +0.072 C 
ENDBRANCH   7  21
BRANCH  19  23
ATOM     23  O   UNL     1      39.513 -26.435 -14.697  0.00  0.00    -0.384 OA
ATOM     24  H   UNL     1      38.681 -26.803 -15.031  0.00  0.00    +0.210 HD
ENDBRANCH  19  23
TORSDOF 2
ENDMDL
MODEL 4
REMARK VINA RESULT:      -7.2     13.139     15.660
REMARK  Name = 8955
REMARK  2 active torsions:
REMARK  status: ('A' for Active; 'I' for Inactive)
REMARK    1  A    between atoms: C_7  and  C_21
REMARK    2  A    between atoms: C_19  and  O_23
REMARK                            x       y       z     vdW  Elec       q    Type
REMARK                         _______ _______ _______ _____ _____    ______ ____
ROOT
ATOM      1  C   UNL     1      33.198 -13.688 -22.525  0.00  0.00    +0.007 C 
ATOM      2  C   UNL     1      32.311 -13.029 -21.449  0.00  0.00    +0.001 C 
ATOM      3  C   UNL     1      32.509 -11.514 -21.341  0.00  0.00    +0.005 C 
ATOM      4  C   UNL     1      32.209 -10.855 -22.718  0.00  0.00    +0.004 C 
ATOM      5  C   UNL     1      32.415  -9.286 -22.678  0.00  0.00    +0.015 C 
ATOM      6  C   UNL     1      32.800 -13.091 -23.881  0.00  0.00    +0.000 C 
ATOM      7  C   UNL     1      32.787 -15.163 -22.320  0.00  0.00    +0.058 C 
ATOM      8  C   UNL     1      32.953 -11.560 -23.887  0.00  0.00    +0.000 C 
ATOM      9  C   UNL     1      32.545 -13.894 -20.216  0.00  0.00    +0.000 C 
ATOM     10  C   UNL     1      32.675 -15.317 -20.788  0.00  0.00    +0.007 C 
ATOM     11  C   UNL     1      31.594 -10.922 -20.260  0.00  0.00    +0.025 C 
ATOM     12  C   UNL     1      31.844  -8.684 -21.389  0.00  0.00    -0.047 C 
ATOM     13  C   UNL     1      34.719 -13.495 -22.285  0.00  0.00    +0.000 C 
ATOM     14  C   UNL     1      31.713  -8.664 -23.932  0.00  0.00    +0.006 C 
ATOM     15  C   UNL     1      31.468  -9.436 -20.338  0.00  0.00    -0.035 C 
ATOM     16  C   UNL     1      33.922  -8.928 -22.715  0.00  0.00    +0.004 C 
ATOM     17  C   UNL     1      31.682  -7.178 -21.320  0.00  0.00    +0.051 C 
ATOM     18  C   UNL     1      30.701  -7.556 -23.627  0.00  0.00    +0.030 C 
ATOM     19  C   UNL     1      31.259  -6.535 -22.645  0.00  0.00    +0.115 C 
ENDROOT
BRANCH   7  21
ATOM     20  O   UNL     1      33.881 -16.244 -24.143  0.00  0.00    -0.296 OA
ATOM     21  C   UNL     1      33.730 -16.157 -22.925  0.00  0.00    +0.151 C 
ATOM     22  C   UNL     1      34.484 -17.042 -21.970  0.00  0.00    +0.072 C 
ENDBRANCH   7  21
BRANCH  19  23
ATOM     23  O   UNL     1      32.389  -5.883 -23.222  0.00  0.00    -0.384 OA
ATOM     24  H   UNL     1      33.189  -6.125 -22.731  0.00  0.00    +0.210 HD
ENDBRANCH  19  23
TORSDOF 2
ENDMDL
MODEL 5
REMARK VINA RESULT:      -6.9     14.114     16.230
REMARK  Name = 8955
REMARK  2 active torsions:
REMARK  status: ('A' for Active; 'I' for Inactive)
REMARK    1  A    between atoms: C_7  and  C_21
REMARK    2  A    between atoms: C_19  and  O_23
REMARK                            x       y       z     vdW  Elec       q    Type
REMARK                         _______ _______ _______ _____ _____    ______ ____
ROOT
ATOM      1  C   UNL     1      32.650  -8.307 -23.357  0.00  0.00    +0.007 C 
ATOM      2  C   UNL     1      32.468  -8.758 -21.894  0.00  0.00    +0.001 C 
ATOM      3  C   UNL     1      32.092 -10.237 -21.757  0.00  0.00    +0.005 C 
ATOM      4  C   UNL     1      33.192 -11.113 -22.423  0.00  0.00    +0.004 C 
ATOM      5  C   UNL     1      32.853 -12.656 -22.331  0.00  0.00    +0.015 C 
ATOM      6  C   UNL     1      33.812  -9.115 -23.949  0.00  0.00    +0.000 C 
ATOM      7  C   UNL     1      32.956  -6.811 -23.121  0.00  0.00    +0.058 C 
ATOM      8  C   UNL     1      33.546 -10.628 -23.858  0.00  0.00    +0.000 C 
ATOM      9  C   UNL     1      31.536  -7.703 -21.309  0.00  0.00    +0.000 C 
ATOM     10  C   UNL     1      31.990  -6.399 -21.990  0.00  0.00    +0.007 C 
ATOM     11  C   UNL     1      31.933 -10.622 -20.279  0.00  0.00    +0.025 C 
ATOM     12  C   UNL     1      32.303 -13.022 -20.948  0.00  0.00    -0.047 C 
ATOM     13  C   UNL     1      31.380  -8.485 -24.230  0.00  0.00    +0.000 C 
ATOM     14  C   UNL     1      34.157 -13.467 -22.636  0.00  0.00    +0.006 C 
ATOM     15  C   UNL     1      31.921 -12.098 -20.048  0.00  0.00    -0.035 C 
ATOM     16  C   UNL     1      31.765 -13.043 -23.366  0.00  0.00    +0.004 C 
ATOM     17  C   UNL     1      32.212 -14.492 -20.586  0.00  0.00    +0.051 C 
ATOM     18  C   UNL     1      34.551 -14.490 -21.566  0.00  0.00    +0.030 C 
ATOM     19  C   UNL     1      33.364 -15.341 -21.133  0.00  0.00    +0.115 C 
ENDROOT
BRANCH   7  21
ATOM     20  O   UNL     1      33.619  -5.994 -25.262  0.00  0.00    -0.296 OA
ATOM     21  C   UNL     1      32.808  -5.951 -24.338  0.00  0.00    +0.151 C 
ATOM     22  C   UNL     1      31.617  -5.030 -24.375  0.00  0.00    +0.072 C 
ENDBRANCH   7  21
BRANCH  19  23
ATOM     23  O   UNL     1      32.891 -16.101 -22.243  0.00  0.00    -0.384 OA
ATOM     24  H   UNL     1      32.083 -15.695 -22.594  0.00  0.00    +0.210 HD
ENDBRANCH  19  23
TORSDOF 2
ENDMDL
MODEL 6
REMARK VINA RESULT:      -6.8      9.825     11.725
REMARK  Name = 8955
REMARK  2 active torsions:
REMARK  status: ('A' for Active; 'I' for Inactive)
REMARK    1  A    between atoms: C_7  and  C_21
REMARK    2  A    between atoms: C_19  and  O_23
REMARK                            x       y       z     vdW  Elec       q    Type
REMARK                         _______ _______ _______ _____ _____    ______ ____
ROOT
ATOM      1  C   UNL     1      33.216 -13.647 -22.788  0.00  0.00    +0.007 C 
ATOM      2  C   UNL     1      33.464 -14.751 -23.835  0.00  0.00    +0.001 C 
ATOM      3  C   UNL     1      34.245 -15.948 -23.282  0.00  0.00    +0.005 C 
ATOM      4  C   UNL     1      33.471 -16.557 -22.077  0.00  0.00    +0.004 C 
ATOM      5  C   UNL     1      34.237 -17.790 -21.448  0.00  0.00    +0.015 C 
ATOM      6  C   UNL     1      32.361 -14.255 -21.668  0.00  0.00    +0.000 C 
ATOM      7  C   UNL     1      32.483 -12.618 -23.677  0.00  0.00    +0.058 C 
ATOM      8  C   UNL     1      33.049 -15.479 -21.040  0.00  0.00    +0.000 C 
ATOM      9  C   UNL     1      34.028 -13.990 -25.029  0.00  0.00    +0.000 C 
ATOM     10  C   UNL     1      33.244 -12.665 -25.020  0.00  0.00    +0.007 C 
ATOM     11  C   UNL     1      34.451 -17.011 -24.371  0.00  0.00    +0.025 C 
ATOM     12  C   UNL     1      34.815 -18.700 -22.538  0.00  0.00    -0.047 C 
ATOM     13  C   UNL     1      34.517 -13.043 -22.195  0.00  0.00    +0.000 C 
ATOM     14  C   UNL     1      33.235 -18.585 -20.544  0.00  0.00    +0.006 C 
ATOM     15  C   UNL     1      34.879 -18.337 -23.832  0.00  0.00    -0.035 C 
ATOM     16  C   UNL     1      35.429 -17.313 -20.579  0.00  0.00    +0.004 C 
ATOM     17  C   UNL     1      35.312 -20.073 -22.127  0.00  0.00    +0.051 C 
ATOM     18  C   UNL     1      33.113 -20.077 -20.867  0.00  0.00    +0.030 C 
ATOM     19  C   UNL     1      34.476 -20.735 -21.028  0.00  0.00    +0.115 C 
ENDROOT
BRANCH   7  21
ATOM     20  O   UNL     1      31.740 -10.976 -22.115  0.00  0.00    -0.296 OA
ATOM     21  C   UNL     1      32.423 -11.236 -23.104  0.00  0.00    +0.151 C 
ATOM     22  C   UNL     1      33.242 -10.181 -23.798  0.00  0.00    +0.072 C 
ENDBRANCH   7  21
BRANCH  19  23
ATOM     23  O   UNL     1      35.192 -20.661 -19.796  0.00  0.00    -0.384 OA
ATOM     24  H   UNL     1      34.683 -21.103 -19.098  0.00  0.00    +0.210 HD
ENDBRANCH  19  23
TORSDOF 2
ENDMDL
MODEL 7
REMARK VINA RESULT:      -6.7     10.577     13.097
REMARK  Name = 8955
REMARK  2 active torsions:
REMARK  status: ('A' for Active; 'I' for Inactive)
REMARK    1  A    between atoms: C_7  and  C_21
REMARK    2  A    between atoms: C_19  and  O_23
REMARK                            x       y       z     vdW  Elec       q    Type
REMARK                         _______ _______ _______ _____ _____    ______ ____
ROOT
ATOM      1  C   UNL     1      34.634 -17.506 -22.146  0.00  0.00    +0.007 C 
ATOM      2  C   UNL     1      34.670 -17.225 -23.662  0.00  0.00    +0.001 C 
ATOM      3  C   UNL     1      33.857 -15.994 -24.071  0.00  0.00    +0.005 C 
ATOM      4  C   UNL     1      34.393 -14.745 -23.313  0.00  0.00    +0.004 C 
ATOM      5  C   UNL     1      33.580 -13.438 -23.679  0.00  0.00    +0.015 C 
ATOM      6  C   UNL     1      35.269 -16.301 -21.438  0.00  0.00    +0.000 C 
ATOM      7  C   UNL     1      35.481 -18.798 -22.110  0.00  0.00    +0.058 C 
ATOM      8  C   UNL     1      34.532 -14.996 -21.784  0.00  0.00    +0.000 C 
ATOM      9  C   UNL     1      34.327 -18.575 -24.282  0.00  0.00    +0.000 C 
ATOM     10  C   UNL     1      35.020 -19.589 -23.353  0.00  0.00    +0.007 C 
ATOM     11  C   UNL     1      33.940 -15.767 -25.587  0.00  0.00    +0.025 C 
ATOM     12  C   UNL     1      33.292 -13.367 -25.183  0.00  0.00    -0.047 C 
ATOM     13  C   UNL     1      33.208 -17.759 -21.590  0.00  0.00    +0.000 C 
ATOM     14  C   UNL     1      34.413 -12.194 -23.220  0.00  0.00    +0.006 C 
ATOM     15  C   UNL     1      33.480 -14.410 -26.011  0.00  0.00    -0.035 C 
ATOM     16  C   UNL     1      32.209 -13.422 -22.955  0.00  0.00    +0.004 C 
ATOM     17  C   UNL     1      32.795 -12.051 -25.749  0.00  0.00    +0.051 C 
ATOM     18  C   UNL     1      34.680 -11.153 -24.312  0.00  0.00    +0.030 C 
ATOM     19  C   UNL     1      33.417 -10.815 -25.092  0.00  0.00    +0.115 C 
ENDROOT
BRANCH   7  21
ATOM     20  O   UNL     1      36.229 -19.598 -19.991  0.00  0.00    -0.296 OA
ATOM     21  C   UNL     1      35.345 -19.591 -20.847  0.00  0.00    +0.151 C 
ATOM     22  C   UNL     1      34.073 -20.378 -20.676  0.00  0.00    +0.072 C 
ENDBRANCH   7  21
BRANCH  19  23
ATOM     23  O   UNL     1      32.458 -10.224 -24.218  0.00  0.00    -0.384 OA
ATOM     24  H   UNL     1      31.588 -10.216 -24.648  0.00  0.00    +0.210 HD
ENDBRANCH  19  23
TORSDOF 2
ENDMDL
MODEL 8
REMARK VINA RESULT:      -6.5      1.390      7.053
REMARK  Name = 8955
REMARK  2 active torsions:
REMARK  status: ('A' for Active; 'I' for Inactive)
REMARK    1  A    between atoms: C_7  and  C_21
REMARK    2  A    between atoms: C_19  and  O_23
REMARK                            x       y       z     vdW  Elec       q    Type
REMARK                         _______ _______ _______ _____ _____    ______ ____
ROOT
ATOM      1  C   UNL     1      36.071 -24.508 -13.969  0.00  0.00    +0.007 C 
ATOM      2  C   UNL     1      34.947 -24.206 -12.958  0.00  0.00    +0.001 C 
ATOM      3  C   UNL     1      33.735 -23.512 -13.587  0.00  0.00    +0.005 C 
ATOM      4  C   UNL     1      33.163 -24.403 -14.727  0.00  0.00    +0.004 C 
ATOM      5  C   UNL     1      31.916 -23.731 -15.432  0.00  0.00    +0.015 C 
ATOM      6  C   UNL     1      35.502 -25.474 -15.018  0.00  0.00    +0.000 C 
ATOM      7  C   UNL     1      37.110 -25.131 -13.010  0.00  0.00    +0.058 C 
ATOM      8  C   UNL     1      34.266 -24.880 -15.714  0.00  0.00    +0.000 C 
ATOM      9  C   UNL     1      35.676 -23.519 -11.809  0.00  0.00    +0.000 C 
ATOM     10  C   UNL     1      37.024 -24.260 -11.738  0.00  0.00    +0.007 C 
ATOM     11  C   UNL     1      32.653 -23.246 -12.531  0.00  0.00    +0.025 C 
ATOM     12  C   UNL     1      30.976 -23.090 -14.404  0.00  0.00    -0.047 C 
ATOM     13  C   UNL     1      36.643 -23.245 -14.665  0.00  0.00    +0.000 C 
ATOM     14  C   UNL     1      31.162 -24.830 -16.254  0.00  0.00    +0.006 C 
ATOM     15  C   UNL     1      31.321 -22.905 -13.117  0.00  0.00    -0.035 C 
ATOM     16  C   UNL     1      32.369 -22.603 -16.394  0.00  0.00    +0.004 C 
ATOM     17  C   UNL     1      29.595 -22.672 -14.869  0.00  0.00    +0.051 C 
ATOM     18  C   UNL     1      29.671 -24.970 -15.937  0.00  0.00    +0.030 C 
ATOM     19  C   UNL     1      28.971 -23.618 -15.900  0.00  0.00    +0.115 C 
ENDROOT
BRANCH   7  21
ATOM     20  O   UNL     1      39.397 -24.467 -13.145  0.00  0.00    -0.296 OA
ATOM     21  C   UNL     1      38.500 -25.198 -13.563  0.00  0.00    +0.151 C 
ATOM     22  C   UNL     1      38.745 -26.204 -14.656  0.00  0.00    +0.072 C 
ENDBRANCH   7  21
BRANCH  19  23
ATOM     23  O   UNL     1      29.039 -23.008 -17.188  0.00  0.00    -0.384 OA
ATOM     24  H   UNL     1      29.627 -23.525 -17.760  0.00  0.00    +0.210 HD
ENDBRANCH  19  23
TORSDOF 2
ENDMDL
MODEL 9
REMARK VINA RESULT:      -6.3      6.395      8.694
REMARK  Name = 8955
REMARK  2 active torsions:
REMARK  status: ('A' for Active; 'I' for Inactive)
REMARK    1  A    between atoms: C_7  and  C_21
REMARK    2  A    between atoms: C_19  and  O_23
REMARK                            x       y       z     vdW  Elec       q    Type
REMARK                         _______ _______ _______ _____ _____    ______ ____
ROOT
ATOM      1  C   UNL     1      34.080 -21.749 -19.148  0.00  0.00    +0.007 C 
ATOM      2  C   UNL     1      35.357 -20.887 -19.221  0.00  0.00    +0.001 C 
ATOM      3  C   UNL     1      35.562 -20.217 -20.583  0.00  0.00    +0.005 C 
ATOM      4  C   UNL     1      34.330 -19.324 -20.909  0.00  0.00    +0.004 C 
ATOM      5  C   UNL     1      34.472 -18.615 -22.316  0.00  0.00    +0.015 C 
ATOM      6  C   UNL     1      32.881 -20.817 -19.368  0.00  0.00    +0.000 C 
ATOM      7  C   UNL     1      34.224 -22.291 -17.709  0.00  0.00    +0.058 C 
ATOM      8  C   UNL     1      32.984 -20.078 -20.713  0.00  0.00    +0.000 C 
ATOM      9  C   UNL     1      36.442 -21.813 -18.684  0.00  0.00    +0.000 C 
ATOM     10  C   UNL     1      35.731 -22.601 -17.568  0.00  0.00    +0.007 C 
ATOM     11  C   UNL     1      36.843 -19.372 -20.585  0.00  0.00    +0.025 C 
ATOM     12  C   UNL     1      35.893 -18.083 -22.529  0.00  0.00    -0.047 C 
ATOM     13  C   UNL     1      34.048 -22.908 -20.179  0.00  0.00    +0.000 C 
ATOM     14  C   UNL     1      33.431 -17.447 -22.388  0.00  0.00    +0.006 C 
ATOM     15  C   UNL     1      36.924 -18.419 -21.733  0.00  0.00    -0.035 C 
ATOM     16  C   UNL     1      34.187 -19.615 -23.467  0.00  0.00    +0.004 C 
ATOM     17  C   UNL     1      36.126 -17.120 -23.678  0.00  0.00    +0.051 C 
ATOM     18  C   UNL     1      34.018 -16.075 -22.734  0.00  0.00    +0.030 C 
ATOM     19  C   UNL     1      34.967 -16.150 -23.923  0.00  0.00    +0.115 C 
ENDROOT
BRANCH   7  21
ATOM     20  O   UNL     1      33.708 -24.620 -17.725  0.00  0.00    -0.296 OA
ATOM     21  C   UNL     1      33.367 -23.481 -17.408  0.00  0.00    +0.151 C 
ATOM     22  C   UNL     1      32.068 -23.215 -16.695  0.00  0.00    +0.072 C 
ENDBRANCH   7  21
BRANCH  19  23
ATOM     23  O   UNL     1      34.250 -16.570 -25.082  0.00  0.00    -0.384 OA
ATOM     24  H   UNL     1      33.323 -16.296 -25.007  0.00  0.00    +0.210 HD
ENDBRANCH  19  23
TORSDOF 2
ENDMDL
