MODEL 1
REMARK VINA RESULT:      -5.3      0.000      0.000
REMARK  Name = 17754166
REMARK  6 active torsions:
REMARK  status: ('A' for Active; 'I' for Inactive)
REMARK    1  A    between atoms: C_1  and  C_3
REMARK    2  A    between atoms: C_1  and  C_6
REMARK    3  A    between atoms: C_1  and  C_10
REMARK    4  A    between atoms: C_3  and  O_4
REMARK    5  A    between atoms: C_6  and  C_7
REMARK    6  A    between atoms: C_10  and  S_11
REMARK                            x       y       z     vdW  Elec       q    Type
REMARK                         _______ _______ _______ _____ _____    ______ ____
ROOT
ATOM      1  C   UNL     1      35.312 -17.957 -22.252  0.00  0.00    +0.109 C 
ENDROOT
BRANCH   1   3
ATOM      2  O   UNL     1      34.360 -17.768 -24.491  0.00  0.00    -0.250 OA
ATOM      3  C   UNL     1      35.071 -17.307 -23.608  0.00  0.00    +0.314 C 
BRANCH   3   4
ATOM      4  O   UNL     1      35.754 -16.140 -23.748  0.00  0.00    -0.480 OA
ATOM      5  H   UNL     1      36.465 -16.083 -24.355  0.00  0.00    +0.295 HD
ENDBRANCH   3   4
ENDBRANCH   1   3
BRANCH   1   6
ATOM      6  C   UNL     1      34.523 -19.274 -22.095  0.00  0.00    +0.012 C 
BRANCH   6   7
ATOM      7  C   UNL     1      34.315 -19.739 -20.637  0.00  0.00    +0.001 C 
ATOM      8  C   UNL     1      35.312 -20.819 -20.215  0.00  0.00    +0.000 C 
ATOM      9  C   UNL     1      32.887 -20.268 -20.466  0.00  0.00    +0.000 C 
ENDBRANCH   6   7
ENDBRANCH   1   6
BRANCH   1  10
ATOM     10  C   UNL     1      35.024 -16.955 -21.117  0.00  0.00    +0.064 C 
BRANCH  10  11
ATOM     11  S   UNL     1      33.430 -16.081 -21.235  0.00  0.00    -0.167 S 
ATOM     12  H   UNL     1      33.434 -15.016 -20.391  0.00  0.00    +0.102 HD
ENDBRANCH  10  11
ENDBRANCH   1  10
TORSDOF 6
ENDMDL
MODEL 2
REMARK VINA RESULT:      -5.1      2.126      2.823
REMARK  Name = 17754166
REMARK  6 active torsions:
REMARK  status: ('A' for Active; 'I' for Inactive)
REMARK    1  A    between atoms: C_1  and  C_3
REMARK    2  A    between atoms: C_1  and  C_6
REMARK    3  A    between atoms: C_1  and  C_10
REMARK    4  A    between atoms: C_3  and  O_4
REMARK    5  A    between atoms: C_6  and  C_7
REMARK    6  A    between atoms: C_10  and  S_11
REMARK                            x       y       z     vdW  Elec       q    Type
REMARK                         _______ _______ _______ _____ _____    ______ ____
ROOT
ATOM      1  C   UNL     1      34.683 -17.219 -21.992  0.00  0.00    +0.109 C 
ENDROOT
BRANCH   1   3
ATOM      2  O   UNL     1      34.983 -15.966 -19.919  0.00  0.00    -0.250 OA
ATOM      3  C   UNL     1      34.687 -15.980 -21.107  0.00  0.00    +0.314 C 
BRANCH   3   4
ATOM      4  O   UNL     1      34.305 -14.864 -21.782  0.00  0.00    -0.480 OA
ATOM      5  H   UNL     1      33.474 -14.839 -22.214  0.00  0.00    +0.295 HD
ENDBRANCH   3   4
ENDBRANCH   1   3
BRANCH   1   6
ATOM      6  C   UNL     1      35.498 -18.374 -21.371  0.00  0.00    +0.012 C 
BRANCH   6   7
ATOM      7  C   UNL     1      34.743 -19.717 -21.261  0.00  0.00    +0.001 C 
ATOM      8  C   UNL     1      33.289 -19.541 -20.819  0.00  0.00    +0.000 C 
ATOM      9  C   UNL     1      35.470 -20.635 -20.271  0.00  0.00    +0.000 C 
ENDBRANCH   6   7
ENDBRANCH   1   6
BRANCH   1  10
ATOM     10  C   UNL     1      35.149 -16.864 -23.417  0.00  0.00    +0.064 C 
BRANCH  10  11
ATOM     11  S   UNL     1      34.606 -18.014 -24.722  0.00  0.00    -0.167 S 
ATOM     12  H   UNL     1      34.250 -17.308 -25.828  0.00  0.00    +0.102 HD
ENDBRANCH  10  11
ENDBRANCH   1  10
TORSDOF 6
ENDMDL
MODEL 3
REMARK VINA RESULT:      -5.0      9.121     10.710
REMARK  Name = 17754166
REMARK  6 active torsions:
REMARK  status: ('A' for Active; 'I' for Inactive)
REMARK    1  A    between atoms: C_1  and  C_3
REMARK    2  A    between atoms: C_1  and  C_6
REMARK    3  A    between atoms: C_1  and  C_10
REMARK    4  A    between atoms: C_3  and  O_4
REMARK    5  A    between atoms: C_6  and  C_7
REMARK    6  A    between atoms: C_10  and  S_11
REMARK                            x       y       z     vdW  Elec       q    Type
REMARK                         _______ _______ _______ _____ _____    ______ ____
ROOT
ATOM      1  C   UNL     1      36.793 -25.322 -14.470  0.00  0.00    +0.109 C 
ENDROOT
BRANCH   1   3
ATOM      2  O   UNL     1      38.346 -27.199 -14.619  0.00  0.00    -0.250 OA
ATOM      3  C   UNL     1      37.369 -26.604 -15.056  0.00  0.00    +0.314 C 
BRANCH   3   4
ATOM      4  O   UNL     1      36.679 -27.025 -16.148  0.00  0.00    -0.480 OA
ATOM      5  H   UNL     1      36.484 -26.424 -16.840  0.00  0.00    +0.295 HD
ENDBRANCH   3   4
ENDBRANCH   1   3
BRANCH   1   6
ATOM      6  C   UNL     1      37.502 -24.067 -15.022  0.00  0.00    +0.012 C 
BRANCH   6   7
ATOM      7  C   UNL     1      36.560 -22.912 -15.428  0.00  0.00    +0.001 C 
ATOM      8  C   UNL     1      35.161 -23.400 -15.807  0.00  0.00    +0.000 C 
ATOM      9  C   UNL     1      37.169 -22.143 -16.605  0.00  0.00    +0.000 C 
ENDBRANCH   6   7
ENDBRANCH   1   6
BRANCH   1  10
ATOM     10  C   UNL     1      36.805 -25.381 -12.930  0.00  0.00    +0.064 C 
BRANCH  10  11
ATOM     11  S   UNL     1      35.476 -24.447 -12.105  0.00  0.00    -0.167 S 
ATOM     12  H   UNL     1      34.442 -25.283 -11.822  0.00  0.00    +0.102 HD
ENDBRANCH  10  11
ENDBRANCH   1  10
TORSDOF 6
ENDMDL
MODEL 4
REMARK VINA RESULT:      -5.0      1.665      2.185
REMARK  Name = 17754166
REMARK  6 active torsions:
REMARK  status: ('A' for Active; 'I' for Inactive)
REMARK    1  A    between atoms: C_1  and  C_3
REMARK    2  A    between atoms: C_1  and  C_6
REMARK    3  A    between atoms: C_1  and  C_10
REMARK    4  A    between atoms: C_3  and  O_4
REMARK    5  A    between atoms: C_6  and  C_7
REMARK    6  A    between atoms: C_10  and  S_11
REMARK                            x       y       z     vdW  Elec       q    Type
REMARK                         _______ _______ _______ _____ _____    ______ ____
ROOT
ATOM      1  C   UNL     1      35.003 -16.940 -23.793  0.00  0.00    +0.109 C 
ENDROOT
BRANCH   1   3
ATOM      2  O   UNL     1      34.301 -16.081 -25.967  0.00  0.00    -0.250 OA
ATOM      3  C   UNL     1      34.392 -17.019 -25.186  0.00  0.00    +0.314 C 
BRANCH   3   4
ATOM      4  O   UNL     1      33.934 -18.264 -25.477  0.00  0.00    -0.480 OA
ATOM      5  H   UNL     1      33.903 -18.557 -26.366  0.00  0.00    +0.295 HD
ENDBRANCH   3   4
ENDBRANCH   1   3
BRANCH   1   6
ATOM      6  C   UNL     1      35.381 -18.334 -23.249  0.00  0.00    +0.012 C 
BRANCH   6   7
ATOM      7  C   UNL     1      35.147 -18.527 -21.735  0.00  0.00    +0.001 C 
ATOM      8  C   UNL     1      36.414 -18.958 -20.993  0.00  0.00    +0.000 C 
ATOM      9  C   UNL     1      34.047 -19.572 -21.515  0.00  0.00    +0.000 C 
ENDBRANCH   6   7
ENDBRANCH   1   6
BRANCH   1  10
ATOM     10  C   UNL     1      34.073 -16.164 -22.841  0.00  0.00    +0.064 C 
BRANCH  10  11
ATOM     11  S   UNL     1      34.286 -14.355 -22.847  0.00  0.00    -0.167 S 
ATOM     12  H   UNL     1      33.552 -13.814 -23.854  0.00  0.00    +0.102 HD
ENDBRANCH  10  11
ENDBRANCH   1  10
TORSDOF 6
ENDMDL
MODEL 5
REMARK VINA RESULT:      -5.0      9.990     11.073
REMARK  Name = 17754166
REMARK  6 active torsions:
REMARK  status: ('A' for Active; 'I' for Inactive)
REMARK    1  A    between atoms: C_1  and  C_3
REMARK    2  A    between atoms: C_1  and  C_6
REMARK    3  A    between atoms: C_1  and  C_10
REMARK    4  A    between atoms: C_3  and  O_4
REMARK    5  A    between atoms: C_6  and  C_7
REMARK    6  A    between atoms: C_10  and  S_11
REMARK                            x       y       z     vdW  Elec       q    Type
REMARK                         _______ _______ _______ _____ _____    ______ ____
ROOT
ATOM      1  C   UNL     1      32.609  -8.392 -22.260  0.00  0.00    +0.109 C 
ENDROOT
BRANCH   1   3
ATOM      2  O   UNL     1      31.609  -9.729 -20.480  0.00  0.00    -0.250 OA
ATOM      3  C   UNL     1      32.333  -8.803 -20.820  0.00  0.00    +0.314 C 
BRANCH   3   4
ATOM      4  O   UNL     1      32.979  -8.008 -19.927  0.00  0.00    -0.480 OA
ATOM      5  H   UNL     1      33.754  -8.316 -19.500  0.00  0.00    +0.295 HD
ENDBRANCH   3   4
ENDBRANCH   1   3
BRANCH   1   6
ATOM      6  C   UNL     1      33.811  -7.430 -22.366  0.00  0.00    +0.012 C 
BRANCH   6   7
ATOM      7  C   UNL     1      34.735  -7.674 -23.580  0.00  0.00    +0.001 C 
ATOM      8  C   UNL     1      34.425  -6.741 -24.752  0.00  0.00    +0.000 C 
ATOM      9  C   UNL     1      34.606  -9.130 -24.039  0.00  0.00    +0.000 C 
ENDBRANCH   6   7
ENDBRANCH   1   6
BRANCH   1  10
ATOM     10  C   UNL     1      31.334  -7.822 -22.910  0.00  0.00    +0.064 C 
BRANCH  10  11
ATOM     11  S   UNL     1      31.020  -6.056 -22.590  0.00  0.00    -0.167 S 
ATOM     12  H   UNL     1      30.139  -5.578 -23.508  0.00  0.00    +0.102 HD
ENDBRANCH  10  11
ENDBRANCH   1  10
TORSDOF 6
ENDMDL
MODEL 6
REMARK VINA RESULT:      -4.9      2.422      2.957
REMARK  Name = 17754166
REMARK  6 active torsions:
REMARK  status: ('A' for Active; 'I' for Inactive)
REMARK    1  A    between atoms: C_1  and  C_3
REMARK    2  A    between atoms: C_1  and  C_6
REMARK    3  A    between atoms: C_1  and  C_10
REMARK    4  A    between atoms: C_3  and  O_4
REMARK    5  A    between atoms: C_6  and  C_7
REMARK    6  A    between atoms: C_10  and  S_11
REMARK                            x       y       z     vdW  Elec       q    Type
REMARK                         _______ _______ _______ _____ _____    ______ ____
ROOT
ATOM      1  C   UNL     1      34.334 -16.589 -22.020  0.00  0.00    +0.109 C 
ENDROOT
BRANCH   1   3
ATOM      2  O   UNL     1      32.680 -15.538 -20.564  0.00  0.00    -0.250 OA
ATOM      3  C   UNL     1      33.852 -15.704 -20.878  0.00  0.00    +0.314 C 
BRANCH   3   4
ATOM      4  O   UNL     1      34.879 -15.090 -20.235  0.00  0.00    -0.480 OA
ATOM      5  H   UNL     1      34.753 -14.245 -19.849  0.00  0.00    +0.295 HD
ENDBRANCH   3   4
ENDBRANCH   1   3
BRANCH   1   6
ATOM      6  C   UNL     1      35.360 -17.639 -21.542  0.00  0.00    +0.012 C 
BRANCH   6   7
ATOM      7  C   UNL     1      34.999 -19.102 -21.879  0.00  0.00    +0.001 C 
ATOM      8  C   UNL     1      34.787 -19.326 -23.377  0.00  0.00    +0.000 C 
ATOM      9  C   UNL     1      33.732 -19.507 -21.117  0.00  0.00    +0.000 C 
ENDBRANCH   6   7
ENDBRANCH   1   6
BRANCH   1  10
ATOM     10  C   UNL     1      34.864 -15.728 -23.182  0.00  0.00    +0.064 C 
BRANCH  10  11
ATOM     11  S   UNL     1      33.654 -14.579 -23.914  0.00  0.00    -0.167 S 
ATOM     12  H   UNL     1      32.420 -14.836 -23.406  0.00  0.00    +0.102 HD
ENDBRANCH  10  11
ENDBRANCH   1  10
TORSDOF 6
ENDMDL
MODEL 7
REMARK VINA RESULT:      -4.9      2.127      3.564
REMARK  Name = 17754166
REMARK  6 active torsions:
REMARK  status: ('A' for Active; 'I' for Inactive)
REMARK    1  A    between atoms: C_1  and  C_3
REMARK    2  A    between atoms: C_1  and  C_6
REMARK    3  A    between atoms: C_1  and  C_10
REMARK    4  A    between atoms: C_3  and  O_4
REMARK    5  A    between atoms: C_6  and  C_7
REMARK    6  A    between atoms: C_10  and  S_11
REMARK                            x       y       z     vdW  Elec       q    Type
REMARK                         _______ _______ _______ _____ _____    ______ ____
ROOT
ATOM      1  C   UNL     1      34.414 -17.285 -21.864  0.00  0.00    +0.109 C 
ENDROOT
BRANCH   1   3
ATOM      2  O   UNL     1      34.968 -18.163 -24.073  0.00  0.00    -0.250 OA
ATOM      3  C   UNL     1      35.034 -17.255 -23.256  0.00  0.00    +0.314 C 
BRANCH   3   4
ATOM      4  O   UNL     1      35.695 -16.093 -23.498  0.00  0.00    -0.480 OA
ATOM      5  H   UNL     1      36.547 -16.112 -23.889  0.00  0.00    +0.295 HD
ENDBRANCH   3   4
ENDBRANCH   1   3
BRANCH   1   6
ATOM      6  C   UNL     1      34.730 -16.003 -21.065  0.00  0.00    +0.012 C 
BRANCH   6   7
ATOM      7  C   UNL     1      33.508 -15.105 -20.767  0.00  0.00    +0.001 C 
ATOM      8  C   UNL     1      32.220 -15.907 -20.581  0.00  0.00    +0.000 C 
ATOM      9  C   UNL     1      33.322 -14.097 -21.907  0.00  0.00    +0.000 C 
ENDBRANCH   6   7
ENDBRANCH   1   6
BRANCH   1  10
ATOM     10  C   UNL     1      34.831 -18.567 -21.118  0.00  0.00    +0.064 C 
BRANCH  10  11
ATOM     11  S   UNL     1      33.509 -19.800 -20.891  0.00  0.00    -0.167 S 
ATOM     12  H   UNL     1      32.306 -19.230 -21.165  0.00  0.00    +0.102 HD
ENDBRANCH  10  11
ENDBRANCH   1  10
TORSDOF 6
ENDMDL
MODEL 8
REMARK VINA RESULT:      -4.9      9.454     10.898
REMARK  Name = 17754166
REMARK  6 active torsions:
REMARK  status: ('A' for Active; 'I' for Inactive)
REMARK    1  A    between atoms: C_1  and  C_3
REMARK    2  A    between atoms: C_1  and  C_6
REMARK    3  A    between atoms: C_1  and  C_10
REMARK    4  A    between atoms: C_3  and  O_4
REMARK    5  A    between atoms: C_6  and  C_7
REMARK    6  A    between atoms: C_10  and  S_11
REMARK                            x       y       z     vdW  Elec       q    Type
REMARK                         _______ _______ _______ _____ _____    ______ ____
ROOT
ATOM      1  C   UNL     1      38.467 -25.349 -14.992  0.00  0.00    +0.109 C 
ENDROOT
BRANCH   1   3
ATOM      2  O   UNL     1      40.634 -26.044 -15.875  0.00  0.00    -0.250 OA
ATOM      3  C   UNL     1      39.987 -25.446 -15.025  0.00  0.00    +0.314 C 
BRANCH   3   4
ATOM      4  O   UNL     1      40.566 -24.797 -13.981  0.00  0.00    -0.480 OA
ATOM      5  H   UNL     1      41.484 -24.610 -13.997  0.00  0.00    +0.295 HD
ENDBRANCH   3   4
ENDBRANCH   1   3
BRANCH   1   6
ATOM      6  C   UNL     1      37.988 -23.913 -14.689  0.00  0.00    +0.012 C 
BRANCH   6   7
ATOM      7  C   UNL     1      36.937 -23.356 -15.675  0.00  0.00    +0.001 C 
ATOM      8  C   UNL     1      37.366 -22.031 -16.306  0.00  0.00    +0.000 C 
ATOM      9  C   UNL     1      35.601 -23.167 -14.949  0.00  0.00    +0.000 C 
ENDBRANCH   6   7
ENDBRANCH   1   6
BRANCH   1  10
ATOM     10  C   UNL     1      37.883 -26.388 -14.015  0.00  0.00    +0.064 C 
BRANCH  10  11
ATOM     11  S   UNL     1      37.162 -25.702 -12.489  0.00  0.00    -0.167 S 
ATOM     12  H   UNL     1      37.562 -24.411 -12.339  0.00  0.00    +0.102 HD
ENDBRANCH  10  11
ENDBRANCH   1  10
TORSDOF 6
ENDMDL
MODEL 9
REMARK VINA RESULT:      -4.9     10.408     11.547
REMARK  Name = 17754166
REMARK  6 active torsions:
REMARK  status: ('A' for Active; 'I' for Inactive)
REMARK    1  A    between atoms: C_1  and  C_3
REMARK    2  A    between atoms: C_1  and  C_6
REMARK    3  A    between atoms: C_1  and  C_10
REMARK    4  A    between atoms: C_3  and  O_4
REMARK    5  A    between atoms: C_6  and  C_7
REMARK    6  A    between atoms: C_10  and  S_11
REMARK                            x       y       z     vdW  Elec       q    Type
REMARK                         _______ _______ _______ _____ _____    ______ ____
ROOT
ATOM      1  C   UNL     1      38.682 -25.237 -14.426  0.00  0.00    +0.109 C 
ENDROOT
BRANCH   1   3
ATOM      2  O   UNL     1      41.057 -24.699 -14.263  0.00  0.00    -0.250 OA
ATOM      3  C   UNL     1      40.142 -25.249 -14.861  0.00  0.00    +0.314 C 
BRANCH   3   4
ATOM      4  O   UNL     1      40.328 -25.937 -16.018  0.00  0.00    -0.480 OA
ATOM      5  H   UNL     1      39.589 -26.198 -16.532  0.00  0.00    +0.295 HD
ENDBRANCH   3   4
ENDBRANCH   1   3
BRANCH   1   6
ATOM      6  C   UNL     1      38.501 -24.597 -13.033  0.00  0.00    +0.012 C 
BRANCH   6   7
ATOM      7  C   UNL     1      37.117 -23.955 -12.787  0.00  0.00    +0.001 C 
ATOM      8  C   UNL     1      36.566 -23.252 -14.028  0.00  0.00    +0.000 C 
ATOM      9  C   UNL     1      37.215 -22.952 -11.633  0.00  0.00    +0.000 C 
ENDBRANCH   6   7
ENDBRANCH   1   6
BRANCH   1  10
ATOM     10  C   UNL     1      38.085 -26.655 -14.510  0.00  0.00    +0.064 C 
BRANCH  10  11
ATOM     11  S   UNL     1      36.517 -26.786 -15.428  0.00  0.00    -0.167 S 
ATOM     12  H   UNL     1      36.004 -25.543 -15.629  0.00  0.00    +0.102 HD
ENDBRANCH  10  11
ENDBRANCH   1  10
TORSDOF 6
ENDMDL
