MODEL 1
REMARK VINA RESULT:      -8.2      0.000      0.000
REMARK  Name = 2144
REMARK  12 active torsions:
REMARK  status: ('A' for Active; 'I' for Inactive)
REMARK    1  A    between atoms: N_2  and  C_17
REMARK    2  A    between atoms: C_3  and  C_5
REMARK    3  A    between atoms: C_6  and  S_11
REMARK    4  A    between atoms: S_11  and  N_14
REMARK    5  A    between atoms: C_17  and  C_18
REMARK    6  A    between atoms: C_18  and  O_19
REMARK    7  A    between atoms: O_19  and  C_20
REMARK    8  A    between atoms: C_20  and  C_21
REMARK    9  A    between atoms: C_21  and  O_22
REMARK   10  A    between atoms: O_22  and  C_23
REMARK   11  A    between atoms: C_23  and  C_24
REMARK   12  A    between atoms: C_24  and  N_25
REMARK                            x       y       z     vdW  Elec       q    Type
REMARK                         _______ _______ _______ _____ _____    ______ ____
ROOT
ATOM      1  O   UNL     1      35.079 -17.049 -21.383  0.00  0.00    -0.270 OA
ATOM      2  N   UNL     1      34.925 -18.375 -23.279  0.00  0.00    -0.298 N 
ATOM      3  C   UNL     1      34.891 -18.167 -21.896  0.00  0.00    +0.246 C 
ATOM      4  H   UNL     1      34.767 -19.286 -23.618  0.00  0.00    +0.150 HD
ENDROOT
BRANCH   3   5
ATOM      5  C   UNL     1      34.649 -19.331 -21.059  0.00  0.00    +0.053 C 
ATOM      6  C   UNL     1      34.183 -21.567 -19.457  0.00  0.00    +0.122 C 
ATOM      7  C   UNL     1      35.721 -20.090 -20.591  0.00  0.00    +0.006 C 
ATOM      8  C   UNL     1      33.343 -19.691 -20.725  0.00  0.00    +0.006 C 
ATOM      9  C   UNL     1      35.489 -21.208 -19.790  0.00  0.00    +0.020 C 
ATOM     10  C   UNL     1      33.109 -20.808 -19.924  0.00  0.00    +0.020 C 
BRANCH   6  11
ATOM     11  S   UNL     1      33.891 -22.966 -18.454  0.00  0.00    +0.057 S 
ATOM     12  O   UNL     1      33.854 -24.144 -19.310  0.00  0.00    -0.153 OA
ATOM     13  O   UNL     1      34.806 -22.924 -17.321  0.00  0.00    -0.153 OA
BRANCH  11  14
ATOM     14  N   UNL     1      32.310 -22.641 -17.895  0.00  0.00    -0.203 NA
ATOM     15  H   UNL     1      31.648 -22.754 -18.663  0.00  0.00    +0.144 HD
ATOM     16  H   UNL     1      32.263 -21.685 -17.543  0.00  0.00    +0.144 HD
ENDBRANCH  11  14
ENDBRANCH   6  11
ENDBRANCH   3   5
BRANCH   2  17
ATOM     17  C   UNL     1      35.177 -17.324 -24.239  0.00  0.00    +0.122 C 
BRANCH  17  18
ATOM     18  C   UNL     1      34.077 -17.278 -25.288  0.00  0.00    +0.163 C 
BRANCH  18  19
ATOM     19  O   UNL     1      34.226 -16.091 -26.054  0.00  0.00    -0.349 OA
BRANCH  19  20
ATOM     20  C   UNL     1      32.971 -15.475 -26.309  0.00  0.00    +0.174 C 
BRANCH  20  21
ATOM     21  C   UNL     1      33.079 -13.992 -26.009  0.00  0.00    +0.174 C 
BRANCH  21  22
ATOM     22  O   UNL     1      32.690 -13.762 -24.660  0.00  0.00    -0.353 OA
BRANCH  22  23
ATOM     23  C   UNL     1      33.730 -13.142 -23.917  0.00  0.00    +0.119 C 
BRANCH  23  24
ATOM     24  C   UNL     1      34.179 -14.094 -22.819  0.00  0.00    -0.054 C 
BRANCH  24  25
ATOM     25  N   UNL     1      33.095 -14.990 -22.442  0.00  0.00    +0.382 N 
ATOM     26  H   UNL     1      32.927 -15.655 -23.198  0.00  0.00    -0.089 HD
ATOM     27  H   UNL     1      32.248 -14.447 -22.272  0.00  0.00    -0.089 HD
ATOM     28  H   UNL     1      33.351 -15.495 -21.595  0.00  0.00    -0.089 HD
ENDBRANCH  24  25
ENDBRANCH  23  24
ENDBRANCH  22  23
ENDBRANCH  21  22
ENDBRANCH  20  21
ENDBRANCH  19  20
ENDBRANCH  18  19
ENDBRANCH  17  18
ENDBRANCH   2  17
TORSDOF 12
ENDMDL
MODEL 2
REMARK VINA RESULT:      -7.9      1.271      1.464
REMARK  Name = 2144
REMARK  12 active torsions:
REMARK  status: ('A' for Active; 'I' for Inactive)
REMARK    1  A    between atoms: N_2  and  C_17
REMARK    2  A    between atoms: C_3  and  C_5
REMARK    3  A    between atoms: C_6  and  S_11
REMARK    4  A    between atoms: S_11  and  N_14
REMARK    5  A    between atoms: C_17  and  C_18
REMARK    6  A    between atoms: C_18  and  O_19
REMARK    7  A    between atoms: O_19  and  C_20
REMARK    8  A    between atoms: C_20  and  C_21
REMARK    9  A    between atoms: C_21  and  O_22
REMARK   10  A    between atoms: O_22  and  C_23
REMARK   11  A    between atoms: C_23  and  C_24
REMARK   12  A    between atoms: C_24  and  N_25
REMARK                            x       y       z     vdW  Elec       q    Type
REMARK                         _______ _______ _______ _____ _____    ______ ____
ROOT
ATOM      1  O   UNL     1      35.414 -17.057 -21.861  0.00  0.00    -0.270 OA
ATOM      2  N   UNL     1      34.808 -18.389 -23.660  0.00  0.00    -0.298 N 
ATOM      3  C   UNL     1      34.996 -18.145 -22.295  0.00  0.00    +0.246 C 
ATOM      4  H   UNL     1      34.473 -19.273 -23.935  0.00  0.00    +0.150 HD
ENDROOT
BRANCH   3   5
ATOM      5  C   UNL     1      34.702 -19.240 -21.384  0.00  0.00    +0.053 C 
ATOM      6  C   UNL     1      34.139 -21.341 -19.637  0.00  0.00    +0.122 C 
ATOM      7  C   UNL     1      35.743 -19.965 -20.805  0.00  0.00    +0.006 C 
ATOM      8  C   UNL     1      33.378 -19.566 -21.088  0.00  0.00    +0.006 C 
ATOM      9  C   UNL     1      35.462 -21.015 -19.932  0.00  0.00    +0.020 C 
ATOM     10  C   UNL     1      33.096 -20.616 -20.215  0.00  0.00    +0.020 C 
BRANCH   6  11
ATOM     11  S   UNL     1      33.786 -22.656 -18.544  0.00  0.00    +0.057 S 
ATOM     12  O   UNL     1      34.851 -22.730 -17.555  0.00  0.00    -0.153 OA
ATOM     13  O   UNL     1      32.400 -22.537 -18.108  0.00  0.00    -0.153 OA
BRANCH  11  14
ATOM     14  N   UNL     1      33.915 -23.997 -19.596  0.00  0.00    -0.203 NA
ATOM     15  H   UNL     1      32.984 -24.286 -19.894  0.00  0.00    +0.144 HD
ATOM     16  H   UNL     1      34.372 -24.768 -19.109  0.00  0.00    +0.144 HD
ENDBRANCH  11  14
ENDBRANCH   6  11
ENDBRANCH   3   5
BRANCH   2  17
ATOM     17  C   UNL     1      35.077 -17.411 -24.690  0.00  0.00    +0.122 C 
BRANCH  17  18
ATOM     18  C   UNL     1      33.826 -16.609 -25.010  0.00  0.00    +0.163 C 
BRANCH  18  19
ATOM     19  O   UNL     1      33.900 -15.359 -24.337  0.00  0.00    -0.349 OA
BRANCH  19  20
ATOM     20  C   UNL     1      33.159 -14.356 -25.018  0.00  0.00    +0.174 C 
BRANCH  20  21
ATOM     21  C   UNL     1      33.521 -12.999 -24.443  0.00  0.00    +0.174 C 
BRANCH  21  22
ATOM     22  O   UNL     1      33.703 -13.123 -23.038  0.00  0.00    -0.353 OA
BRANCH  22  23
ATOM     23  C   UNL     1      32.459 -13.181 -22.354  0.00  0.00    +0.119 C 
BRANCH  23  24
ATOM     24  C   UNL     1      32.631 -14.021 -21.098  0.00  0.00    -0.054 C 
BRANCH  24  25
ATOM     25  N   UNL     1      32.731 -15.434 -21.436  0.00  0.00    +0.382 N 
ATOM     26  H   UNL     1      32.235 -15.986 -20.735  0.00  0.00    -0.089 HD
ATOM     27  H   UNL     1      33.712 -15.711 -21.456  0.00  0.00    -0.089 HD
ATOM     28  H   UNL     1      32.313 -15.594 -22.353  0.00  0.00    -0.089 HD
ENDBRANCH  24  25
ENDBRANCH  23  24
ENDBRANCH  22  23
ENDBRANCH  21  22
ENDBRANCH  20  21
ENDBRANCH  19  20
ENDBRANCH  18  19
ENDBRANCH  17  18
ENDBRANCH   2  17
TORSDOF 12
ENDMDL
MODEL 3
REMARK VINA RESULT:      -7.9      4.066     10.144
REMARK  Name = 2144
REMARK  12 active torsions:
REMARK  status: ('A' for Active; 'I' for Inactive)
REMARK    1  A    between atoms: N_2  and  C_17
REMARK    2  A    between atoms: C_3  and  C_5
REMARK    3  A    between atoms: C_6  and  S_11
REMARK    4  A    between atoms: S_11  and  N_14
REMARK    5  A    between atoms: C_17  and  C_18
REMARK    6  A    between atoms: C_18  and  O_19
REMARK    7  A    between atoms: O_19  and  C_20
REMARK    8  A    between atoms: C_20  and  C_21
REMARK    9  A    between atoms: C_21  and  O_22
REMARK   10  A    between atoms: O_22  and  C_23
REMARK   11  A    between atoms: C_23  and  C_24
REMARK   12  A    between atoms: C_24  and  N_25
REMARK                            x       y       z     vdW  Elec       q    Type
REMARK                         _______ _______ _______ _____ _____    ______ ____
ROOT
ATOM      1  O   UNL     1      33.847 -23.839 -19.375  0.00  0.00    -0.270 OA
ATOM      2  N   UNL     1      33.998 -22.584 -17.431  0.00  0.00    -0.298 N 
ATOM      3  C   UNL     1      34.027 -22.740 -18.822  0.00  0.00    +0.246 C 
ATOM      4  H   UNL     1      34.149 -21.685 -17.060  0.00  0.00    +0.150 HD
ENDROOT
BRANCH   3   5
ATOM      5  C   UNL     1      34.306 -21.552 -19.613  0.00  0.00    +0.053 C 
ATOM      6  C   UNL     1      34.840 -19.273 -21.132  0.00  0.00    +0.122 C 
ATOM      7  C   UNL     1      33.255 -20.785 -20.114  0.00  0.00    +0.006 C 
ATOM      8  C   UNL     1      35.625 -21.179 -19.871  0.00  0.00    +0.006 C 
ATOM      9  C   UNL     1      33.522 -19.646 -20.874  0.00  0.00    +0.020 C 
ATOM     10  C   UNL     1      35.893 -20.040 -20.630  0.00  0.00    +0.020 C 
BRANCH   6  11
ATOM     11  S   UNL     1      35.176 -17.848 -22.083  0.00  0.00    +0.057 S 
ATOM     12  O   UNL     1      34.359 -17.898 -23.288  0.00  0.00    -0.153 OA
ATOM     13  O   UNL     1      35.109 -16.683 -21.210  0.00  0.00    -0.153 OA
BRANCH  11  14
ATOM     14  N   UNL     1      36.807 -18.119 -22.510  0.00  0.00    -0.203 NA
ATOM     15  H   UNL     1      36.929 -19.094 -22.785  0.00  0.00    +0.144 HD
ATOM     16  H   UNL     1      37.407 -17.914 -21.711  0.00  0.00    +0.144 HD
ENDBRANCH  11  14
ENDBRANCH   6  11
ENDBRANCH   3   5
BRANCH   2  17
ATOM     17  C   UNL     1      33.757 -23.672 -16.511  0.00  0.00    +0.122 C 
BRANCH  17  18
ATOM     18  C   UNL     1      34.777 -23.657 -15.383  0.00  0.00    +0.163 C 
BRANCH  18  19
ATOM     19  O   UNL     1      36.063 -23.919 -15.927  0.00  0.00    -0.349 OA
BRANCH  19  20
ATOM     20  C   UNL     1      37.073 -23.176 -15.258  0.00  0.00    +0.174 C 
BRANCH  20  21
ATOM     21  C   UNL     1      37.036 -23.512 -13.779  0.00  0.00    +0.174 C 
BRANCH  21  22
ATOM     22  O   UNL     1      37.882 -24.629 -13.536  0.00  0.00    -0.353 OA
BRANCH  22  23
ATOM     23  C   UNL     1      37.132 -25.780 -13.172  0.00  0.00    +0.119 C 
BRANCH  23  24
ATOM     24  C   UNL     1      37.324 -26.845 -14.240  0.00  0.00    -0.054 C 
BRANCH  24  25
ATOM     25  N   UNL     1      36.165 -26.903 -15.120  0.00  0.00    +0.382 N 
ATOM     26  H   UNL     1      35.842 -27.868 -15.193  0.00  0.00    -0.089 HD
ATOM     27  H   UNL     1      36.423 -26.559 -16.045  0.00  0.00    -0.089 HD
ATOM     28  H   UNL     1      35.419 -26.323 -14.737  0.00  0.00    -0.089 HD
ENDBRANCH  24  25
ENDBRANCH  23  24
ENDBRANCH  22  23
ENDBRANCH  21  22
ENDBRANCH  20  21
ENDBRANCH  19  20
ENDBRANCH  18  19
ENDBRANCH  17  18
ENDBRANCH   2  17
TORSDOF 12
ENDMDL
MODEL 4
REMARK VINA RESULT:      -7.9      1.259      1.698
REMARK  Name = 2144
REMARK  12 active torsions:
REMARK  status: ('A' for Active; 'I' for Inactive)
REMARK    1  A    between atoms: N_2  and  C_17
REMARK    2  A    between atoms: C_3  and  C_5
REMARK    3  A    between atoms: C_6  and  S_11
REMARK    4  A    between atoms: S_11  and  N_14
REMARK    5  A    between atoms: C_17  and  C_18
REMARK    6  A    between atoms: C_18  and  O_19
REMARK    7  A    between atoms: O_19  and  C_20
REMARK    8  A    between atoms: C_20  and  C_21
REMARK    9  A    between atoms: C_21  and  O_22
REMARK   10  A    between atoms: O_22  and  C_23
REMARK   11  A    between atoms: C_23  and  C_24
REMARK   12  A    between atoms: C_24  and  N_25
REMARK                            x       y       z     vdW  Elec       q    Type
REMARK                         _______ _______ _______ _____ _____    ______ ____
ROOT
ATOM      1  O   UNL     1      36.663 -18.221 -22.033  0.00  0.00    -0.270 OA
ATOM      2  N   UNL     1      34.448 -17.905 -22.646  0.00  0.00    -0.298 N 
ATOM      3  C   UNL     1      35.465 -18.541 -21.925  0.00  0.00    +0.246 C 
ATOM      4  H   UNL     1      33.522 -18.208 -22.512  0.00  0.00    +0.150 HD
ENDROOT
BRANCH   3   5
ATOM      5  C   UNL     1      35.068 -19.628 -21.044  0.00  0.00    +0.053 C 
ATOM      6  C   UNL     1      34.306 -21.712 -19.353  0.00  0.00    +0.122 C 
ATOM      7  C   UNL     1      33.717 -19.853 -20.779  0.00  0.00    +0.006 C 
ATOM      8  C   UNL     1      36.038 -20.446 -20.464  0.00  0.00    +0.006 C 
ATOM      9  C   UNL     1      33.336 -20.895 -19.934  0.00  0.00    +0.020 C 
ATOM     10  C   UNL     1      35.657 -21.488 -19.619  0.00  0.00    +0.020 C 
BRANCH   6  11
ATOM     11  S   UNL     1      33.829 -23.016 -18.295  0.00  0.00    +0.057 S 
ATOM     12  O   UNL     1      33.744 -24.239 -19.081  0.00  0.00    -0.153 OA
ATOM     13  O   UNL     1      34.670 -22.977 -17.105  0.00  0.00    -0.153 OA
BRANCH  11  14
ATOM     14  N   UNL     1      32.250 -22.525 -17.865  0.00  0.00    -0.203 NA
ATOM     15  H   UNL     1      31.752 -22.215 -18.699  0.00  0.00    +0.144 HD
ATOM     16  H   UNL     1      32.303 -21.758 -17.195  0.00  0.00    +0.144 HD
ENDBRANCH  11  14
ENDBRANCH   6  11
ENDBRANCH   3   5
BRANCH   2  17
ATOM     17  C   UNL     1      34.686 -16.825 -23.577  0.00  0.00    +0.122 C 
BRANCH  17  18
ATOM     18  C   UNL     1      34.801 -17.356 -24.997  0.00  0.00    +0.163 C 
BRANCH  18  19
ATOM     19  O   UNL     1      34.599 -16.280 -25.904  0.00  0.00    -0.349 OA
BRANCH  19  20
ATOM     20  C   UNL     1      33.260 -15.806 -25.860  0.00  0.00    +0.174 C 
BRANCH  20  21
ATOM     21  C   UNL     1      33.266 -14.296 -25.994  0.00  0.00    +0.174 C 
BRANCH  21  22
ATOM     22  O   UNL     1      32.746 -13.721 -24.802  0.00  0.00    -0.353 OA
BRANCH  22  23
ATOM     23  C   UNL     1      33.780 -13.183 -23.989  0.00  0.00    +0.119 C 
BRANCH  23  24
ATOM     24  C   UNL     1      33.659 -11.667 -23.985  0.00  0.00    -0.054 C 
BRANCH  24  25
ATOM     25  N   UNL     1      34.652 -11.072 -24.869  0.00  0.00    +0.382 N 
ATOM     26  H   UNL     1      35.584 -11.373 -24.584  0.00  0.00    -0.089 HD
ATOM     27  H   UNL     1      34.590 -10.055 -24.814  0.00  0.00    -0.089 HD
ATOM     28  H   UNL     1      34.476 -11.372 -25.828  0.00  0.00    -0.089 HD
ENDBRANCH  24  25
ENDBRANCH  23  24
ENDBRANCH  22  23
ENDBRANCH  21  22
ENDBRANCH  20  21
ENDBRANCH  19  20
ENDBRANCH  18  19
ENDBRANCH  17  18
ENDBRANCH   2  17
TORSDOF 12
ENDMDL
MODEL 5
REMARK VINA RESULT:      -7.7      4.497     10.391
REMARK  Name = 2144
REMARK  12 active torsions:
REMARK  status: ('A' for Active; 'I' for Inactive)
REMARK    1  A    between atoms: N_2  and  C_17
REMARK    2  A    between atoms: C_3  and  C_5
REMARK    3  A    between atoms: C_6  and  S_11
REMARK    4  A    between atoms: S_11  and  N_14
REMARK    5  A    between atoms: C_17  and  C_18
REMARK    6  A    between atoms: C_18  and  O_19
REMARK    7  A    between atoms: O_19  and  C_20
REMARK    8  A    between atoms: C_20  and  C_21
REMARK    9  A    between atoms: C_21  and  O_22
REMARK   10  A    between atoms: O_22  and  C_23
REMARK   11  A    between atoms: C_23  and  C_24
REMARK   12  A    between atoms: C_24  and  N_25
REMARK                            x       y       z     vdW  Elec       q    Type
REMARK                         _______ _______ _______ _____ _____    ______ ____
ROOT
ATOM      1  O   UNL     1      33.737 -24.092 -18.840  0.00  0.00    -0.270 OA
ATOM      2  N   UNL     1      34.267 -22.828 -16.969  0.00  0.00    -0.298 N 
ATOM      3  C   UNL     1      34.109 -23.012 -18.348  0.00  0.00    +0.246 C 
ATOM      4  H   UNL     1      34.564 -21.947 -16.648  0.00  0.00    +0.150 HD
ENDROOT
BRANCH   3   5
ATOM      5  C   UNL     1      34.424 -21.880 -19.204  0.00  0.00    +0.053 C 
ATOM      6  C   UNL     1      35.029 -19.706 -20.846  0.00  0.00    +0.122 C 
ATOM      7  C   UNL     1      35.754 -21.570 -19.491  0.00  0.00    +0.006 C 
ATOM      8  C   UNL     1      33.397 -21.102 -19.740  0.00  0.00    +0.006 C 
ATOM      9  C   UNL     1      36.056 -20.483 -20.311  0.00  0.00    +0.020 C 
ATOM     10  C   UNL     1      33.699 -20.016 -20.560  0.00  0.00    +0.020 C 
BRANCH   6  11
ATOM     11  S   UNL     1      35.407 -18.345 -21.872  0.00  0.00    +0.057 S 
ATOM     12  O   UNL     1      36.827 -18.392 -22.192  0.00  0.00    -0.153 OA
ATOM     13  O   UNL     1      34.425 -18.289 -22.947  0.00  0.00    -0.153 OA
BRANCH  11  14
ATOM     14  N   UNL     1      35.125 -17.043 -20.803  0.00  0.00    -0.203 NA
ATOM     15  H   UNL     1      34.133 -16.807 -20.810  0.00  0.00    +0.144 HD
ATOM     16  H   UNL     1      35.669 -16.234 -21.102  0.00  0.00    +0.144 HD
ENDBRANCH  11  14
ENDBRANCH   6  11
ENDBRANCH   3   5
BRANCH   2  17
ATOM     17  C   UNL     1      34.017 -23.863 -15.992  0.00  0.00    +0.122 C 
BRANCH  17  18
ATOM     18  C   UNL     1      35.218 -24.039 -15.076  0.00  0.00    +0.163 C 
BRANCH  18  19
ATOM     19  O   UNL     1      36.148 -24.910 -15.705  0.00  0.00    -0.349 OA
BRANCH  19  20
ATOM     20  C   UNL     1      36.263 -26.142 -15.005  0.00  0.00    +0.174 C 
BRANCH  20  21
ATOM     21  C   UNL     1      36.883 -25.881 -13.646  0.00  0.00    +0.174 C 
BRANCH  21  22
ATOM     22  O   UNL     1      38.177 -26.470 -13.604  0.00  0.00    -0.353 OA
BRANCH  22  23
ATOM     23  C   UNL     1      39.197 -25.483 -13.540  0.00  0.00    +0.119 C 
BRANCH  23  24
ATOM     24  C   UNL     1      39.859 -25.377 -14.904  0.00  0.00    -0.054 C 
BRANCH  24  25
ATOM     25  N   UNL     1      39.244 -24.318 -15.692  0.00  0.00    +0.382 N 
ATOM     26  H   UNL     1      39.450 -23.414 -15.265  0.00  0.00    -0.089 HD
ATOM     27  H   UNL     1      38.234 -24.459 -15.722  0.00  0.00    -0.089 HD
ATOM     28  H   UNL     1      39.619 -24.339 -16.640  0.00  0.00    -0.089 HD
ENDBRANCH  24  25
ENDBRANCH  23  24
ENDBRANCH  22  23
ENDBRANCH  21  22
ENDBRANCH  20  21
ENDBRANCH  19  20
ENDBRANCH  18  19
ENDBRANCH  17  18
ENDBRANCH   2  17
TORSDOF 12
ENDMDL
MODEL 6
REMARK VINA RESULT:      -7.7      1.848      2.399
REMARK  Name = 2144
REMARK  12 active torsions:
REMARK  status: ('A' for Active; 'I' for Inactive)
REMARK    1  A    between atoms: N_2  and  C_17
REMARK    2  A    between atoms: C_3  and  C_5
REMARK    3  A    between atoms: C_6  and  S_11
REMARK    4  A    between atoms: S_11  and  N_14
REMARK    5  A    between atoms: C_17  and  C_18
REMARK    6  A    between atoms: C_18  and  O_19
REMARK    7  A    between atoms: O_19  and  C_20
REMARK    8  A    between atoms: C_20  and  C_21
REMARK    9  A    between atoms: C_21  and  O_22
REMARK   10  A    between atoms: O_22  and  C_23
REMARK   11  A    between atoms: C_23  and  C_24
REMARK   12  A    between atoms: C_24  and  N_25
REMARK                            x       y       z     vdW  Elec       q    Type
REMARK                         _______ _______ _______ _____ _____    ______ ____
ROOT
ATOM      1  O   UNL     1      36.345 -18.354 -22.713  0.00  0.00    -0.270 OA
ATOM      2  N   UNL     1      34.605 -17.107 -21.821  0.00  0.00    -0.298 N 
ATOM      3  C   UNL     1      35.385 -18.264 -21.926  0.00  0.00    +0.246 C 
ATOM      4  H   UNL     1      33.860 -17.105 -21.177  0.00  0.00    +0.150 HD
ENDROOT
BRANCH   3   5
ATOM      5  C   UNL     1      35.013 -19.390 -21.084  0.00  0.00    +0.053 C 
ATOM      6  C   UNL     1      34.299 -21.551 -19.471  0.00  0.00    +0.122 C 
ATOM      7  C   UNL     1      36.002 -20.170 -20.485  0.00  0.00    +0.006 C 
ATOM      8  C   UNL     1      33.667 -19.691 -20.876  0.00  0.00    +0.006 C 
ATOM      9  C   UNL     1      35.645 -21.250 -19.678  0.00  0.00    +0.020 C 
ATOM     10  C   UNL     1      33.309 -20.771 -20.070  0.00  0.00    +0.020 C 
BRANCH   6  11
ATOM     11  S   UNL     1      33.852 -22.904 -18.462  0.00  0.00    +0.057 S 
ATOM     12  O   UNL     1      33.800 -24.099 -19.292  0.00  0.00    -0.153 OA
ATOM     13  O   UNL     1      34.687 -22.888 -17.268  0.00  0.00    -0.153 OA
BRANCH  11  14
ATOM     14  N   UNL     1      32.259 -22.468 -18.022  0.00  0.00    -0.203 NA
ATOM     15  H   UNL     1      32.175 -21.452 -18.014  0.00  0.00    +0.144 HD
ATOM     16  H   UNL     1      32.051 -22.834 -17.093  0.00  0.00    +0.144 HD
ENDBRANCH  11  14
ENDBRANCH   6  11
ENDBRANCH   3   5
BRANCH   2  17
ATOM     17  C   UNL     1      34.834 -15.916 -22.605  0.00  0.00    +0.122 C 
BRANCH  17  18
ATOM     18  C   UNL     1      34.141 -14.717 -21.976  0.00  0.00    +0.163 C 
BRANCH  18  19
ATOM     19  O   UNL     1      32.819 -14.632 -22.492  0.00  0.00    -0.349 OA
BRANCH  19  20
ATOM     20  C   UNL     1      32.589 -13.384 -23.131  0.00  0.00    +0.174 C 
BRANCH  20  21
ATOM     21  C   UNL     1      33.138 -13.443 -24.544  0.00  0.00    +0.174 C 
BRANCH  21  22
ATOM     22  O   UNL     1      33.842 -12.239 -24.820  0.00  0.00    -0.353 OA
BRANCH  22  23
ATOM     23  C   UNL     1      33.559 -11.236 -23.853  0.00  0.00    +0.119 C 
BRANCH  23  24
ATOM     24  C   UNL     1      34.318  -9.972 -24.226  0.00  0.00    -0.054 C 
BRANCH  24  25
ATOM     25  N   UNL     1      35.508 -10.297 -24.999  0.00  0.00    +0.382 N 
ATOM     26  H   UNL     1      36.092  -9.465 -25.089  0.00  0.00    -0.089 HD
ATOM     27  H   UNL     1      35.233 -10.622 -25.926  0.00  0.00    -0.089 HD
ATOM     28  H   UNL     1      36.033 -11.030 -24.523  0.00  0.00    -0.089 HD
ENDBRANCH  24  25
ENDBRANCH  23  24
ENDBRANCH  22  23
ENDBRANCH  21  22
ENDBRANCH  20  21
ENDBRANCH  19  20
ENDBRANCH  18  19
ENDBRANCH  17  18
ENDBRANCH   2  17
TORSDOF 12
ENDMDL
MODEL 7
REMARK VINA RESULT:      -7.7      1.610      2.436
REMARK  Name = 2144
REMARK  12 active torsions:
REMARK  status: ('A' for Active; 'I' for Inactive)
REMARK    1  A    between atoms: N_2  and  C_17
REMARK    2  A    between atoms: C_3  and  C_5
REMARK    3  A    between atoms: C_6  and  S_11
REMARK    4  A    between atoms: S_11  and  N_14
REMARK    5  A    between atoms: C_17  and  C_18
REMARK    6  A    between atoms: C_18  and  O_19
REMARK    7  A    between atoms: O_19  and  C_20
REMARK    8  A    between atoms: C_20  and  C_21
REMARK    9  A    between atoms: C_21  and  O_22
REMARK   10  A    between atoms: O_22  and  C_23
REMARK   11  A    between atoms: C_23  and  C_24
REMARK   12  A    between atoms: C_24  and  N_25
REMARK                            x       y       z     vdW  Elec       q    Type
REMARK                         _______ _______ _______ _____ _____    ______ ____
ROOT
ATOM      1  O   UNL     1      34.698 -18.225 -23.203  0.00  0.00    -0.270 OA
ATOM      2  N   UNL     1      34.731 -16.849 -21.337  0.00  0.00    -0.298 N 
ATOM      3  C   UNL     1      34.631 -18.094 -21.968  0.00  0.00    +0.246 C 
ATOM      4  H   UNL     1      34.669 -16.818 -20.355  0.00  0.00    +0.150 HD
ENDROOT
BRANCH   3   5
ATOM      5  C   UNL     1      34.416 -19.251 -21.113  0.00  0.00    +0.053 C 
ATOM      6  C   UNL     1      34.004 -21.472 -19.475  0.00  0.00    +0.122 C 
ATOM      7  C   UNL     1      35.506 -19.983 -20.642  0.00  0.00    +0.006 C 
ATOM      8  C   UNL     1      33.120 -19.631 -20.764  0.00  0.00    +0.006 C 
ATOM      9  C   UNL     1      35.300 -21.093 -19.823  0.00  0.00    +0.020 C 
ATOM     10  C   UNL     1      32.913 -20.740 -19.945  0.00  0.00    +0.020 C 
BRANCH   6  11
ATOM     11  S   UNL     1      33.746 -22.862 -18.451  0.00  0.00    +0.057 S 
ATOM     12  O   UNL     1      34.849 -22.946 -17.504  0.00  0.00    -0.153 OA
ATOM     13  O   UNL     1      32.374 -22.828 -17.961  0.00  0.00    -0.153 OA
BRANCH  11  14
ATOM     14  N   UNL     1      33.892 -24.132 -19.583  0.00  0.00    -0.203 NA
ATOM     15  H   UNL     1      33.785 -23.760 -20.527  0.00  0.00    +0.144 HD
ATOM     16  H   UNL     1      33.168 -24.829 -19.408  0.00  0.00    +0.144 HD
ENDBRANCH  11  14
ENDBRANCH   6  11
ENDBRANCH   3   5
BRANCH   2  17
ATOM     17  C   UNL     1      34.921 -15.606 -22.049  0.00  0.00    +0.122 C 
BRANCH  17  18
ATOM     18  C   UNL     1      33.891 -14.575 -21.616  0.00  0.00    +0.163 C 
BRANCH  18  19
ATOM     19  O   UNL     1      32.849 -14.537 -22.582  0.00  0.00    -0.349 OA
BRANCH  19  20
ATOM     20  C   UNL     1      32.410 -13.207 -22.823  0.00  0.00    +0.174 C 
BRANCH  20  21
ATOM     21  C   UNL     1      33.336 -12.556 -23.832  0.00  0.00    +0.174 C 
BRANCH  21  22
ATOM     22  O   UNL     1      33.849 -13.556 -24.705  0.00  0.00    -0.353 OA
BRANCH  22  23
ATOM     23  C   UNL     1      33.056 -13.681 -25.877  0.00  0.00    +0.119 C 
BRANCH  23  24
ATOM     24  C   UNL     1      33.053 -15.139 -26.310  0.00  0.00    -0.054 C 
BRANCH  24  25
ATOM     25  N   UNL     1      33.692 -15.974 -25.303  0.00  0.00    +0.382 N 
ATOM     26  H   UNL     1      34.531 -15.507 -24.957  0.00  0.00    -0.089 HD
ATOM     27  H   UNL     1      33.947 -16.871 -25.717  0.00  0.00    -0.089 HD
ATOM     28  H   UNL     1      33.046 -16.128 -24.529  0.00  0.00    -0.089 HD
ENDBRANCH  24  25
ENDBRANCH  23  24
ENDBRANCH  22  23
ENDBRANCH  21  22
ENDBRANCH  20  21
ENDBRANCH  19  20
ENDBRANCH  18  19
ENDBRANCH  17  18
ENDBRANCH   2  17
TORSDOF 12
ENDMDL
MODEL 8
REMARK VINA RESULT:      -7.7      9.002     11.759
REMARK  Name = 2144
REMARK  12 active torsions:
REMARK  status: ('A' for Active; 'I' for Inactive)
REMARK    1  A    between atoms: N_2  and  C_17
REMARK    2  A    between atoms: C_3  and  C_5
REMARK    3  A    between atoms: C_6  and  S_11
REMARK    4  A    between atoms: S_11  and  N_14
REMARK    5  A    between atoms: C_17  and  C_18
REMARK    6  A    between atoms: C_18  and  O_19
REMARK    7  A    between atoms: O_19  and  C_20
REMARK    8  A    between atoms: C_20  and  C_21
REMARK    9  A    between atoms: C_21  and  O_22
REMARK   10  A    between atoms: O_22  and  C_23
REMARK   11  A    between atoms: C_23  and  C_24
REMARK   12  A    between atoms: C_24  and  N_25
REMARK                            x       y       z     vdW  Elec       q    Type
REMARK                         _______ _______ _______ _____ _____    ______ ____
ROOT
ATOM      1  O   UNL     1      34.753 -23.917 -15.426  0.00  0.00    -0.270 OA
ATOM      2  N   UNL     1      34.130 -23.539 -13.224  0.00  0.00    -0.298 N 
ATOM      3  C   UNL     1      33.863 -23.671 -14.592  0.00  0.00    +0.246 C 
ATOM      4  H   UNL     1      33.378 -23.344 -12.619  0.00  0.00    +0.150 HD
ENDROOT
BRANCH   3   5
ATOM      5  C   UNL     1      32.485 -23.483 -15.016  0.00  0.00    +0.053 C 
ATOM      6  C   UNL     1      29.841 -23.121 -15.830  0.00  0.00    +0.122 C 
ATOM      7  C   UNL     1      32.197 -23.204 -16.352  0.00  0.00    +0.006 C 
ATOM      8  C   UNL     1      31.449 -23.582 -14.087  0.00  0.00    +0.006 C 
ATOM      9  C   UNL     1      30.876 -23.023 -16.759  0.00  0.00    +0.020 C 
ATOM     10  C   UNL     1      30.127 -23.402 -14.493  0.00  0.00    +0.020 C 
BRANCH   6  11
ATOM     11  S   UNL     1      28.186 -22.894 -16.338  0.00  0.00    +0.057 S 
ATOM     12  O   UNL     1      27.334 -22.929 -15.157  0.00  0.00    -0.153 OA
ATOM     13  O   UNL     1      28.130 -21.749 -17.236  0.00  0.00    -0.153 OA
BRANCH  11  14
ATOM     14  N   UNL     1      27.927 -24.317 -17.248  0.00  0.00    -0.203 NA
ATOM     15  H   UNL     1      26.952 -24.604 -17.159  0.00  0.00    +0.144 HD
ATOM     16  H   UNL     1      28.533 -25.059 -16.898  0.00  0.00    +0.144 HD
ENDBRANCH  11  14
ENDBRANCH   6  11
ENDBRANCH   3   5
BRANCH   2  17
ATOM     17  C   UNL     1      35.450 -23.673 -12.652  0.00  0.00    +0.122 C 
BRANCH  17  18
ATOM     18  C   UNL     1      35.441 -24.681 -11.513  0.00  0.00    +0.163 C 
BRANCH  18  19
ATOM     19  O   UNL     1      36.620 -25.472 -11.594  0.00  0.00    -0.349 OA
BRANCH  19  20
ATOM     20  C   UNL     1      37.752 -24.684 -11.934  0.00  0.00    +0.174 C 
BRANCH  20  21
ATOM     21  C   UNL     1      38.654 -25.485 -12.855  0.00  0.00    +0.174 C 
BRANCH  21  22
ATOM     22  O   UNL     1      38.882 -24.741 -14.045  0.00  0.00    -0.353 OA
BRANCH  22  23
ATOM     23  C   UNL     1      37.864 -24.974 -15.009  0.00  0.00    +0.119 C 
BRANCH  23  24
ATOM     24  C   UNL     1      37.490 -26.447 -14.976  0.00  0.00    -0.054 C 
BRANCH  24  25
ATOM     25  N   UNL     1      36.052 -26.615 -15.133  0.00  0.00    +0.382 N 
ATOM     26  H   UNL     1      35.770 -27.514 -14.741  0.00  0.00    -0.089 HD
ATOM     27  H   UNL     1      35.812 -26.585 -16.124  0.00  0.00    -0.089 HD
ATOM     28  H   UNL     1      35.567 -25.863 -14.643  0.00  0.00    -0.089 HD
ENDBRANCH  24  25
ENDBRANCH  23  24
ENDBRANCH  22  23
ENDBRANCH  21  22
ENDBRANCH  20  21
ENDBRANCH  19  20
ENDBRANCH  18  19
ENDBRANCH  17  18
ENDBRANCH   2  17
TORSDOF 12
ENDMDL
MODEL 9
REMARK VINA RESULT:      -7.7      2.588      3.313
REMARK  Name = 2144
REMARK  12 active torsions:
REMARK  status: ('A' for Active; 'I' for Inactive)
REMARK    1  A    between atoms: N_2  and  C_17
REMARK    2  A    between atoms: C_3  and  C_5
REMARK    3  A    between atoms: C_6  and  S_11
REMARK    4  A    between atoms: S_11  and  N_14
REMARK    5  A    between atoms: C_17  and  C_18
REMARK    6  A    between atoms: C_18  and  O_19
REMARK    7  A    between atoms: O_19  and  C_20
REMARK    8  A    between atoms: C_20  and  C_21
REMARK    9  A    between atoms: C_21  and  O_22
REMARK   10  A    between atoms: O_22  and  C_23
REMARK   11  A    between atoms: C_23  and  C_24
REMARK   12  A    between atoms: C_24  and  N_25
REMARK                            x       y       z     vdW  Elec       q    Type
REMARK                         _______ _______ _______ _____ _____    ______ ____
ROOT
ATOM      1  O   UNL     1      35.891 -18.131 -22.952  0.00  0.00    -0.270 OA
ATOM      2  N   UNL     1      34.271 -16.920 -21.816  0.00  0.00    -0.298 N 
ATOM      3  C   UNL     1      35.032 -18.071 -22.054  0.00  0.00    +0.246 C 
ATOM      4  H   UNL     1      33.608 -16.942 -21.089  0.00  0.00    +0.150 HD
ENDROOT
BRANCH   3   5
ATOM      5  C   UNL     1      34.759 -19.226 -21.215  0.00  0.00    +0.053 C 
ATOM      6  C   UNL     1      34.236 -21.442 -19.602  0.00  0.00    +0.122 C 
ATOM      7  C   UNL     1      33.443 -19.581 -20.920  0.00  0.00    +0.006 C 
ATOM      8  C   UNL     1      35.815 -19.982 -20.702  0.00  0.00    +0.006 C 
ATOM      9  C   UNL     1      33.181 -20.688 -20.114  0.00  0.00    +0.020 C 
ATOM     10  C   UNL     1      35.554 -21.089 -19.896  0.00  0.00    +0.020 C 
BRANCH   6  11
ATOM     11  S   UNL     1      33.910 -22.828 -18.592  0.00  0.00    +0.057 S 
ATOM     12  O   UNL     1      33.854 -24.011 -19.439  0.00  0.00    -0.153 OA
ATOM     13  O   UNL     1      34.819 -22.796 -17.453  0.00  0.00    -0.153 OA
BRANCH  11  14
ATOM     14  N   UNL     1      32.333 -22.467 -18.043  0.00  0.00    -0.203 NA
ATOM     15  H   UNL     1      32.228 -21.457 -17.952  0.00  0.00    +0.144 HD
ATOM     16  H   UNL     1      32.179 -22.908 -17.137  0.00  0.00    +0.144 HD
ENDBRANCH  11  14
ENDBRANCH   6  11
ENDBRANCH   3   5
BRANCH   2  17
ATOM     17  C   UNL     1      34.408 -15.701 -22.580  0.00  0.00    +0.122 C 
BRANCH  17  18
ATOM     18  C   UNL     1      34.131 -14.486 -21.708  0.00  0.00    +0.163 C 
BRANCH  18  19
ATOM     19  O   UNL     1      32.725 -14.297 -21.624  0.00  0.00    -0.349 OA
BRANCH  19  20
ATOM     20  C   UNL     1      32.302 -13.182 -22.395  0.00  0.00    +0.174 C 
BRANCH  20  21
ATOM     21  C   UNL     1      31.675 -12.153 -21.474  0.00  0.00    +0.174 C 
BRANCH  21  22
ATOM     22  O   UNL     1      31.363 -10.986 -22.225  0.00  0.00    -0.353 OA
BRANCH  22  23
ATOM     23  C   UNL     1      31.771  -9.806 -21.547  0.00  0.00    +0.119 C 
BRANCH  23  24
ATOM     24  C   UNL     1      31.895 -10.113 -20.063  0.00  0.00    -0.054 C 
BRANCH  24  25
ATOM     25  N   UNL     1      32.553  -9.017 -19.366  0.00  0.00    +0.382 N 
ATOM     26  H   UNL     1      32.552  -9.205 -18.362  0.00  0.00    -0.089 HD
ATOM     27  H   UNL     1      32.054  -8.147 -19.550  0.00  0.00    -0.089 HD
ATOM     28  H   UNL     1      33.515  -8.935 -19.695  0.00  0.00    -0.089 HD
ENDBRANCH  24  25
ENDBRANCH  23  24
ENDBRANCH  22  23
ENDBRANCH  21  22
ENDBRANCH  20  21
ENDBRANCH  19  20
ENDBRANCH  18  19
ENDBRANCH  17  18
ENDBRANCH   2  17
TORSDOF 12
ENDMDL
