MODEL 1
REMARK VINA RESULT:      -8.1      0.000      0.000
REMARK  Name = 31307
REMARK  6 active torsions:
REMARK  status: ('A' for Active; 'I' for Inactive)
REMARK    1  A    between atoms: C_7  and  O_22
REMARK    2  A    between atoms: C_7  and  C_29
REMARK    3  A    between atoms: C_10  and  O_24
REMARK    4  A    between atoms: C_11  and  O_26
REMARK    5  A    between atoms: C_29  and  C_30
REMARK    6  A    between atoms: C_30  and  O_31
REMARK                            x       y       z     vdW  Elec       q    Type
REMARK                         _______ _______ _______ _____ _____    ______ ____
ROOT
ATOM      1  F   UNL     1      35.397 -25.480 -14.889  0.00  0.00    -0.237 F 
ATOM      2  O   UNL     1      40.151 -26.488 -14.564  0.00  0.00    -0.287 OA
ATOM      3  C   UNL     1      32.426 -23.631 -14.487  0.00  0.00    +0.034 C 
ATOM      4  C   UNL     1      33.464 -23.539 -15.629  0.00  0.00    +0.008 C 
ATOM      5  C   UNL     1      34.878 -23.197 -15.138  0.00  0.00    +0.034 C 
ATOM      6  C   UNL     1      35.362 -24.310 -14.144  0.00  0.00    +0.164 C 
ATOM      7  C   UNL     1      31.151 -23.905 -15.332  0.00  0.00    +0.166 C 
ATOM      8  C   UNL     1      32.875 -24.772 -13.551  0.00  0.00    +0.035 C 
ATOM      9  C   UNL     1      32.799 -22.626 -16.662  0.00  0.00    +0.032 C 
ATOM     10  C   UNL     1      34.318 -24.602 -13.024  0.00  0.00    +0.141 C 
ATOM     11  C   UNL     1      31.288 -22.915 -16.514  0.00  0.00    +0.142 C 
ATOM     12  C   UNL     1      36.849 -24.067 -13.669  0.00  0.00    +0.064 C 
ATOM     13  C   UNL     1      35.841 -23.062 -16.333  0.00  0.00    +0.007 C 
ATOM     14  C   UNL     1      32.245 -22.303 -13.700  0.00  0.00    +0.003 C 
ATOM     15  C   UNL     1      37.283 -22.837 -15.893  0.00  0.00    +0.023 C 
ATOM     16  C   UNL     1      37.712 -23.913 -14.928  0.00  0.00    -0.035 C 
ATOM     17  C   UNL     1      37.048 -22.802 -12.803  0.00  0.00    +0.011 C 
ATOM     18  C   UNL     1      37.325 -25.235 -12.817  0.00  0.00    -0.017 C 
ATOM     19  C   UNL     1      38.766 -24.693 -15.210  0.00  0.00    +0.034 C 
ATOM     20  C   UNL     1      38.373 -26.016 -13.093  0.00  0.00    +0.038 C 
ATOM     21  C   UNL     1      39.177 -25.788 -14.307  0.00  0.00    +0.195 C 
ENDROOT
BRANCH   7  22
ATOM     22  O   UNL     1      31.129 -25.250 -15.797  0.00  0.00    -0.377 OA
ATOM     23  H   UNL     1      31.920 -25.714 -15.481  0.00  0.00    +0.211 HD
ENDBRANCH   7  22
BRANCH  10  24
ATOM     24  O   UNL     1      34.333 -23.665 -11.960  0.00  0.00    -0.382 OA
ATOM     25  H   UNL     1      33.968 -22.821 -12.267  0.00  0.00    +0.210 HD
ENDBRANCH  10  24
BRANCH  11  26
ATOM     26  O   UNL     1      30.750 -23.443 -17.717  0.00  0.00    -0.382 OA
ATOM     27  H   UNL     1      31.071 -22.923 -18.471  0.00  0.00    +0.210 HD
ENDBRANCH  11  26
BRANCH   7  29
ATOM     28  O   UNL     1      29.600 -24.450 -13.608  0.00  0.00    -0.291 OA
ATOM     29  C   UNL     1      29.864 -23.743 -14.580  0.00  0.00    +0.206 C 
BRANCH  29  30
ATOM     30  C   UNL     1      28.922 -22.671 -15.084  0.00  0.00    +0.204 C 
BRANCH  30  31
ATOM     31  O   UNL     1      28.013 -23.206 -16.022  0.00  0.00    -0.375 OA
ATOM     32  H   UNL     1      28.449 -23.291 -16.883  0.00  0.00    +0.211 HD
ENDBRANCH  30  31
ENDBRANCH  29  30
ENDBRANCH   7  29
TORSDOF 6
ENDMDL
MODEL 2
REMARK VINA RESULT:      -6.9      1.969      7.019
REMARK  Name = 31307
REMARK  6 active torsions:
REMARK  status: ('A' for Active; 'I' for Inactive)
REMARK    1  A    between atoms: C_7  and  O_22
REMARK    2  A    between atoms: C_7  and  C_29
REMARK    3  A    between atoms: C_10  and  O_24
REMARK    4  A    between atoms: C_11  and  O_26
REMARK    5  A    between atoms: C_29  and  C_30
REMARK    6  A    between atoms: C_30  and  O_31
REMARK                            x       y       z     vdW  Elec       q    Type
REMARK                         _______ _______ _______ _____ _____    ______ ____
ROOT
ATOM      1  F   UNL     1      32.288 -22.372 -14.449  0.00  0.00    -0.237 F 
ATOM      2  O   UNL     1      27.563 -21.586 -15.333  0.00  0.00    -0.287 OA
ATOM      3  C   UNL     1      35.368 -24.081 -14.492  0.00  0.00    +0.034 C 
ATOM      4  C   UNL     1      34.780 -23.141 -15.568  0.00  0.00    +0.008 C 
ATOM      5  C   UNL     1      33.419 -23.607 -16.105  0.00  0.00    +0.034 C 
ATOM      6  C   UNL     1      32.393 -23.673 -14.919  0.00  0.00    +0.164 C 
ATOM      7  C   UNL     1      36.725 -23.363 -14.251  0.00  0.00    +0.166 C 
ATOM      8  C   UNL     1      34.386 -24.087 -13.304  0.00  0.00    +0.035 C 
ATOM      9  C   UNL     1      35.933 -22.939 -16.555  0.00  0.00    +0.032 C 
ATOM     10  C   UNL     1      32.944 -24.475 -13.701  0.00  0.00    +0.141 C 
ATOM     11  C   UNL     1      37.205 -23.017 -15.681  0.00  0.00    +0.142 C 
ATOM     12  C   UNL     1      30.945 -24.061 -15.416  0.00  0.00    +0.064 C 
ATOM     13  C   UNL     1      32.926 -22.658 -17.213  0.00  0.00    +0.007 C 
ATOM     14  C   UNL     1      35.635 -25.524 -15.003  0.00  0.00    +0.003 C 
ATOM     15  C   UNL     1      31.525 -23.011 -17.698  0.00  0.00    +0.023 C 
ATOM     16  C   UNL     1      30.569 -23.082 -16.536  0.00  0.00    -0.035 C 
ATOM     17  C   UNL     1      30.822 -25.494 -15.983  0.00  0.00    +0.011 C 
ATOM     18  C   UNL     1      29.956 -23.982 -14.262  0.00  0.00    -0.017 C 
ATOM     19  C   UNL     1      29.486 -22.291 -16.501  0.00  0.00    +0.034 C 
ATOM     20  C   UNL     1      28.876 -23.196 -14.222  0.00  0.00    +0.038 C 
ATOM     21  C   UNL     1      28.559 -22.302 -15.351  0.00  0.00    +0.195 C 
ENDROOT
BRANCH   7  22
ATOM     22  O   UNL     1      36.544 -22.181 -13.476  0.00  0.00    -0.377 OA
ATOM     23  H   UNL     1      36.984 -22.287 -12.618  0.00  0.00    +0.211 HD
ENDBRANCH   7  22
BRANCH  10  24
ATOM     24  O   UNL     1      32.847 -25.883 -13.843  0.00  0.00    -0.382 OA
ATOM     25  H   UNL     1      33.738 -26.265 -13.885  0.00  0.00    +0.210 HD
ENDBRANCH  10  24
BRANCH  11  26
ATOM     26  O   UNL     1      37.927 -21.796 -15.721  0.00  0.00    -0.382 OA
ATOM     27  H   UNL     1      37.651 -21.282 -16.496  0.00  0.00    +0.210 HD
ENDBRANCH  11  26
BRANCH   7  29
ATOM     28  O   UNL     1      38.514 -24.924 -14.047  0.00  0.00    -0.291 OA
ATOM     29  C   UNL     1      37.724 -24.172 -13.478  0.00  0.00    +0.206 C 
BRANCH  29  30
ATOM     30  C   UNL     1      37.700 -24.007 -11.973  0.00  0.00    +0.204 C 
BRANCH  30  31
ATOM     31  O   UNL     1      38.535 -22.940 -11.575  0.00  0.00    -0.375 OA
ATOM     32  H   UNL     1      38.151 -22.502 -10.799  0.00  0.00    +0.211 HD
ENDBRANCH  30  31
ENDBRANCH  29  30
ENDBRANCH   7  29
TORSDOF 6
ENDMDL
MODEL 3
REMARK VINA RESULT:      -6.3     10.570     13.209
REMARK  Name = 31307
REMARK  6 active torsions:
REMARK  status: ('A' for Active; 'I' for Inactive)
REMARK    1  A    between atoms: C_7  and  O_22
REMARK    2  A    between atoms: C_7  and  C_29
REMARK    3  A    between atoms: C_10  and  O_24
REMARK    4  A    between atoms: C_11  and  O_26
REMARK    5  A    between atoms: C_29  and  C_30
REMARK    6  A    between atoms: C_30  and  O_31
REMARK                            x       y       z     vdW  Elec       q    Type
REMARK                         _______ _______ _______ _____ _____    ______ ____
ROOT
ATOM      1  F   UNL     1      35.433 -14.368 -23.952  0.00  0.00    -0.237 F 
ATOM      2  O   UNL     1      34.903 -10.027 -26.095  0.00  0.00    -0.287 OA
ATOM      3  C   UNL     1      34.477 -17.280 -22.214  0.00  0.00    +0.034 C 
ATOM      4  C   UNL     1      34.416 -17.008 -23.734  0.00  0.00    +0.008 C 
ATOM      5  C   UNL     1      33.559 -15.787 -24.099  0.00  0.00    +0.034 C 
ATOM      6  C   UNL     1      34.162 -14.512 -23.412  0.00  0.00    +0.164 C 
ATOM      7  C   UNL     1      35.330 -18.579 -22.228  0.00  0.00    +0.166 C 
ATOM      8  C   UNL     1      35.132 -16.049 -21.556  0.00  0.00    +0.035 C 
ATOM      9  C   UNL     1      34.058 -18.368 -24.339  0.00  0.00    +0.032 C 
ATOM     10  C   UNL     1      34.415 -14.720 -21.889  0.00  0.00    +0.141 C 
ATOM     11  C   UNL     1      34.715 -19.396 -23.390  0.00  0.00    +0.142 C 
ATOM     12  C   UNL     1      33.380 -13.200 -23.820  0.00  0.00    +0.064 C 
ATOM     13  C   UNL     1      33.495 -15.617 -25.628  0.00  0.00    +0.007 C 
ATOM     14  C   UNL     1      33.092 -17.582 -21.577  0.00  0.00    +0.003 C 
ATOM     15  C   UNL     1      32.752 -14.351 -26.040  0.00  0.00    +0.023 C 
ATOM     16  C   UNL     1      33.344 -13.147 -25.352  0.00  0.00    -0.035 C 
ATOM     17  C   UNL     1      31.921 -13.138 -23.311  0.00  0.00    +0.011 C 
ATOM     18  C   UNL     1      34.076 -11.975 -23.243  0.00  0.00    -0.017 C 
ATOM     19  C   UNL     1      33.836 -12.129 -26.074  0.00  0.00    +0.034 C 
ATOM     20  C   UNL     1      34.568 -10.959 -23.958  0.00  0.00    +0.038 C 
ATOM     21  C   UNL     1      34.469 -10.961 -25.429  0.00  0.00    +0.195 C 
ENDROOT
BRANCH   7  22
ATOM     22  O   UNL     1      36.700 -18.284 -22.484  0.00  0.00    -0.377 OA
ATOM     23  H   UNL     1      37.178 -18.215 -21.643  0.00  0.00    +0.211 HD
ENDBRANCH   7  22
BRANCH  10  24
ATOM     24  O   UNL     1      33.255 -14.586 -21.085  0.00  0.00    -0.382 OA
ATOM     25  H   UNL     1      32.820 -13.742 -21.284  0.00  0.00    +0.210 HD
ENDBRANCH  10  24
BRANCH  11  26
ATOM     26  O   UNL     1      35.690 -20.170 -24.072  0.00  0.00    -0.382 OA
ATOM     27  H   UNL     1      35.248 -20.790 -24.674  0.00  0.00    +0.210 HD
ENDBRANCH  11  26
BRANCH   7  29
ATOM     28  O   UNL     1      36.274 -19.212 -20.134  0.00  0.00    -0.291 OA
ATOM     29  C   UNL     1      35.341 -19.326 -20.928  0.00  0.00    +0.206 C 
BRANCH  29  30
ATOM     30  C   UNL     1      34.148 -20.218 -20.657  0.00  0.00    +0.204 C 
BRANCH  30  31
ATOM     31  O   UNL     1      34.472 -21.211 -19.707  0.00  0.00    -0.375 OA
ATOM     32  H   UNL     1      33.789 -21.899 -19.713  0.00  0.00    +0.211 HD
ENDBRANCH  30  31
ENDBRANCH  29  30
ENDBRANCH   7  29
TORSDOF 6
ENDMDL
MODEL 4
REMARK VINA RESULT:      -6.1      1.815      7.222
REMARK  Name = 31307
REMARK  6 active torsions:
REMARK  status: ('A' for Active; 'I' for Inactive)
REMARK    1  A    between atoms: C_7  and  O_22
REMARK    2  A    between atoms: C_7  and  C_29
REMARK    3  A    between atoms: C_10  and  O_24
REMARK    4  A    between atoms: C_11  and  O_26
REMARK    5  A    between atoms: C_29  and  C_30
REMARK    6  A    between atoms: C_30  and  O_31
REMARK                            x       y       z     vdW  Elec       q    Type
REMARK                         _______ _______ _______ _____ _____    ______ ____
ROOT
ATOM      1  F   UNL     1      33.085 -25.534 -14.159  0.00  0.00    -0.237 F 
ATOM      2  O   UNL     1      28.228 -25.680 -14.488  0.00  0.00    -0.287 OA
ATOM      3  C   UNL     1      36.326 -24.173 -14.401  0.00  0.00    +0.034 C 
ATOM      4  C   UNL     1      35.322 -24.055 -13.231  0.00  0.00    +0.008 C 
ATOM      5  C   UNL     1      33.985 -23.420 -13.639  0.00  0.00    +0.034 C 
ATOM      6  C   UNL     1      33.316 -24.301 -14.752  0.00  0.00    +0.164 C 
ATOM      7  C   UNL     1      37.539 -24.763 -13.628  0.00  0.00    +0.166 C 
ATOM      8  C   UNL     1      35.687 -25.094 -15.460  0.00  0.00    +0.035 C 
ATOM      9  C   UNL     1      36.136 -23.406 -12.109  0.00  0.00    +0.032 C 
ATOM     10  C   UNL     1      34.292 -24.618 -15.925  0.00  0.00    +0.141 C 
ATOM     11  C   UNL     1      37.575 -23.923 -12.329  0.00  0.00    +0.142 C 
ATOM     12  C   UNL     1      31.890 -23.753 -15.156  0.00  0.00    +0.064 C 
ATOM     13  C   UNL     1      33.063 -23.280 -12.413  0.00  0.00    +0.007 C 
ATOM     14  C   UNL     1      36.727 -22.805 -15.019  0.00  0.00    +0.003 C 
ATOM     15  C   UNL     1      31.679 -22.762 -12.785  0.00  0.00    +0.023 C 
ATOM     16  C   UNL     1      31.070 -23.618 -13.866  0.00  0.00    -0.035 C 
ATOM     17  C   UNL     1      31.905 -22.372 -15.851  0.00  0.00    +0.011 C 
ATOM     18  C   UNL     1      31.220 -24.706 -16.135  0.00  0.00    -0.017 C 
ATOM     19  C   UNL     1      29.900 -24.240 -13.658  0.00  0.00    +0.034 C 
ATOM     20  C   UNL     1      30.055 -25.329 -15.933  0.00  0.00    +0.038 C 
ATOM     21  C   UNL     1      29.306 -25.126 -14.680  0.00  0.00    +0.195 C 
ENDROOT
BRANCH   7  22
ATOM     22  O   UNL     1      37.334 -26.141 -13.337  0.00  0.00    -0.377 OA
ATOM     23  H   UNL     1      37.138 -26.246 -12.393  0.00  0.00    +0.211 HD
ENDBRANCH   7  22
BRANCH  10  24
ATOM     24  O   UNL     1      34.432 -23.565 -16.864  0.00  0.00    -0.382 OA
ATOM     25  H   UNL     1      34.421 -23.929 -17.762  0.00  0.00    +0.210 HD
ENDBRANCH  10  24
BRANCH  11  26
ATOM     26  O   UNL     1      38.021 -24.683 -11.216  0.00  0.00    -0.382 OA
ATOM     27  H   UNL     1      38.948 -24.466 -11.026  0.00  0.00    +0.210 HD
ENDBRANCH  11  26
BRANCH   7  29
ATOM     28  O   UNL     1      39.010 -23.927 -15.307  0.00  0.00    -0.291 OA
ATOM     29  C   UNL     1      38.832 -24.725 -14.387  0.00  0.00    +0.206 C 
BRANCH  29  30
ATOM     30  C   UNL     1      39.892 -25.717 -13.956  0.00  0.00    +0.204 C 
BRANCH  30  31
ATOM     31  O   UNL     1      39.768 -26.923 -14.678  0.00  0.00    -0.375 OA
ATOM     32  H   UNL     1      40.365 -26.905 -15.442  0.00  0.00    +0.211 HD
ENDBRANCH  30  31
ENDBRANCH  29  30
ENDBRANCH   7  29
TORSDOF 6
ENDMDL
MODEL 5
REMARK VINA RESULT:      -5.8     14.055     16.299
REMARK  Name = 31307
REMARK  6 active torsions:
REMARK  status: ('A' for Active; 'I' for Inactive)
REMARK    1  A    between atoms: C_7  and  O_22
REMARK    2  A    between atoms: C_7  and  C_29
REMARK    3  A    between atoms: C_10  and  O_24
REMARK    4  A    between atoms: C_11  and  O_26
REMARK    5  A    between atoms: C_29  and  C_30
REMARK    6  A    between atoms: C_30  and  O_31
REMARK                            x       y       z     vdW  Elec       q    Type
REMARK                         _______ _______ _______ _____ _____    ______ ____
ROOT
ATOM      1  F   UNL     1      34.635 -12.252 -22.372  0.00  0.00    -0.237 F 
ATOM      2  O   UNL     1      35.120 -17.025 -21.533  0.00  0.00    -0.287 OA
ATOM      3  C   UNL     1      33.214  -9.303 -23.675  0.00  0.00    +0.034 C 
ATOM      4  C   UNL     1      32.847 -10.048 -22.372  0.00  0.00    +0.008 C 
ATOM      5  C   UNL     1      32.414 -11.503 -22.605  0.00  0.00    +0.034 C 
ATOM      6  C   UNL     1      33.590 -12.288 -23.285  0.00  0.00    +0.164 C 
ATOM      7  C   UNL     1      33.515  -7.899 -23.082  0.00  0.00    +0.166 C 
ATOM      8  C   UNL     1      34.414 -10.043 -24.302  0.00  0.00    +0.035 C 
ATOM      9  C   UNL     1      31.883  -9.096 -21.660  0.00  0.00    +0.032 C 
ATOM     10  C   UNL     1      34.153 -11.548 -24.537  0.00  0.00    +0.141 C 
ATOM     11  C   UNL     1      32.362  -7.686 -22.071  0.00  0.00    +0.142 C 
ATOM     12  C   UNL     1      33.244 -13.818 -23.472  0.00  0.00    +0.064 C 
ATOM     13  C   UNL     1      32.006 -12.159 -21.273  0.00  0.00    +0.007 C 
ATOM     14  C   UNL     1      32.038  -9.193 -24.685  0.00  0.00    +0.003 C 
ATOM     15  C   UNL     1      31.678 -13.640 -21.432  0.00  0.00    +0.023 C 
ATOM     16  C   UNL     1      32.819 -14.361 -22.102  0.00  0.00    -0.035 C 
ATOM     17  C   UNL     1      32.096 -14.100 -24.468  0.00  0.00    +0.011 C 
ATOM     18  C   UNL     1      34.456 -14.568 -24.008  0.00  0.00    -0.017 C 
ATOM     19  C   UNL     1      33.426 -15.387 -21.486  0.00  0.00    +0.034 C 
ATOM     20  C   UNL     1      35.065 -15.589 -23.399  0.00  0.00    +0.038 C 
ATOM     21  C   UNL     1      34.580 -16.079 -22.095  0.00  0.00    +0.195 C 
ENDROOT
BRANCH   7  22
ATOM     22  O   UNL     1      34.777  -7.885 -22.423  0.00  0.00    -0.377 OA
ATOM     23  H   UNL     1      34.899  -7.033 -21.976  0.00  0.00    +0.211 HD
ENDBRANCH   7  22
BRANCH  10  24
ATOM     24  O   UNL     1      33.377 -11.724 -25.710  0.00  0.00    -0.382 OA
ATOM     25  H   UNL     1      32.527 -11.268 -25.607  0.00  0.00    +0.210 HD
ENDBRANCH  10  24
BRANCH  11  26
ATOM     26  O   UNL     1      32.778  -6.937 -20.939  0.00  0.00    -0.382 OA
ATOM     27  H   UNL     1      32.167  -6.197 -20.798  0.00  0.00    +0.210 HD
ENDBRANCH  11  26
BRANCH   7  29
ATOM     28  O   UNL     1      34.616  -6.661 -24.794  0.00  0.00    -0.291 OA
ATOM     29  C   UNL     1      33.609  -6.804 -24.103  0.00  0.00    +0.206 C 
BRANCH  29  30
ATOM     30  C   UNL     1      32.403  -5.897 -24.227  0.00  0.00    +0.204 C 
BRANCH  30  31
ATOM     31  O   UNL     1      32.394  -5.248 -25.481  0.00  0.00    -0.375 OA
ATOM     32  H   UNL     1      31.487  -5.214 -25.821  0.00  0.00    +0.211 HD
ENDBRANCH  30  31
ENDBRANCH  29  30
ENDBRANCH   7  29
TORSDOF 6
ENDMDL
MODEL 6
REMARK VINA RESULT:      -5.7     14.471     17.150
REMARK  Name = 31307
REMARK  6 active torsions:
REMARK  status: ('A' for Active; 'I' for Inactive)
REMARK    1  A    between atoms: C_7  and  O_22
REMARK    2  A    between atoms: C_7  and  C_29
REMARK    3  A    between atoms: C_10  and  O_24
REMARK    4  A    between atoms: C_11  and  O_26
REMARK    5  A    between atoms: C_29  and  C_30
REMARK    6  A    between atoms: C_30  and  O_31
REMARK                            x       y       z     vdW  Elec       q    Type
REMARK                         _______ _______ _______ _____ _____    ______ ____
ROOT
ATOM      1  F   UNL     1      31.406  -9.356 -23.710  0.00  0.00    -0.237 F 
ATOM      2  O   UNL     1      30.337  -4.618 -23.343  0.00  0.00    -0.287 OA
ATOM      3  C   UNL     1      33.370 -12.274 -23.522  0.00  0.00    +0.034 C 
ATOM      4  C   UNL     1      32.540 -11.605 -22.404  0.00  0.00    +0.008 C 
ATOM      5  C   UNL     1      32.955 -10.152 -22.125  0.00  0.00    +0.034 C 
ATOM      6  C   UNL     1      32.765  -9.304 -23.431  0.00  0.00    +0.164 C 
ATOM      7  C   UNL     1      32.748 -13.697 -23.475  0.00  0.00    +0.166 C 
ATOM      8  C   UNL     1      33.124 -11.472 -24.816  0.00  0.00    +0.035 C 
ATOM      9  C   UNL     1      32.580 -12.617 -21.256  0.00  0.00    +0.032 C 
ATOM     10  C   UNL     1      33.435  -9.965 -24.673  0.00  0.00    +0.141 C 
ATOM     11  C   UNL     1      32.648 -13.992 -21.958  0.00  0.00    +0.142 C 
ATOM     12  C   UNL     1      33.088  -7.776 -23.190  0.00  0.00    +0.064 C 
ATOM     13  C   UNL     1      32.129  -9.574 -20.961  0.00  0.00    +0.007 C 
ATOM     14  C   UNL     1      34.888 -12.366 -23.203  0.00  0.00    +0.003 C 
ATOM     15  C   UNL     1      32.420  -8.097 -20.721  0.00  0.00    +0.023 C 
ATOM     16  C   UNL     1      32.244  -7.313 -21.996  0.00  0.00    -0.035 C 
ATOM     17  C   UNL     1      34.570  -7.476 -22.866  0.00  0.00    +0.011 C 
ATOM     18  C   UNL     1      32.763  -6.968 -24.439  0.00  0.00    -0.017 C 
ATOM     19  C   UNL     1      31.364  -6.303 -22.053  0.00  0.00    +0.034 C 
ATOM     20  C   UNL     1      31.886  -5.962 -24.502  0.00  0.00    +0.038 C 
ATOM     21  C   UNL     1      31.133  -5.550 -23.303  0.00  0.00    +0.195 C 
ENDROOT
BRANCH   7  22
ATOM     22  O   UNL     1      31.459 -13.709 -24.080  0.00  0.00    -0.377 OA
ATOM     23  H   UNL     1      31.493 -13.228 -24.921  0.00  0.00    +0.211 HD
ENDBRANCH   7  22
BRANCH  10  24
ATOM     24  O   UNL     1      34.835  -9.753 -24.757  0.00  0.00    -0.382 OA
ATOM     25  H   UNL     1      35.276 -10.217 -24.028  0.00  0.00    +0.210 HD
ENDBRANCH  10  24
BRANCH  11  26
ATOM     26  O   UNL     1      31.513 -14.783 -21.643  0.00  0.00    -0.382 OA
ATOM     27  H   UNL     1      30.755 -14.204 -21.462  0.00  0.00    +0.210 HD
ENDBRANCH  11  26
BRANCH   7  29
ATOM     28  O   UNL     1      34.373 -15.431 -23.659  0.00  0.00    -0.291 OA
ATOM     29  C   UNL     1      33.527 -14.738 -24.223  0.00  0.00    +0.206 C 
BRANCH  29  30
ATOM     30  C   UNL     1      33.212 -14.881 -25.697  0.00  0.00    +0.204 C 
BRANCH  30  31
ATOM     31  O   UNL     1      33.820 -16.040 -26.227  0.00  0.00    -0.375 OA
ATOM     32  H   UNL     1      33.161 -16.555 -26.717  0.00  0.00    +0.211 HD
ENDBRANCH  30  31
ENDBRANCH  29  30
ENDBRANCH   7  29
TORSDOF 6
ENDMDL
