MODEL 1
REMARK VINA RESULT:      -7.4      0.000      0.000
REMARK  Name = 5394
REMARK  1 active torsions:
REMARK  status: ('A' for Active; 'I' for Inactive)
REMARK    1  A    between atoms: C_8  and  C_14
REMARK                            x       y       z     vdW  Elec       q    Type
REMARK                         _______ _______ _______ _____ _____    ______ ____
ROOT
ATOM      1  O   UNL     1      34.343 -22.992 -16.672  0.00  0.00    -0.250 OA
ATOM      2  N   UNL     1      34.985 -23.464 -14.569  0.00  0.00    -0.202 N 
ATOM      3  N   UNL     1      36.558 -22.577 -15.953  0.00  0.00    -0.154 N 
ATOM      4  N   UNL     1      33.955 -24.318 -12.793  0.00  0.00    -0.240 NA
ATOM      5  N   UNL     1      37.173 -23.070 -13.806  0.00  0.00    -0.126 NA
ATOM      6  N   UNL     1      37.488 -22.626 -14.935  0.00  0.00    -0.040 NA
ATOM      7  C   UNL     1      35.920 -23.504 -13.577  0.00  0.00    +0.183 C 
ATOM      8  C   UNL     1      35.263 -24.035 -12.491  0.00  0.00    +0.164 C 
ATOM      9  C   UNL     1      35.239 -22.992 -15.843  0.00  0.00    +0.332 C 
ATOM     10  C   UNL     1      33.818 -23.963 -14.051  0.00  0.00    +0.229 C 
ATOM     11  C   UNL     1      36.992 -22.051 -17.236  0.00  0.00    +0.144 C 
ENDROOT
BRANCH   8  14
ATOM     12  O   UNL     1      35.333 -25.118 -10.399  0.00  0.00    -0.269 OA
ATOM     13  N   UNL     1      36.970 -23.566 -10.816  0.00  0.00    -0.324 N 
ATOM     14  C   UNL     1      35.823 -24.279 -11.195  0.00  0.00    +0.263 C 
ATOM     15  H   UNL     1      37.372 -23.717  -9.930  0.00  0.00    +0.145 HD
ATOM     16  H   UNL     1      37.371 -22.915 -11.435  0.00  0.00    +0.145 HD
ENDBRANCH   8  14
TORSDOF 1
ENDMDL
MODEL 2
REMARK VINA RESULT:      -7.2      1.687      3.146
REMARK  Name = 5394
REMARK  1 active torsions:
REMARK  status: ('A' for Active; 'I' for Inactive)
REMARK    1  A    between atoms: C_8  and  C_14
REMARK                            x       y       z     vdW  Elec       q    Type
REMARK                         _______ _______ _______ _____ _____    ______ ____
ROOT
ATOM      1  O   UNL     1      34.266 -23.755 -16.527  0.00  0.00    -0.250 OA
ATOM      2  N   UNL     1      35.509 -23.617 -14.658  0.00  0.00    -0.202 N 
ATOM      3  N   UNL     1      33.289 -24.037 -14.392  0.00  0.00    -0.154 N 
ATOM      4  N   UNL     1      37.663 -23.239 -14.258  0.00  0.00    -0.240 NA
ATOM      5  N   UNL     1      34.585 -23.890 -12.514  0.00  0.00    -0.126 NA
ATOM      6  N   UNL     1      33.455 -24.073 -13.022  0.00  0.00    -0.040 NA
ATOM      7  C   UNL     1      35.651 -23.656 -13.302  0.00  0.00    +0.183 C 
ATOM      8  C   UNL     1      36.988 -23.419 -13.078  0.00  0.00    +0.164 C 
ATOM      9  C   UNL     1      34.304 -23.806 -15.308  0.00  0.00    +0.332 C 
ATOM     10  C   UNL     1      36.746 -23.363 -15.191  0.00  0.00    +0.229 C 
ATOM     11  C   UNL     1      31.951 -24.257 -14.913  0.00  0.00    +0.144 C 
ENDROOT
BRANCH   8  14
ATOM     12  O   UNL     1      38.869 -23.138 -11.687  0.00  0.00    -0.269 OA
ATOM     13  N   UNL     1      36.864 -23.541 -10.647  0.00  0.00    -0.324 N 
ATOM     14  C   UNL     1      37.638 -23.361 -11.803  0.00  0.00    +0.263 C 
ATOM     15  H   UNL     1      37.289 -23.506  -9.760  0.00  0.00    +0.145 HD
ATOM     16  H   UNL     1      35.897 -23.704 -10.724  0.00  0.00    +0.145 HD
ENDBRANCH   8  14
TORSDOF 1
ENDMDL
MODEL 3
REMARK VINA RESULT:      -7.1      2.759      3.918
REMARK  Name = 5394
REMARK  1 active torsions:
REMARK  status: ('A' for Active; 'I' for Inactive)
REMARK    1  A    between atoms: C_8  and  C_14
REMARK                            x       y       z     vdW  Elec       q    Type
REMARK                         _______ _______ _______ _____ _____    ______ ____
ROOT
ATOM      1  O   UNL     1      34.080 -24.221 -12.358  0.00  0.00    -0.250 OA
ATOM      2  N   UNL     1      36.110 -24.765 -13.157  0.00  0.00    -0.202 N 
ATOM      3  N   UNL     1      34.560 -24.062 -14.668  0.00  0.00    -0.154 N 
ATOM      4  N   UNL     1      37.993 -25.498 -12.229  0.00  0.00    -0.240 NA
ATOM      5  N   UNL     1      36.638 -24.624 -15.444  0.00  0.00    -0.126 NA
ATOM      6  N   UNL     1      35.477 -24.217 -15.688  0.00  0.00    -0.040 NA
ATOM      7  C   UNL     1      37.000 -24.912 -14.180  0.00  0.00    +0.183 C 
ATOM      8  C   UNL     1      38.155 -25.366 -13.584  0.00  0.00    +0.164 C 
ATOM      9  C   UNL     1      34.812 -24.324 -13.329  0.00  0.00    +0.332 C 
ATOM     10  C   UNL     1      36.752 -25.129 -12.002  0.00  0.00    +0.229 C 
ATOM     11  C   UNL     1      33.235 -23.588 -15.022  0.00  0.00    +0.144 C 
ENDROOT
BRANCH   8  14
ATOM     12  O   UNL     1      40.268 -26.400 -13.720  0.00  0.00    -0.269 OA
ATOM     13  N   UNL     1      39.606 -25.157 -15.531  0.00  0.00    -0.324 N 
ATOM     14  C   UNL     1      39.388 -25.674 -14.245  0.00  0.00    +0.263 C 
ATOM     15  H   UNL     1      40.446 -25.355 -16.004  0.00  0.00    +0.145 HD
ATOM     16  H   UNL     1      38.919 -24.597 -15.958  0.00  0.00    +0.145 HD
ENDBRANCH   8  14
TORSDOF 1
ENDMDL
MODEL 4
REMARK VINA RESULT:      -7.1      9.496     11.972
REMARK  Name = 5394
REMARK  1 active torsions:
REMARK  status: ('A' for Active; 'I' for Inactive)
REMARK    1  A    between atoms: C_8  and  C_14
REMARK                            x       y       z     vdW  Elec       q    Type
REMARK                         _______ _______ _______ _____ _____    ______ ____
ROOT
ATOM      1  O   UNL     1      33.681 -15.653 -26.349  0.00  0.00    -0.250 OA
ATOM      2  N   UNL     1      34.271 -16.824 -24.523  0.00  0.00    -0.202 N 
ATOM      3  N   UNL     1      33.844 -14.607 -24.235  0.00  0.00    -0.154 N 
ATOM      4  N   UNL     1      34.801 -18.952 -24.153  0.00  0.00    -0.240 NA
ATOM      5  N   UNL     1      34.447 -15.831 -22.399  0.00  0.00    -0.126 NA
ATOM      6  N   UNL     1      34.117 -14.725 -22.887  0.00  0.00    -0.040 NA
ATOM      7  C   UNL     1      34.537 -16.918 -23.188  0.00  0.00    +0.183 C 
ATOM      8  C   UNL     1      34.863 -18.239 -22.983  0.00  0.00    +0.164 C 
ATOM      9  C   UNL     1      33.901 -15.649 -25.149  0.00  0.00    +0.332 C 
ATOM     10  C   UNL     1      34.442 -18.072 -25.062  0.00  0.00    +0.229 C 
ATOM     11  C   UNL     1      33.469 -13.296 -24.732  0.00  0.00    +0.144 C 
ENDROOT
BRANCH   8  14
ATOM     12  O   UNL     1      35.139 -20.079 -21.536  0.00  0.00    -0.269 OA
ATOM     13  N   UNL     1      35.705 -18.016 -20.707  0.00  0.00    -0.324 N 
ATOM     14  C   UNL     1      35.223 -18.841 -21.734  0.00  0.00    +0.263 C 
ATOM     15  H   UNL     1      35.958 -18.407 -19.840  0.00  0.00    +0.145 HD
ATOM     16  H   UNL     1      35.787 -17.046 -20.853  0.00  0.00    +0.145 HD
ENDBRANCH   8  14
TORSDOF 1
ENDMDL
MODEL 5
REMARK VINA RESULT:      -7.1     10.126     12.426
REMARK  Name = 5394
REMARK  1 active torsions:
REMARK  status: ('A' for Active; 'I' for Inactive)
REMARK    1  A    between atoms: C_8  and  C_14
REMARK                            x       y       z     vdW  Elec       q    Type
REMARK                         _______ _______ _______ _____ _____    ______ ____
ROOT
ATOM      1  O   UNL     1      32.762 -13.360 -24.037  0.00  0.00    -0.250 OA
ATOM      2  N   UNL     1      33.924 -15.122 -23.260  0.00  0.00    -0.202 N 
ATOM      3  N   UNL     1      33.527 -15.055 -25.499  0.00  0.00    -0.154 N 
ATOM      4  N   UNL     1      34.614 -15.751 -21.242  0.00  0.00    -0.240 NA
ATOM      5  N   UNL     1      34.706 -16.831 -24.672  0.00  0.00    -0.126 NA
ATOM      6  N   UNL     1      34.204 -16.247 -25.660  0.00  0.00    -0.040 NA
ATOM      7  C   UNL     1      34.588 -16.300 -23.441  0.00  0.00    +0.183 C 
ATOM      8  C   UNL     1      35.005 -16.669 -22.182  0.00  0.00    +0.164 C 
ATOM      9  C   UNL     1      33.339 -14.407 -24.288  0.00  0.00    +0.332 C 
ATOM     10  C   UNL     1      33.965 -14.831 -21.921  0.00  0.00    +0.229 C 
ATOM     11  C   UNL     1      32.971 -14.432 -26.688  0.00  0.00    +0.144 C 
ENDROOT
BRANCH   8  14
ATOM     12  O   UNL     1      35.701 -18.368 -20.704  0.00  0.00    -0.269 OA
ATOM     13  N   UNL     1      36.547 -18.440 -22.835  0.00  0.00    -0.324 N 
ATOM     14  C   UNL     1      35.750 -17.845 -21.845  0.00  0.00    +0.263 C 
ATOM     15  H   UNL     1      37.069 -19.248 -22.627  0.00  0.00    +0.145 HD
ATOM     16  H   UNL     1      36.585 -18.047 -23.737  0.00  0.00    +0.145 HD
ENDBRANCH   8  14
TORSDOF 1
ENDMDL
MODEL 6
REMARK VINA RESULT:      -7.0     11.660     13.918
REMARK  Name = 5394
REMARK  1 active torsions:
REMARK  status: ('A' for Active; 'I' for Inactive)
REMARK    1  A    between atoms: C_8  and  C_14
REMARK                            x       y       z     vdW  Elec       q    Type
REMARK                         _______ _______ _______ _____ _____    ______ ____
ROOT
ATOM      1  O   UNL     1      34.209 -17.796 -25.750  0.00  0.00    -0.250 OA
ATOM      2  N   UNL     1      33.947 -15.713 -24.945  0.00  0.00    -0.202 N 
ATOM      3  N   UNL     1      35.075 -17.191 -23.634  0.00  0.00    -0.154 N 
ATOM      4  N   UNL     1      32.971 -13.869 -25.714  0.00  0.00    -0.240 NA
ATOM      5  N   UNL     1      34.790 -15.062 -22.849  0.00  0.00    -0.126 NA
ATOM      6  N   UNL     1      35.247 -16.215 -22.673  0.00  0.00    -0.040 NA
ATOM      7  C   UNL     1      34.126 -14.764 -23.982  0.00  0.00    +0.183 C 
ATOM      8  C   UNL     1      33.515 -13.634 -24.478  0.00  0.00    +0.164 C 
ATOM      9  C   UNL     1      34.414 -17.009 -24.839  0.00  0.00    +0.332 C 
ATOM     10  C   UNL     1      33.247 -15.129 -25.969  0.00  0.00    +0.229 C 
ATOM     11  C   UNL     1      35.631 -18.505 -23.364  0.00  0.00    +0.144 C 
ENDROOT
BRANCH   8  14
ATOM     12  O   UNL     1      32.584 -12.114 -22.938  0.00  0.00    -0.269 OA
ATOM     13  N   UNL     1      34.346 -11.361 -24.197  0.00  0.00    -0.324 N 
ATOM     14  C   UNL     1      33.432 -12.360 -23.830  0.00  0.00    +0.263 C 
ATOM     15  H   UNL     1      34.308 -10.477 -23.766  0.00  0.00    +0.145 HD
ATOM     16  H   UNL     1      35.025 -11.544 -24.886  0.00  0.00    +0.145 HD
ENDBRANCH   8  14
TORSDOF 1
ENDMDL
MODEL 7
REMARK VINA RESULT:      -7.0     10.138     13.177
REMARK  Name = 5394
REMARK  1 active torsions:
REMARK  status: ('A' for Active; 'I' for Inactive)
REMARK    1  A    between atoms: C_8  and  C_14
REMARK                            x       y       z     vdW  Elec       q    Type
REMARK                         _______ _______ _______ _____ _____    ______ ____
ROOT
ATOM      1  O   UNL     1      34.962 -16.031 -20.568  0.00  0.00    -0.250 OA
ATOM      2  N   UNL     1      34.307 -15.692 -22.692  0.00  0.00    -0.202 N 
ATOM      3  N   UNL     1      35.425 -17.624 -22.253  0.00  0.00    -0.154 N 
ATOM      4  N   UNL     1      33.214 -14.059 -23.733  0.00  0.00    -0.240 NA
ATOM      5  N   UNL     1      34.742 -17.245 -24.403  0.00  0.00    -0.126 NA
ATOM      6  N   UNL     1      35.321 -17.992 -23.579  0.00  0.00    -0.040 NA
ATOM      7  C   UNL     1      34.216 -16.074 -23.999  0.00  0.00    +0.183 C 
ATOM      8  C   UNL     1      33.538 -15.051 -24.622  0.00  0.00    +0.164 C 
ATOM      9  C   UNL     1      34.925 -16.448 -21.715  0.00  0.00    +0.332 C 
ATOM     10  C   UNL     1      33.690 -14.473 -22.579  0.00  0.00    +0.229 C 
ATOM     11  C   UNL     1      36.109 -18.537 -21.354  0.00  0.00    +0.144 C 
ENDROOT
BRANCH   8  14
ATOM     12  O   UNL     1      32.800 -15.988 -26.654  0.00  0.00    -0.269 OA
ATOM     13  N   UNL     1      33.276 -13.744 -26.662  0.00  0.00    -0.324 N 
ATOM     14  C   UNL     1      33.191 -14.983 -26.009  0.00  0.00    +0.263 C 
ATOM     15  H   UNL     1      33.044 -13.674 -27.616  0.00  0.00    +0.145 HD
ATOM     16  H   UNL     1      33.569 -12.946 -26.166  0.00  0.00    +0.145 HD
ENDBRANCH   8  14
TORSDOF 1
ENDMDL
MODEL 8
REMARK VINA RESULT:      -7.0      5.259      8.285
REMARK  Name = 5394
REMARK  1 active torsions:
REMARK  status: ('A' for Active; 'I' for Inactive)
REMARK    1  A    between atoms: C_8  and  C_14
REMARK                            x       y       z     vdW  Elec       q    Type
REMARK                         _______ _______ _______ _____ _____    ______ ____
ROOT
ATOM      1  O   UNL     1      35.957 -22.588 -17.736  0.00  0.00    -0.250 OA
ATOM      2  N   UNL     1      35.362 -21.143 -19.352  0.00  0.00    -0.202 N 
ATOM      3  N   UNL     1      33.706 -22.409 -18.439  0.00  0.00    -0.154 N 
ATOM      4  N   UNL     1      36.471 -19.675 -20.601  0.00  0.00    -0.240 NA
ATOM      5  N   UNL     1      33.138 -20.926 -20.085  0.00  0.00    -0.126 NA
ATOM      6  N   UNL     1      32.781 -21.806 -19.267  0.00  0.00    -0.040 NA
ATOM      7  C   UNL     1      34.431 -20.561 -20.163  0.00  0.00    +0.183 C 
ATOM      8  C   UNL     1      35.139 -19.659 -20.925  0.00  0.00    +0.164 C 
ATOM      9  C   UNL     1      35.062 -22.120 -18.422  0.00  0.00    +0.332 C 
ATOM     10  C   UNL     1      36.574 -20.578 -19.652  0.00  0.00    +0.229 C 
ATOM     11  C   UNL     1      33.223 -23.420 -17.515  0.00  0.00    +0.144 C 
ENDROOT
BRANCH   8  14
ATOM     12  O   UNL     1      34.452 -19.165 -23.124  0.00  0.00    -0.269 OA
ATOM     13  N   UNL     1      34.218 -17.496 -21.568  0.00  0.00    -0.324 N 
ATOM     14  C   UNL     1      34.603 -18.795 -21.933  0.00  0.00    +0.263 C 
ATOM     15  H   UNL     1      33.848 -16.884 -22.244  0.00  0.00    +0.145 HD
ATOM     16  H   UNL     1      34.319 -17.197 -20.636  0.00  0.00    +0.145 HD
ENDBRANCH   8  14
TORSDOF 1
ENDMDL
MODEL 9
REMARK VINA RESULT:      -6.9      3.064      4.353
REMARK  Name = 5394
REMARK  1 active torsions:
REMARK  status: ('A' for Active; 'I' for Inactive)
REMARK    1  A    between atoms: C_8  and  C_14
REMARK                            x       y       z     vdW  Elec       q    Type
REMARK                         _______ _______ _______ _____ _____    ______ ____
ROOT
ATOM      1  O   UNL     1      35.445 -23.161 -16.715  0.00  0.00    -0.250 OA
ATOM      2  N   UNL     1      33.596 -23.624 -15.523  0.00  0.00    -0.202 N 
ATOM      3  N   UNL     1      33.292 -22.835 -17.636  0.00  0.00    -0.154 N 
ATOM      4  N   UNL     1      33.230 -24.396 -13.470  0.00  0.00    -0.240 NA
ATOM      5  N   UNL     1      31.433 -23.318 -16.394  0.00  0.00    -0.126 NA
ATOM      6  N   UNL     1      31.923 -22.909 -17.472  0.00  0.00    -0.040 NA
ATOM      7  C   UNL     1      32.240 -23.689 -15.383  0.00  0.00    +0.183 C 
ATOM      8  C   UNL     1      32.038 -24.167 -14.108  0.00  0.00    +0.164 C 
ATOM      9  C   UNL     1      34.226 -23.187 -16.673  0.00  0.00    +0.332 C 
ATOM     10  C   UNL     1      34.149 -24.060 -14.348  0.00  0.00    +0.229 C 
ATOM     11  C   UNL     1      33.791 -22.352 -18.911  0.00  0.00    +0.144 C 
ENDROOT
BRANCH   8  14
ATOM     12  O   UNL     1      30.487 -23.961 -12.346  0.00  0.00    -0.269 OA
ATOM     13  N   UNL     1      29.816 -25.166 -14.179  0.00  0.00    -0.324 N 
ATOM     14  C   UNL     1      30.773 -24.412 -13.483  0.00  0.00    +0.263 C 
ATOM     15  H   UNL     1      28.939 -25.347 -13.770  0.00  0.00    +0.145 HD
ATOM     16  H   UNL     1      30.023 -25.514 -15.077  0.00  0.00    +0.145 HD
ENDBRANCH   8  14
TORSDOF 1
ENDMDL
