MODEL 1
REMARK VINA RESULT:     -11.2      0.000      0.000
REMARK  Name = 10182969
REMARK  5 active torsions:
REMARK  status: ('A' for Active; 'I' for Inactive)
REMARK    1  A    between atoms: N_2  and  C_11
REMARK    2  A    between atoms: N_3  and  C_24
REMARK    3  A    between atoms: C_10  and  C_34
REMARK    4  A    between atoms: C_12  and  N_18
REMARK    5  A    between atoms: C_29  and  O_30
REMARK                            x       y       z     vdW  Elec       q    Type
REMARK                         _______ _______ _______ _____ _____    ______ ____
ROOT
ATOM      1  O   UNL     1      32.128 -21.911 -17.941  0.00  0.00    -0.268 OA
ATOM      2  N   UNL     1      34.462 -22.001 -18.274  0.00  0.00    -0.254 N 
ATOM      3  N   UNL     1      32.472 -23.621 -15.580  0.00  0.00    -0.225 N 
ATOM      4  N   UNL     1      32.981 -24.320 -14.547  0.00  0.00    -0.161 NA
ATOM      5  C   UNL     1      35.905 -23.022 -16.450  0.00  0.00    +0.052 C 
ATOM      6  C   UNL     1      35.699 -22.771 -17.954  0.00  0.00    +0.103 C 
ATOM      7  C   UNL     1      34.629 -23.446 -15.850  0.00  0.00    +0.026 A 
ATOM      8  C   UNL     1      33.423 -23.082 -16.397  0.00  0.00    +0.134 A 
ATOM      9  C   UNL     1      33.244 -22.279 -17.584  0.00  0.00    +0.270 C 
ATOM     10  C   UNL     1      34.302 -24.207 -14.716  0.00  0.00    +0.152 A 
ENDROOT
BRANCH   2  11
ATOM     11  C   UNL     1      34.488 -21.118 -19.413  0.00  0.00    +0.054 C 
ATOM     12  C   UNL     1      34.539 -19.413 -21.613  0.00  0.00    +0.054 C 
ATOM     13  C   UNL     1      35.709 -20.705 -19.939  0.00  0.00    +0.016 C 
ATOM     14  C   UNL     1      33.293 -20.686 -19.980  0.00  0.00    +0.016 C 
ATOM     15  C   UNL     1      35.734 -19.850 -21.042  0.00  0.00    +0.016 C 
ATOM     16  C   UNL     1      33.318 -19.831 -21.082  0.00  0.00    +0.016 C 
BRANCH  12  18
ATOM     17  O   UNL     1      34.900 -20.215 -24.354  0.00  0.00    -0.275 OA
ATOM     18  N   UNL     1      34.564 -18.528 -22.756  0.00  0.00    -0.259 N 
ATOM     19  C   UNL     1      34.703 -17.085 -22.493  0.00  0.00    +0.098 C 
ATOM     20  C   UNL     1      34.193 -16.194 -23.613  0.00  0.00    +0.022 C 
ATOM     21  C   UNL     1      34.804 -16.642 -24.922  0.00  0.00    +0.011 C 
ATOM     22  C   UNL     1      34.377 -18.068 -25.194  0.00  0.00    +0.086 C 
ATOM     23  C   UNL     1      34.662 -19.040 -24.062  0.00  0.00    +0.229 C 
ENDBRANCH  12  18
ENDBRANCH   2  11
BRANCH   3  24
ATOM     24  C   UNL     1      31.088 -23.526 -15.722  0.00  0.00    +0.083 C 
ATOM     25  C   UNL     1      30.416 -22.436 -15.183  0.00  0.00    +0.022 C 
ATOM     26  C   UNL     1      30.397 -24.523 -16.400  0.00  0.00    +0.022 C 
ATOM     27  C   UNL     1      29.032 -22.342 -15.324  0.00  0.00    +0.038 C 
ATOM     28  C   UNL     1      29.013 -24.428 -16.542  0.00  0.00    +0.038 C 
ATOM     29  C   UNL     1      28.330 -23.337 -16.002  0.00  0.00    +0.139 C 
BRANCH  29  30
ATOM     30  O   UNL     1      26.979 -23.244 -16.141  0.00  0.00    -0.471 OA
ATOM     31  C   UNL     1      26.410 -21.936 -16.111  0.00  0.00    +0.252 C 
ENDBRANCH  29  30
ENDBRANCH   3  24
BRANCH  10  34
ATOM     32  O   UNL     1      35.286 -24.483 -12.585  0.00  0.00    -0.269 OA
ATOM     33  N   UNL     1      35.983 -25.885 -14.241  0.00  0.00    -0.324 N 
ATOM     34  C   UNL     1      35.196 -24.828 -13.781  0.00  0.00    +0.262 C 
ATOM     35  H   UNL     1      36.608 -26.335 -13.629  0.00  0.00    +0.145 HD
ATOM     36  H   UNL     1      35.912 -26.179 -15.178  0.00  0.00    +0.145 HD
ENDBRANCH  10  34
TORSDOF 5
ENDMDL
MODEL 2
REMARK VINA RESULT:     -11.2      0.843      1.452
REMARK  Name = 10182969
REMARK  5 active torsions:
REMARK  status: ('A' for Active; 'I' for Inactive)
REMARK    1  A    between atoms: N_2  and  C_11
REMARK    2  A    between atoms: N_3  and  C_24
REMARK    3  A    between atoms: C_10  and  C_34
REMARK    4  A    between atoms: C_12  and  N_18
REMARK    5  A    between atoms: C_29  and  O_30
REMARK                            x       y       z     vdW  Elec       q    Type
REMARK                         _______ _______ _______ _____ _____    ______ ____
ROOT
ATOM      1  O   UNL     1      32.172 -22.023 -17.767  0.00  0.00    -0.268 OA
ATOM      2  N   UNL     1      34.506 -22.110 -18.101  0.00  0.00    -0.254 N 
ATOM      3  N   UNL     1      32.526 -23.685 -15.374  0.00  0.00    -0.225 N 
ATOM      4  N   UNL     1      33.038 -24.362 -14.327  0.00  0.00    -0.161 NA
ATOM      5  C   UNL     1      35.955 -23.089 -16.260  0.00  0.00    +0.052 C 
ATOM      6  C   UNL     1      35.746 -22.869 -17.768  0.00  0.00    +0.103 C 
ATOM      7  C   UNL     1      34.681 -23.507 -15.650  0.00  0.00    +0.026 A 
ATOM      8  C   UNL     1      33.473 -23.158 -16.203  0.00  0.00    +0.134 A 
ATOM      9  C   UNL     1      33.289 -22.379 -17.405  0.00  0.00    +0.270 C 
ATOM     10  C   UNL     1      34.359 -24.247 -14.501  0.00  0.00    +0.152 A 
ENDROOT
BRANCH   2  11
ATOM     11  C   UNL     1      34.527 -21.250 -19.258  0.00  0.00    +0.054 C 
ATOM     12  C   UNL     1      34.568 -19.588 -21.491  0.00  0.00    +0.054 C 
ATOM     13  C   UNL     1      35.745 -20.851 -19.800  0.00  0.00    +0.016 C 
ATOM     14  C   UNL     1      33.329 -20.826 -19.825  0.00  0.00    +0.016 C 
ATOM     15  C   UNL     1      35.766 -20.018 -20.919  0.00  0.00    +0.016 C 
ATOM     16  C   UNL     1      33.350 -19.992 -20.944  0.00  0.00    +0.016 C 
BRANCH  12  18
ATOM     17  O   UNL     1      34.652 -16.711 -21.444  0.00  0.00    -0.275 OA
ATOM     18  N   UNL     1      34.589 -18.725 -22.651  0.00  0.00    -0.259 N 
ATOM     19  C   UNL     1      34.255 -19.330 -23.952  0.00  0.00    +0.098 C 
ATOM     20  C   UNL     1      34.800 -18.571 -25.151  0.00  0.00    +0.022 C 
ATOM     21  C   UNL     1      34.416 -17.114 -25.034  0.00  0.00    +0.011 C 
ATOM     22  C   UNL     1      35.032 -16.548 -23.773  0.00  0.00    +0.086 C 
ATOM     23  C   UNL     1      34.716 -17.332 -22.509  0.00  0.00    +0.229 C 
ENDBRANCH  12  18
ENDBRANCH   2  11
BRANCH   3  24
ATOM     24  C   UNL     1      31.141 -23.598 -15.516  0.00  0.00    +0.083 C 
ATOM     25  C   UNL     1      30.444 -24.647 -16.104  0.00  0.00    +0.022 C 
ATOM     26  C   UNL     1      30.475 -22.463 -15.070  0.00  0.00    +0.022 C 
ATOM     27  C   UNL     1      29.060 -24.559 -16.248  0.00  0.00    +0.038 C 
ATOM     28  C   UNL     1      29.090 -22.376 -15.214  0.00  0.00    +0.038 C 
ATOM     29  C   UNL     1      28.383 -23.424 -15.803  0.00  0.00    +0.139 C 
BRANCH  29  30
ATOM     30  O   UNL     1      27.031 -23.339 -15.943  0.00  0.00    -0.471 OA
ATOM     31  C   UNL     1      26.480 -22.038 -16.145  0.00  0.00    +0.252 C 
ENDBRANCH  29  30
ENDBRANCH   3  24
BRANCH  10  34
ATOM     32  O   UNL     1      35.281 -24.541 -12.344  0.00  0.00    -0.269 OA
ATOM     33  N   UNL     1      36.125 -25.833 -14.021  0.00  0.00    -0.324 N 
ATOM     34  C   UNL     1      35.256 -24.845 -13.554  0.00  0.00    +0.262 C 
ATOM     35  H   UNL     1      36.755 -26.266 -13.402  0.00  0.00    +0.145 HD
ATOM     36  H   UNL     1      36.107 -26.096 -14.970  0.00  0.00    +0.145 HD
ENDBRANCH  10  34
TORSDOF 5
ENDMDL
MODEL 3
REMARK VINA RESULT:     -10.4      1.208      1.477
REMARK  Name = 10182969
REMARK  5 active torsions:
REMARK  status: ('A' for Active; 'I' for Inactive)
REMARK    1  A    between atoms: N_2  and  C_11
REMARK    2  A    between atoms: N_3  and  C_24
REMARK    3  A    between atoms: C_10  and  C_34
REMARK    4  A    between atoms: C_12  and  N_18
REMARK    5  A    between atoms: C_29  and  O_30
REMARK                            x       y       z     vdW  Elec       q    Type
REMARK                         _______ _______ _______ _____ _____    ______ ____
ROOT
ATOM      1  O   UNL     1      32.674 -22.131 -17.573  0.00  0.00    -0.268 OA
ATOM      2  N   UNL     1      35.000 -22.089 -17.966  0.00  0.00    -0.254 N 
ATOM      3  N   UNL     1      33.181 -23.744 -15.174  0.00  0.00    -0.225 N 
ATOM      4  N   UNL     1      33.757 -24.378 -14.134  0.00  0.00    -0.161 NA
ATOM      5  C   UNL     1      36.548 -22.965 -16.153  0.00  0.00    +0.052 C 
ATOM      6  C   UNL     1      36.289 -22.773 -17.657  0.00  0.00    +0.103 C 
ATOM      7  C   UNL     1      35.316 -23.447 -15.507  0.00  0.00    +0.026 A 
ATOM      8  C   UNL     1      34.076 -23.173 -16.032  0.00  0.00    +0.134 A 
ATOM      9  C   UNL     1      33.818 -22.420 -17.236  0.00  0.00    +0.270 C 
ATOM     10  C   UNL     1      35.065 -24.191 -14.342  0.00  0.00    +0.152 A 
ENDROOT
BRANCH   2  11
ATOM     11  C   UNL     1      34.943 -21.243 -19.131  0.00  0.00    +0.054 C 
ATOM     12  C   UNL     1      34.834 -19.606 -21.381  0.00  0.00    +0.054 C 
ATOM     13  C   UNL     1      36.118 -20.722 -19.665  0.00  0.00    +0.016 C 
ATOM     14  C   UNL     1      33.714 -20.952 -19.715  0.00  0.00    +0.016 C 
ATOM     15  C   UNL     1      36.064 -19.902 -20.792  0.00  0.00    +0.016 C 
ATOM     16  C   UNL     1      33.659 -20.131 -20.841  0.00  0.00    +0.016 C 
BRANCH  12  18
ATOM     17  O   UNL     1      34.929 -16.729 -21.373  0.00  0.00    -0.275 OA
ATOM     18  N   UNL     1      34.776 -18.757 -22.549  0.00  0.00    -0.259 N 
ATOM     19  C   UNL     1      34.351 -19.375 -23.817  0.00  0.00    +0.098 C 
ATOM     20  C   UNL     1      34.814 -18.632 -25.059  0.00  0.00    +0.022 C 
ATOM     21  C   UNL     1      34.443 -17.172 -24.932  0.00  0.00    +0.011 C 
ATOM     22  C   UNL     1      35.147 -16.595 -23.724  0.00  0.00    +0.086 C 
ATOM     23  C   UNL     1      34.918 -17.362 -22.433  0.00  0.00    +0.229 C 
ENDBRANCH  12  18
ENDBRANCH   2  11
BRANCH   3  24
ATOM     24  C   UNL     1      31.790 -23.737 -15.281  0.00  0.00    +0.083 C 
ATOM     25  C   UNL     1      31.068 -22.665 -14.774  0.00  0.00    +0.022 C 
ATOM     26  C   UNL     1      31.145 -24.803 -15.894  0.00  0.00    +0.022 C 
ATOM     27  C   UNL     1      29.677 -22.659 -14.880  0.00  0.00    +0.038 C 
ATOM     28  C   UNL     1      29.754 -24.797 -16.001  0.00  0.00    +0.038 C 
ATOM     29  C   UNL     1      29.020 -23.724 -15.493  0.00  0.00    +0.139 C 
BRANCH  29  30
ATOM     30  O   UNL     1      27.663 -23.719 -15.598  0.00  0.00    -0.471 OA
ATOM     31  C   UNL     1      27.051 -22.513 -16.055  0.00  0.00    +0.252 C 
ENDBRANCH  29  30
ENDBRANCH   3  24
BRANCH  10  34
ATOM     32  O   UNL     1      36.555 -25.845 -13.548  0.00  0.00    -0.269 OA
ATOM     33  N   UNL     1      36.370 -23.934 -12.319  0.00  0.00    -0.324 N 
ATOM     34  C   UNL     1      36.018 -24.726 -13.413  0.00  0.00    +0.262 C 
ATOM     35  H   UNL     1      37.021 -24.268 -11.660  0.00  0.00    +0.145 HD
ATOM     36  H   UNL     1      35.968 -23.043 -12.206  0.00  0.00    +0.145 HD
ENDBRANCH  10  34
TORSDOF 5
ENDMDL
MODEL 4
REMARK VINA RESULT:     -10.0      2.206      5.269
REMARK  Name = 10182969
REMARK  5 active torsions:
REMARK  status: ('A' for Active; 'I' for Inactive)
REMARK    1  A    between atoms: N_2  and  C_11
REMARK    2  A    between atoms: N_3  and  C_24
REMARK    3  A    between atoms: C_10  and  C_34
REMARK    4  A    between atoms: C_12  and  N_18
REMARK    5  A    between atoms: C_29  and  O_30
REMARK                            x       y       z     vdW  Elec       q    Type
REMARK                         _______ _______ _______ _____ _____    ______ ____
ROOT
ATOM      1  O   UNL     1      35.189 -22.739 -17.259  0.00  0.00    -0.268 OA
ATOM      2  N   UNL     1      33.001 -22.114 -17.883  0.00  0.00    -0.254 N 
ATOM      3  N   UNL     1      34.034 -24.344 -15.090  0.00  0.00    -0.225 N 
ATOM      4  N   UNL     1      33.197 -25.020 -14.279  0.00  0.00    -0.161 NA
ATOM      5  C   UNL     1      31.044 -23.310 -16.791  0.00  0.00    +0.052 C 
ATOM      6  C   UNL     1      31.592 -22.009 -17.404  0.00  0.00    +0.103 C 
ATOM      7  C   UNL     1      32.059 -23.887 -15.893  0.00  0.00    +0.026 A 
ATOM      8  C   UNL     1      33.399 -23.641 -16.072  0.00  0.00    +0.134 A 
ATOM      9  C   UNL     1      33.973 -22.816 -17.108  0.00  0.00    +0.270 C 
ATOM     10  C   UNL     1      31.988 -24.738 -14.778  0.00  0.00    +0.152 A 
ENDROOT
BRANCH   2  11
ATOM     11  C   UNL     1      33.386 -21.334 -19.032  0.00  0.00    +0.054 C 
ATOM     12  C   UNL     1      34.132 -19.827 -21.251  0.00  0.00    +0.054 C 
ATOM     13  C   UNL     1      34.711 -21.342 -19.459  0.00  0.00    +0.016 C 
ATOM     14  C   UNL     1      32.432 -20.580 -19.707  0.00  0.00    +0.016 C 
ATOM     15  C   UNL     1      35.085 -20.586 -20.571  0.00  0.00    +0.016 C 
ATOM     16  C   UNL     1      32.805 -19.824 -20.818  0.00  0.00    +0.016 C 
BRANCH  12  18
ATOM     17  O   UNL     1      35.075 -17.108 -21.197  0.00  0.00    -0.275 OA
ATOM     18  N   UNL     1      34.518 -19.044 -22.403  0.00  0.00    -0.259 N 
ATOM     19  C   UNL     1      34.137 -19.558 -23.730  0.00  0.00    +0.098 C 
ATOM     20  C   UNL     1      34.993 -19.033 -24.872  0.00  0.00    +0.022 C 
ATOM     21  C   UNL     1      35.058 -17.525 -24.792  0.00  0.00    +0.011 C 
ATOM     22  C   UNL     1      35.698 -17.135 -23.478  0.00  0.00    +0.086 C 
ATOM     23  C   UNL     1      35.046 -17.750 -22.250  0.00  0.00    +0.229 C 
ENDBRANCH  12  18
ENDBRANCH   2  11
BRANCH   3  24
ATOM     24  C   UNL     1      35.408 -24.410 -14.857  0.00  0.00    +0.083 C 
ATOM     25  C   UNL     1      36.107 -25.562 -15.195  0.00  0.00    +0.022 C 
ATOM     26  C   UNL     1      36.061 -23.323 -14.288  0.00  0.00    +0.022 C 
ATOM     27  C   UNL     1      37.480 -25.628 -14.961  0.00  0.00    +0.038 C 
ATOM     28  C   UNL     1      37.434 -23.390 -14.055  0.00  0.00    +0.038 C 
ATOM     29  C   UNL     1      38.144 -24.543 -14.391  0.00  0.00    +0.139 C 
BRANCH  29  30
ATOM     30  O   UNL     1      39.484 -24.608 -14.163  0.00  0.00    -0.471 OA
ATOM     31  C   UNL     1      40.159 -25.793 -14.582  0.00  0.00    +0.252 C 
ENDBRANCH  29  30
ENDBRANCH   3  24
BRANCH  10  34
ATOM     32  O   UNL     1      30.061 -26.107 -14.749  0.00  0.00    -0.269 OA
ATOM     33  N   UNL     1      30.535 -24.938 -12.851  0.00  0.00    -0.324 N 
ATOM     34  C   UNL     1      30.818 -25.301 -14.169  0.00  0.00    +0.262 C 
ATOM     35  H   UNL     1      29.740 -25.303 -12.400  0.00  0.00    +0.145 HD
ATOM     36  H   UNL     1      31.130 -24.315 -12.374  0.00  0.00    +0.145 HD
ENDBRANCH  10  34
TORSDOF 5
ENDMDL
MODEL 5
REMARK VINA RESULT:      -8.6      4.123     10.681
REMARK  Name = 10182969
REMARK  5 active torsions:
REMARK  status: ('A' for Active; 'I' for Inactive)
REMARK    1  A    between atoms: N_2  and  C_11
REMARK    2  A    between atoms: N_3  and  C_24
REMARK    3  A    between atoms: C_10  and  C_34
REMARK    4  A    between atoms: C_12  and  N_18
REMARK    5  A    between atoms: C_29  and  O_30
REMARK                            x       y       z     vdW  Elec       q    Type
REMARK                         _______ _______ _______ _____ _____    ______ ____
ROOT
ATOM      1  O   UNL     1      33.152 -15.934 -21.139  0.00  0.00    -0.268 OA
ATOM      2  N   UNL     1      34.184 -17.478 -22.593  0.00  0.00    -0.254 N 
ATOM      3  N   UNL     1      32.959 -14.057 -23.387  0.00  0.00    -0.225 N 
ATOM      4  N   UNL     1      32.955 -13.493 -24.611  0.00  0.00    -0.161 NA
ATOM      5  C   UNL     1      34.208 -16.967 -25.081  0.00  0.00    +0.052 C 
ATOM      6  C   UNL     1      34.922 -17.616 -23.883  0.00  0.00    +0.103 C 
ATOM      7  C   UNL     1      33.708 -15.639 -24.687  0.00  0.00    +0.026 A 
ATOM      8  C   UNL     1      33.410 -15.344 -23.378  0.00  0.00    +0.134 A 
ATOM      9  C   UNL     1      33.545 -16.247 -22.259  0.00  0.00    +0.270 C 
ATOM     10  C   UNL     1      33.413 -14.468 -25.403  0.00  0.00    +0.152 A 
ENDROOT
BRANCH   2  11
ATOM     11  C   UNL     1      34.301 -18.543 -21.629  0.00  0.00    +0.054 C 
ATOM     12  C   UNL     1      34.526 -20.600 -19.767  0.00  0.00    +0.054 C 
ATOM     13  C   UNL     1      35.561 -18.972 -21.222  0.00  0.00    +0.016 C 
ATOM     14  C   UNL     1      33.153 -19.134 -21.110  0.00  0.00    +0.016 C 
ATOM     15  C   UNL     1      35.674 -20.003 -20.289  0.00  0.00    +0.016 C 
ATOM     16  C   UNL     1      33.266 -20.166 -20.178  0.00  0.00    +0.016 C 
BRANCH  12  18
ATOM     17  O   UNL     1      36.844 -21.165 -18.155  0.00  0.00    -0.275 OA
ATOM     18  N   UNL     1      34.642 -21.669 -18.800  0.00  0.00    -0.259 N 
ATOM     19  C   UNL     1      33.619 -22.727 -18.833  0.00  0.00    +0.098 C 
ATOM     20  C   UNL     1      33.462 -23.485 -17.525  0.00  0.00    +0.022 C 
ATOM     21  C   UNL     1      34.820 -23.957 -17.058  0.00  0.00    +0.011 C 
ATOM     22  C   UNL     1      35.701 -22.750 -16.824  0.00  0.00    +0.086 C 
ATOM     23  C   UNL     1      35.796 -21.799 -18.005  0.00  0.00    +0.229 C 
ENDBRANCH  12  18
ENDBRANCH   2  11
BRANCH   3  24
ATOM     24  C   UNL     1      32.533 -13.307 -22.290  0.00  0.00    +0.083 C 
ATOM     25  C   UNL     1      32.746 -13.789 -21.005  0.00  0.00    +0.022 C 
ATOM     26  C   UNL     1      31.899 -12.088 -22.497  0.00  0.00    +0.022 C 
ATOM     27  C   UNL     1      32.319 -13.040 -19.909  0.00  0.00    +0.038 C 
ATOM     28  C   UNL     1      31.473 -11.339 -21.400  0.00  0.00    +0.038 C 
ATOM     29  C   UNL     1      31.683 -11.816 -20.106  0.00  0.00    +0.139 C 
BRANCH  29  30
ATOM     30  O   UNL     1      31.266 -11.084 -19.036  0.00  0.00    -0.471 OA
ATOM     31  C   UNL     1      31.527  -9.682 -19.066  0.00  0.00    +0.252 C 
ENDBRANCH  29  30
ENDBRANCH   3  24
BRANCH  10  34
ATOM     32  O   UNL     1      33.225 -15.080 -27.678  0.00  0.00    -0.269 OA
ATOM     33  N   UNL     1      34.028 -12.995 -27.225  0.00  0.00    -0.324 N 
ATOM     34  C   UNL     1      33.542 -14.238 -26.813  0.00  0.00    +0.262 C 
ATOM     35  H   UNL     1      34.131 -12.802 -28.184  0.00  0.00    +0.145 HD
ATOM     36  H   UNL     1      34.267 -12.315 -26.556  0.00  0.00    +0.145 HD
ENDBRANCH  10  34
TORSDOF 5
ENDMDL
