MODEL 1
REMARK VINA RESULT:      -6.8      0.000      0.000
REMARK  Name = 5601
REMARK  4 active torsions:
REMARK  status: ('A' for Active; 'I' for Inactive)
REMARK    1  A    between atoms: C_1  and  C_3
REMARK    2  A    between atoms: C_1  and  C_10
REMARK    3  A    between atoms: C_3  and  C_5
REMARK    4  A    between atoms: C_10  and  C_14
REMARK                            x       y       z     vdW  Elec       q    Type
REMARK                         _______ _______ _______ _____ _____    ______ ____
ROOT
ATOM      1  C   UNL     1      34.774 -17.944 -22.707  0.00  0.00    +0.143 C 
ENDROOT
BRANCH   1   3
ATOM      2  O   UNL     1      36.784 -18.612 -21.596  0.00  0.00    -0.290 OA
ATOM      3  C   UNL     1      35.570 -18.781 -21.714  0.00  0.00    +0.187 C 
BRANCH   3   5
ATOM      4  S   UNL     1      35.739 -20.930 -20.070  0.00  0.00    -0.084 S 
ATOM      5  C   UNL     1      34.836 -19.767 -20.901  0.00  0.00    +0.065 C 
ATOM      6  C   UNL     1      33.501 -19.858 -20.733  0.00  0.00    +0.010 C 
ATOM      7  C   UNL     1      33.178 -20.945 -19.871  0.00  0.00    +0.008 C 
ATOM      8  C   UNL     1      34.302 -21.614 -19.438  0.00  0.00    +0.036 C 
ENDBRANCH   3   5
ENDBRANCH   1   3
BRANCH   1  10
ATOM      9  O   UNL     1      35.320 -15.678 -23.347  0.00  0.00    -0.287 OA
ATOM     10  C   UNL     1      34.824 -16.440 -22.519  0.00  0.00    +0.252 C 
BRANCH  10  14
ATOM     11  F   UNL     1      34.999 -15.999 -20.198  0.00  0.00    -0.163 F 
ATOM     12  F   UNL     1      33.040 -16.579 -20.957  0.00  0.00    -0.163 F 
ATOM     13  F   UNL     1      33.836 -14.599 -21.400  0.00  0.00    -0.163 F 
ATOM     14  C   UNL     1      34.176 -15.906 -21.273  0.00  0.00    +0.452 C 
ENDBRANCH  10  14
ENDBRANCH   1  10
TORSDOF 4
ENDMDL
MODEL 2
REMARK VINA RESULT:      -6.8      3.728      5.208
REMARK  Name = 5601
REMARK  4 active torsions:
REMARK  status: ('A' for Active; 'I' for Inactive)
REMARK    1  A    between atoms: C_1  and  C_3
REMARK    2  A    between atoms: C_1  and  C_10
REMARK    3  A    between atoms: C_3  and  C_5
REMARK    4  A    between atoms: C_10  and  C_14
REMARK                            x       y       z     vdW  Elec       q    Type
REMARK                         _______ _______ _______ _____ _____    ______ ____
ROOT
ATOM      1  C   UNL     1      36.102 -19.167 -21.027  0.00  0.00    +0.143 C 
ENDROOT
BRANCH   1   3
ATOM      2  O   UNL     1      35.179 -17.002 -20.597  0.00  0.00    -0.290 OA
ATOM      3  C   UNL     1      35.409 -17.874 -21.436  0.00  0.00    +0.187 C 
BRANCH   3   5
ATOM      4  S   UNL     1      34.880 -16.128 -23.441  0.00  0.00    -0.084 S 
ATOM      5  C   UNL     1      35.052 -17.705 -22.856  0.00  0.00    +0.065 C 
ATOM      6  C   UNL     1      34.841 -18.676 -23.768  0.00  0.00    +0.010 C 
ATOM      7  C   UNL     1      34.515 -18.110 -25.035  0.00  0.00    +0.008 C 
ATOM      8  C   UNL     1      34.501 -16.733 -24.998  0.00  0.00    +0.036 C 
ENDBRANCH   3   5
ENDBRANCH   1   3
BRANCH   1  10
ATOM      9  O   UNL     1      33.997 -20.239 -20.514  0.00  0.00    -0.287 OA
ATOM     10  C   UNL     1      35.223 -20.245 -20.421  0.00  0.00    +0.252 C 
BRANCH  10  14
ATOM     11  F   UNL     1      37.153 -21.613 -20.288  0.00  0.00    -0.163 F 
ATOM     12  F   UNL     1      35.241 -22.538 -19.801  0.00  0.00    -0.163 F 
ATOM     13  F   UNL     1      36.146 -21.116 -18.419  0.00  0.00    -0.163 F 
ATOM     14  C   UNL     1      35.938 -21.375 -19.734  0.00  0.00    +0.452 C 
ENDBRANCH  10  14
ENDBRANCH   1  10
TORSDOF 4
ENDMDL
MODEL 3
REMARK VINA RESULT:      -6.8      1.507      1.777
REMARK  Name = 5601
REMARK  4 active torsions:
REMARK  status: ('A' for Active; 'I' for Inactive)
REMARK    1  A    between atoms: C_1  and  C_3
REMARK    2  A    between atoms: C_1  and  C_10
REMARK    3  A    between atoms: C_3  and  C_5
REMARK    4  A    between atoms: C_10  and  C_14
REMARK                            x       y       z     vdW  Elec       q    Type
REMARK                         _______ _______ _______ _____ _____    ______ ____
ROOT
ATOM      1  C   UNL     1      34.161 -17.727 -21.515  0.00  0.00    +0.143 C 
ENDROOT
BRANCH   1   3
ATOM      2  O   UNL     1      36.396 -18.577 -21.537  0.00  0.00    -0.290 OA
ATOM      3  C   UNL     1      35.225 -18.775 -21.214  0.00  0.00    +0.187 C 
BRANCH   3   5
ATOM      4  S   UNL     1      36.012 -21.032 -19.937  0.00  0.00    -0.084 S 
ATOM      5  C   UNL     1      34.803 -20.001 -20.514  0.00  0.00    +0.065 C 
ATOM      6  C   UNL     1      33.542 -20.412 -20.270  0.00  0.00    +0.010 C 
ATOM      7  C   UNL     1      33.547 -21.651 -19.566  0.00  0.00    +0.008 C 
ATOM      8  C   UNL     1      34.825 -22.101 -19.321  0.00  0.00    +0.036 C 
ENDBRANCH   3   5
ENDBRANCH   1   3
BRANCH   1  10
ATOM      9  O   UNL     1      34.975 -15.796 -20.310  0.00  0.00    -0.287 OA
ATOM     10  C   UNL     1      34.578 -16.276 -21.370  0.00  0.00    +0.252 C 
BRANCH  10  14
ATOM     11  F   UNL     1      35.449 -15.865 -23.535  0.00  0.00    -0.163 F 
ATOM     12  F   UNL     1      34.798 -14.136 -22.378  0.00  0.00    -0.163 F 
ATOM     13  F   UNL     1      33.322 -15.499 -23.224  0.00  0.00    -0.163 F 
ATOM     14  C   UNL     1      34.537 -15.446 -22.623  0.00  0.00    +0.452 C 
ENDBRANCH  10  14
ENDBRANCH   1  10
TORSDOF 4
ENDMDL
MODEL 4
REMARK VINA RESULT:      -6.6      1.883      2.533
REMARK  Name = 5601
REMARK  4 active torsions:
REMARK  status: ('A' for Active; 'I' for Inactive)
REMARK    1  A    between atoms: C_1  and  C_3
REMARK    2  A    between atoms: C_1  and  C_10
REMARK    3  A    between atoms: C_3  and  C_5
REMARK    4  A    between atoms: C_10  and  C_14
REMARK                            x       y       z     vdW  Elec       q    Type
REMARK                         _______ _______ _______ _____ _____    ______ ____
ROOT
ATOM      1  C   UNL     1      34.841 -15.923 -22.399  0.00  0.00    +0.143 C 
ENDROOT
BRANCH   1   3
ATOM      2  O   UNL     1      34.427 -17.615 -24.038  0.00  0.00    -0.290 OA
ATOM      3  C   UNL     1      34.771 -17.365 -22.882  0.00  0.00    +0.187 C 
BRANCH   3   5
ATOM      4  S   UNL     1      33.926 -19.463 -21.387  0.00  0.00    -0.084 S 
ATOM      5  C   UNL     1      35.146 -18.428 -21.931  0.00  0.00    +0.065 C 
ATOM      6  C   UNL     1      36.372 -18.682 -21.430  0.00  0.00    +0.010 C 
ATOM      7  C   UNL     1      36.328 -19.794 -20.541  0.00  0.00    +0.008 C 
ATOM      8  C   UNL     1      35.058 -20.314 -20.425  0.00  0.00    +0.036 C 
ENDBRANCH   3   5
ENDBRANCH   1   3
BRANCH   1  10
ATOM      9  O   UNL     1      34.957 -15.618 -20.004  0.00  0.00    -0.287 OA
ATOM     10  C   UNL     1      34.270 -15.640 -21.023  0.00  0.00    +0.252 C 
BRANCH  10  14
ATOM     11  F   UNL     1      32.070 -16.405 -20.590  0.00  0.00    -0.163 F 
ATOM     12  F   UNL     1      32.316 -14.925 -22.170  0.00  0.00    -0.163 F 
ATOM     13  F   UNL     1      32.529 -14.335 -20.082  0.00  0.00    -0.163 F 
ATOM     14  C   UNL     1      32.801 -15.327 -20.967  0.00  0.00    +0.452 C 
ENDBRANCH  10  14
ENDBRANCH   1  10
TORSDOF 4
ENDMDL
MODEL 5
REMARK VINA RESULT:      -6.6      2.391      2.583
REMARK  Name = 5601
REMARK  4 active torsions:
REMARK  status: ('A' for Active; 'I' for Inactive)
REMARK    1  A    between atoms: C_1  and  C_3
REMARK    2  A    between atoms: C_1  and  C_10
REMARK    3  A    between atoms: C_3  and  C_5
REMARK    4  A    between atoms: C_10  and  C_14
REMARK                            x       y       z     vdW  Elec       q    Type
REMARK                         _______ _______ _______ _____ _____    ______ ____
ROOT
ATOM      1  C   UNL     1      35.454 -18.563 -22.694  0.00  0.00    +0.143 C 
ENDROOT
BRANCH   1   3
ATOM      2  O   UNL     1      33.899 -17.486 -21.230  0.00  0.00    -0.290 OA
ATOM      3  C   UNL     1      34.506 -18.522 -21.503  0.00  0.00    +0.187 C 
BRANCH   3   5
ATOM      4  S   UNL     1      35.722 -20.621 -20.293  0.00  0.00    -0.084 S 
ATOM      5  C   UNL     1      34.332 -19.759 -20.719  0.00  0.00    +0.065 C 
ATOM      6  C   UNL     1      33.174 -20.300 -20.290  0.00  0.00    +0.010 C 
ATOM      7  C   UNL     1      33.422 -21.500 -19.563  0.00  0.00    +0.008 C 
ATOM      8  C   UNL     1      34.766 -21.792 -19.489  0.00  0.00    +0.036 C 
ENDBRANCH   3   5
ENDBRANCH   1   3
BRANCH   1  10
ATOM      9  O   UNL     1      34.380 -19.103 -24.790  0.00  0.00    -0.287 OA
ATOM     10  C   UNL     1      34.854 -18.244 -24.049  0.00  0.00    +0.252 C 
BRANCH  10  14
ATOM     11  F   UNL     1      35.621 -16.040 -23.641  0.00  0.00    -0.163 F 
ATOM     12  F   UNL     1      33.566 -16.268 -24.329  0.00  0.00    -0.163 F 
ATOM     13  F   UNL     1      35.219 -16.594 -25.711  0.00  0.00    -0.163 F 
ATOM     14  C   UNL     1      34.815 -16.791 -24.432  0.00  0.00    +0.452 C 
ENDBRANCH  10  14
ENDBRANCH   1  10
TORSDOF 4
ENDMDL
MODEL 6
REMARK VINA RESULT:      -6.5      2.853      4.885
REMARK  Name = 5601
REMARK  4 active torsions:
REMARK  status: ('A' for Active; 'I' for Inactive)
REMARK    1  A    between atoms: C_1  and  C_3
REMARK    2  A    between atoms: C_1  and  C_10
REMARK    3  A    between atoms: C_3  and  C_5
REMARK    4  A    between atoms: C_10  and  C_14
REMARK                            x       y       z     vdW  Elec       q    Type
REMARK                         _______ _______ _______ _____ _____    ______ ____
ROOT
ATOM      1  C   UNL     1      35.959 -18.599 -21.419  0.00  0.00    +0.143 C 
ENDROOT
BRANCH   1   3
ATOM      2  O   UNL     1      35.160 -16.556 -20.467  0.00  0.00    -0.290 OA
ATOM      3  C   UNL     1      35.286 -17.234 -21.487  0.00  0.00    +0.187 C 
BRANCH   3   5
ATOM      4  S   UNL     1      33.999 -15.285 -22.862  0.00  0.00    -0.084 S 
ATOM      5  C   UNL     1      34.820 -16.762 -22.803  0.00  0.00    +0.065 C 
ATOM      6  C   UNL     1      34.972 -17.376 -23.994  0.00  0.00    +0.010 C 
ATOM      7  C   UNL     1      34.384 -16.600 -25.035  0.00  0.00    +0.008 C 
ATOM      8  C   UNL     1      33.819 -15.438 -24.558  0.00  0.00    +0.036 C 
ENDBRANCH   3   5
ENDBRANCH   1   3
BRANCH   1  10
ATOM      9  O   UNL     1      35.735 -20.375 -19.795  0.00  0.00    -0.287 OA
ATOM     10  C   UNL     1      35.214 -19.687 -20.670  0.00  0.00    +0.252 C 
BRANCH  10  14
ATOM     11  F   UNL     1      33.558 -19.858 -22.356  0.00  0.00    -0.163 F 
ATOM     12  F   UNL     1      32.996 -18.851 -20.507  0.00  0.00    -0.163 F 
ATOM     13  F   UNL     1      33.255 -21.015 -20.533  0.00  0.00    -0.163 F 
ATOM     14  C   UNL     1      33.760 -19.852 -21.015  0.00  0.00    +0.452 C 
ENDBRANCH  10  14
ENDBRANCH   1  10
TORSDOF 4
ENDMDL
MODEL 7
REMARK VINA RESULT:      -6.5      4.084      5.283
REMARK  Name = 5601
REMARK  4 active torsions:
REMARK  status: ('A' for Active; 'I' for Inactive)
REMARK    1  A    between atoms: C_1  and  C_3
REMARK    2  A    between atoms: C_1  and  C_10
REMARK    3  A    between atoms: C_3  and  C_5
REMARK    4  A    between atoms: C_10  and  C_14
REMARK                            x       y       z     vdW  Elec       q    Type
REMARK                         _______ _______ _______ _____ _____    ______ ____
ROOT
ATOM      1  C   UNL     1      34.899 -16.247 -24.184  0.00  0.00    +0.143 C 
ENDROOT
BRANCH   1   3
ATOM      2  O   UNL     1      33.193 -14.804 -25.038  0.00  0.00    -0.290 OA
ATOM      3  C   UNL     1      33.747 -15.261 -24.038  0.00  0.00    +0.187 C 
BRANCH   3   5
ATOM      4  S   UNL     1      32.582 -13.397 -22.451  0.00  0.00    -0.084 S 
ATOM      5  C   UNL     1      33.318 -14.903 -22.674  0.00  0.00    +0.065 C 
ATOM      6  C   UNL     1      33.444 -15.645 -21.554  0.00  0.00    +0.010 C 
ATOM      7  C   UNL     1      32.907 -14.951 -20.431  0.00  0.00    +0.008 C 
ATOM      8  C   UNL     1      32.406 -13.715 -20.778  0.00  0.00    +0.036 C 
ENDBRANCH   3   5
ENDBRANCH   1   3
BRANCH   1  10
ATOM      9  O   UNL     1      33.932 -17.887 -25.674  0.00  0.00    -0.287 OA
ATOM     10  C   UNL     1      34.537 -17.651 -24.630  0.00  0.00    +0.252 C 
BRANCH  10  14
ATOM     11  F   UNL     1      35.056 -19.952 -24.408  0.00  0.00    -0.163 F 
ATOM     12  F   UNL     1      34.197 -18.953 -22.673  0.00  0.00    -0.163 F 
ATOM     13  F   UNL     1      36.255 -18.539 -23.259  0.00  0.00    -0.163 F 
ATOM     14  C   UNL     1      35.010 -18.770 -23.745  0.00  0.00    +0.452 C 
ENDBRANCH  10  14
ENDBRANCH   1  10
TORSDOF 4
ENDMDL
MODEL 8
REMARK VINA RESULT:      -6.5      3.532      5.254
REMARK  Name = 5601
REMARK  4 active torsions:
REMARK  status: ('A' for Active; 'I' for Inactive)
REMARK    1  A    between atoms: C_1  and  C_3
REMARK    2  A    between atoms: C_1  and  C_10
REMARK    3  A    between atoms: C_3  and  C_5
REMARK    4  A    between atoms: C_10  and  C_14
REMARK                            x       y       z     vdW  Elec       q    Type
REMARK                         _______ _______ _______ _____ _____    ______ ____
ROOT
ATOM      1  C   UNL     1      34.409 -19.746 -21.376  0.00  0.00    +0.143 C 
ENDROOT
BRANCH   1   3
ATOM      2  O   UNL     1      36.408 -18.837 -20.428  0.00  0.00    -0.290 OA
ATOM      3  C   UNL     1      35.368 -18.609 -21.046  0.00  0.00    +0.187 C 
BRANCH   3   5
ATOM      4  S   UNL     1      35.015 -16.969 -23.175  0.00  0.00    -0.084 S 
ATOM      5  C   UNL     1      35.014 -17.255 -21.509  0.00  0.00    +0.065 C 
ATOM      6  C   UNL     1      34.682 -16.191 -20.750  0.00  0.00    +0.010 C 
ATOM      7  C   UNL     1      34.407 -15.058 -21.569  0.00  0.00    +0.008 C 
ATOM      8  C   UNL     1      34.551 -15.342 -22.910  0.00  0.00    +0.036 C 
ENDBRANCH   3   5
ENDBRANCH   1   3
BRANCH   1  10
ATOM      9  O   UNL     1      32.838 -20.520 -19.710  0.00  0.00    -0.287 OA
ATOM     10  C   UNL     1      33.956 -20.609 -20.214  0.00  0.00    +0.252 C 
BRANCH  10  14
ATOM     11  F   UNL     1      34.344 -22.838 -19.512  0.00  0.00    -0.163 F 
ATOM     12  F   UNL     1      35.529 -21.274 -18.563  0.00  0.00    -0.163 F 
ATOM     13  F   UNL     1      35.934 -21.847 -20.627  0.00  0.00    -0.163 F 
ATOM     14  C   UNL     1      34.938 -21.638 -19.730  0.00  0.00    +0.452 C 
ENDBRANCH  10  14
ENDBRANCH   1  10
TORSDOF 4
ENDMDL
MODEL 9
REMARK VINA RESULT:      -6.5      3.969      5.369
REMARK  Name = 5601
REMARK  4 active torsions:
REMARK  status: ('A' for Active; 'I' for Inactive)
REMARK    1  A    between atoms: C_1  and  C_3
REMARK    2  A    between atoms: C_1  and  C_10
REMARK    3  A    between atoms: C_3  and  C_5
REMARK    4  A    between atoms: C_10  and  C_14
REMARK                            x       y       z     vdW  Elec       q    Type
REMARK                         _______ _______ _______ _____ _____    ______ ____
ROOT
ATOM      1  C   UNL     1      35.181 -16.266 -23.824  0.00  0.00    +0.143 C 
ENDROOT
BRANCH   1   3
ATOM      2  O   UNL     1      35.078 -16.661 -21.467  0.00  0.00    -0.290 OA
ATOM      3  C   UNL     1      34.675 -15.987 -22.415  0.00  0.00    +0.187 C 
BRANCH   3   5
ATOM      4  S   UNL     1      33.335 -13.944 -23.590  0.00  0.00    -0.084 S 
ATOM      5  C   UNL     1      33.717 -14.881 -22.235  0.00  0.00    +0.065 C 
ATOM      6  C   UNL     1      33.094 -14.514 -21.097  0.00  0.00    +0.010 C 
ATOM      7  C   UNL     1      32.243 -13.395 -21.331  0.00  0.00    +0.008 C 
ATOM      8  C   UNL     1      32.279 -12.983 -22.645  0.00  0.00    +0.036 C 
ENDBRANCH   3   5
ENDBRANCH   1   3
BRANCH   1  10
ATOM      9  O   UNL     1      33.855 -17.334 -25.540  0.00  0.00    -0.287 OA
ATOM     10  C   UNL     1      34.565 -17.451 -24.543  0.00  0.00    +0.252 C 
BRANCH  10  14
ATOM     11  F   UNL     1      34.082 -19.178 -22.995  0.00  0.00    -0.163 F 
ATOM     12  F   UNL     1      36.176 -18.855 -23.506  0.00  0.00    -0.163 F 
ATOM     13  F   UNL     1      34.831 -19.770 -24.955  0.00  0.00    -0.163 F 
ATOM     14  C   UNL     1      34.913 -18.809 -24.001  0.00  0.00    +0.452 C 
ENDBRANCH  10  14
ENDBRANCH   1  10
TORSDOF 4
ENDMDL
