MODEL 1
REMARK VINA RESULT:      -5.8      0.000      0.000
REMARK  Name = 23327
REMARK  7 active torsions:
REMARK  status: ('A' for Active; 'I' for Inactive)
REMARK    1  A    between atoms: CA_1  and  N_2
REMARK    2  A    between atoms: CA_1  and  C_7
REMARK    3  A    between atoms: CA_1  and  CB_10
REMARK    4  A    between atoms: C_7  and  O_8
REMARK    5  A    between atoms: CB_10  and  CG_11
REMARK    6  A    between atoms: CG_11  and  CD_13
REMARK    7  A    between atoms: CD_13  and  OE1_14
REMARK                            x       y       z     vdW  Elec       q    Type
REMARK                         _______ _______ _______ _____ _____    ______ ____
ROOT
ATOM      1  CA  GLU A   1      38.639 -25.793 -14.559  0.00  0.00    +0.036 C 
ENDROOT
BRANCH   1   2
ATOM      2  N   GLU A   1      37.778 -24.878 -15.305  0.00  0.00    +0.389 N 
ATOM      3  H1  GLU A   1      38.353 -24.185 -15.785  0.00  0.00    -0.088 HD
ATOM      4  H2  GLU A   1      37.143 -24.407 -14.661  0.00  0.00    -0.088 HD
ATOM      5  H3  GLU A   1      37.237 -25.404 -15.991  0.00  0.00    -0.088 HD
ENDBRANCH   1   2
BRANCH   1   7
ATOM      6  OXT GLU A   1      40.819 -24.763 -14.176  0.00  0.00    -0.253 OA
ATOM      7  C   GLU A   1      40.083 -25.445 -14.876  0.00  0.00    +0.293 C 
BRANCH   7   8
ATOM      8  O   GLU A   1      40.487 -25.984 -16.057  0.00  0.00    -0.482 OA
ATOM      9  H   GLU A   1      40.720 -26.891 -16.103  0.00  0.00    +0.295 HD
ENDBRANCH   7   8
ENDBRANCH   1   7
BRANCH   1  10
ATOM     10  CB  GLU A   1      38.350 -25.758 -13.049  0.00  0.00    +0.001 C 
BRANCH  10  11
ATOM     11  CG  GLU A   1      37.194 -24.859 -12.603  0.00  0.00    +0.108 C 
BRANCH  11  13
ATOM     12  OE2 GLU A   1      38.510 -23.045 -11.701  0.00  0.00    -0.250 OA
ATOM     13  CD  GLU A   1      37.582 -23.832 -11.568  0.00  0.00    +0.314 C 
BRANCH  13  14
ATOM     14  OE1 GLU A   1      36.781 -23.862 -10.474  0.00  0.00    -0.480 OA
ATOM     15  HE1 GLU A   1      37.103 -24.212  -9.668  0.00  0.00    +0.295 HD
ENDBRANCH  13  14
ENDBRANCH  11  13
ENDBRANCH  10  11
ENDBRANCH   1  10
TORSDOF 7
ENDMDL
MODEL 2
REMARK VINA RESULT:      -5.8      2.795      4.075
REMARK  Name = 23327
REMARK  7 active torsions:
REMARK  status: ('A' for Active; 'I' for Inactive)
REMARK    1  A    between atoms: CA_1  and  N_2
REMARK    2  A    between atoms: CA_1  and  C_7
REMARK    3  A    between atoms: CA_1  and  CB_10
REMARK    4  A    between atoms: C_7  and  O_8
REMARK    5  A    between atoms: CB_10  and  CG_11
REMARK    6  A    between atoms: CG_11  and  CD_13
REMARK    7  A    between atoms: CD_13  and  OE1_14
REMARK                            x       y       z     vdW  Elec       q    Type
REMARK                         _______ _______ _______ _____ _____    ______ ____
ROOT
ATOM      1  CA  GLU A   1      37.309 -25.124 -14.410  0.00  0.00    +0.036 C 
ENDROOT
BRANCH   1   2
ATOM      2  N   GLU A   1      37.739 -24.113 -15.374  0.00  0.00    +0.389 N 
ATOM      3  H1  GLU A   1      37.829 -23.212 -14.904  0.00  0.00    -0.088 HD
ATOM      4  H2  GLU A   1      37.048 -24.040 -16.120  0.00  0.00    -0.088 HD
ATOM      5  H3  GLU A   1      38.640 -24.381 -15.769  0.00  0.00    -0.088 HD
ENDBRANCH   1   2
BRANCH   1   7
ATOM      6  OXT GLU A   1      37.526 -27.287 -15.520  0.00  0.00    -0.253 OA
ATOM      7  C   GLU A   1      36.830 -26.339 -15.184  0.00  0.00    +0.293 C 
BRANCH   7   8
ATOM      8  O   GLU A   1      35.504 -26.264 -15.478  0.00  0.00    -0.482 OA
ATOM      9  H   GLU A   1      34.940 -25.721 -14.962  0.00  0.00    +0.295 HD
ENDBRANCH   7   8
ENDBRANCH   1   7
BRANCH   1  10
ATOM     10  CB  GLU A   1      38.419 -25.475 -13.405  0.00  0.00    +0.001 C 
BRANCH  10  11
ATOM     11  CG  GLU A   1      39.837 -25.037 -13.785  0.00  0.00    +0.108 C 
BRANCH  11  13
ATOM     12  OE2 GLU A   1      41.325 -26.912 -14.109  0.00  0.00    -0.250 OA
ATOM     13  CD  GLU A   1      40.595 -26.058 -14.596  0.00  0.00    +0.314 C 
BRANCH  13  14
ATOM     14  OE1 GLU A   1      40.372 -25.940 -15.928  0.00  0.00    -0.480 OA
ATOM     15  HE1 GLU A   1      40.331 -25.092 -16.322  0.00  0.00    +0.295 HD
ENDBRANCH  13  14
ENDBRANCH  11  13
ENDBRANCH  10  11
ENDBRANCH   1  10
TORSDOF 7
ENDMDL
MODEL 3
REMARK VINA RESULT:      -5.7      1.078      4.339
REMARK  Name = 23327
REMARK  7 active torsions:
REMARK  status: ('A' for Active; 'I' for Inactive)
REMARK    1  A    between atoms: CA_1  and  N_2
REMARK    2  A    between atoms: CA_1  and  C_7
REMARK    3  A    between atoms: CA_1  and  CB_10
REMARK    4  A    between atoms: C_7  and  O_8
REMARK    5  A    between atoms: CB_10  and  CG_11
REMARK    6  A    between atoms: CG_11  and  CD_13
REMARK    7  A    between atoms: CD_13  and  OE1_14
REMARK                            x       y       z     vdW  Elec       q    Type
REMARK                         _______ _______ _______ _____ _____    ______ ____
ROOT
ATOM      1  CA  GLU A   1      37.202 -24.652 -12.873  0.00  0.00    +0.036 C 
ENDROOT
BRANCH   1   2
ATOM      2  N   GLU A   1      35.872 -25.162 -12.549  0.00  0.00    +0.389 N 
ATOM      3  H1  GLU A   1      35.306 -25.200 -13.398  0.00  0.00    -0.088 HD
ATOM      4  H2  GLU A   1      35.427 -24.545 -11.871  0.00  0.00    -0.088 HD
ATOM      5  H3  GLU A   1      35.954 -26.099 -12.154  0.00  0.00    -0.088 HD
ENDBRANCH   1   2
BRANCH   1   7
ATOM      6  OXT GLU A   1      38.669 -23.087 -11.707  0.00  0.00    -0.253 OA
ATOM      7  C   GLU A   1      37.681 -23.808 -11.704  0.00  0.00    +0.293 C 
BRANCH   7   8
ATOM      8  O   GLU A   1      36.875 -23.942 -10.618  0.00  0.00    -0.482 OA
ATOM      9  H   GLU A   1      37.141 -24.483  -9.900  0.00  0.00    +0.295 HD
ENDBRANCH   7   8
ENDBRANCH   1   7
BRANCH   1  10
ATOM     10  CB  GLU A   1      38.188 -25.781 -13.218  0.00  0.00    +0.001 C 
BRANCH  10  11
ATOM     11  CG  GLU A   1      38.622 -25.874 -14.684  0.00  0.00    +0.108 C 
BRANCH  11  13
ATOM     12  OE2 GLU A   1      40.727 -24.816 -14.148  0.00  0.00    -0.250 OA
ATOM     13  CD  GLU A   1      40.064 -25.498 -14.919  0.00  0.00    +0.314 C 
BRANCH  13  14
ATOM     14  OE1 GLU A   1      40.557 -26.009 -16.074  0.00  0.00    -0.480 OA
ATOM     15  HE1 GLU A   1      41.453 -26.274 -16.124  0.00  0.00    +0.295 HD
ENDBRANCH  13  14
ENDBRANCH  11  13
ENDBRANCH  10  11
ENDBRANCH   1  10
TORSDOF 7
ENDMDL
MODEL 4
REMARK VINA RESULT:      -5.7      2.375      4.609
REMARK  Name = 23327
REMARK  7 active torsions:
REMARK  status: ('A' for Active; 'I' for Inactive)
REMARK    1  A    between atoms: CA_1  and  N_2
REMARK    2  A    between atoms: CA_1  and  C_7
REMARK    3  A    between atoms: CA_1  and  CB_10
REMARK    4  A    between atoms: C_7  and  O_8
REMARK    5  A    between atoms: CB_10  and  CG_11
REMARK    6  A    between atoms: CG_11  and  CD_13
REMARK    7  A    between atoms: CD_13  and  OE1_14
REMARK                            x       y       z     vdW  Elec       q    Type
REMARK                         _______ _______ _______ _____ _____    ______ ____
ROOT
ATOM      1  CA  GLU A   1      36.670 -23.509 -12.087  0.00  0.00    +0.036 C 
ENDROOT
BRANCH   1   2
ATOM      2  N   GLU A   1      35.812 -23.228 -13.237  0.00  0.00    +0.389 N 
ATOM      3  H1  GLU A   1      36.125 -23.779 -14.037  0.00  0.00    -0.088 HD
ATOM      4  H2  GLU A   1      35.865 -22.236 -13.466  0.00  0.00    -0.088 HD
ATOM      5  H3  GLU A   1      34.849 -23.475 -13.010  0.00  0.00    -0.088 HD
ENDBRANCH   1   2
BRANCH   1   7
ATOM      6  OXT GLU A   1      36.049 -24.283  -9.857  0.00  0.00    -0.253 OA
ATOM      7  C   GLU A   1      35.850 -24.275 -11.064  0.00  0.00    +0.293 C 
BRANCH   7   8
ATOM      8  O   GLU A   1      34.840 -24.976 -11.644  0.00  0.00    -0.482 OA
ATOM      9  H   GLU A   1      34.538 -24.741 -12.500  0.00  0.00    +0.295 HD
ENDBRANCH   7   8
ENDBRANCH   1   7
BRANCH   1  10
ATOM     10  CB  GLU A   1      37.949 -24.261 -12.488  0.00  0.00    +0.001 C 
BRANCH  10  11
ATOM     11  CG  GLU A   1      37.864 -25.790 -12.482  0.00  0.00    +0.108 C 
BRANCH  11  13
ATOM     12  OE2 GLU A   1      38.274 -26.997 -14.534  0.00  0.00    -0.250 OA
ATOM     13  CD  GLU A   1      37.492 -26.387 -13.817  0.00  0.00    +0.314 C 
BRANCH  13  14
ATOM     14  OE1 GLU A   1      36.188 -26.188 -14.134  0.00  0.00    -0.480 OA
ATOM     15  HE1 GLU A   1      35.515 -26.560 -13.600  0.00  0.00    +0.295 HD
ENDBRANCH  13  14
ENDBRANCH  11  13
ENDBRANCH  10  11
ENDBRANCH   1  10
TORSDOF 7
ENDMDL
MODEL 5
REMARK VINA RESULT:      -5.5      2.381      4.284
REMARK  Name = 23327
REMARK  7 active torsions:
REMARK  status: ('A' for Active; 'I' for Inactive)
REMARK    1  A    between atoms: CA_1  and  N_2
REMARK    2  A    between atoms: CA_1  and  C_7
REMARK    3  A    between atoms: CA_1  and  CB_10
REMARK    4  A    between atoms: C_7  and  O_8
REMARK    5  A    between atoms: CB_10  and  CG_11
REMARK    6  A    between atoms: CG_11  and  CD_13
REMARK    7  A    between atoms: CD_13  and  OE1_14
REMARK                            x       y       z     vdW  Elec       q    Type
REMARK                         _______ _______ _______ _____ _____    ______ ____
ROOT
ATOM      1  CA  GLU A   1      36.180 -23.632 -12.885  0.00  0.00    +0.036 C 
ENDROOT
BRANCH   1   2
ATOM      2  N   GLU A   1      35.059 -24.512 -12.563  0.00  0.00    +0.389 N 
ATOM      3  H1  GLU A   1      34.347 -23.984 -12.056  0.00  0.00    -0.088 HD
ATOM      4  H2  GLU A   1      35.388 -25.283 -11.983  0.00  0.00    -0.088 HD
ATOM      5  H3  GLU A   1      34.659 -24.881 -13.425  0.00  0.00    -0.088 HD
ENDBRANCH   1   2
BRANCH   1   7
ATOM      6  OXT GLU A   1      37.667 -24.599 -11.207  0.00  0.00    -0.253 OA
ATOM      7  C   GLU A   1      37.124 -23.617 -11.695  0.00  0.00    +0.293 C 
BRANCH   7   8
ATOM      8  O   GLU A   1      37.311 -22.360 -11.210  0.00  0.00    -0.482 OA
ATOM      9  H   GLU A   1      37.659 -22.238 -10.349  0.00  0.00    +0.295 HD
ENDBRANCH   7   8
ENDBRANCH   1   7
BRANCH   1  10
ATOM     10  CB  GLU A   1      36.889 -24.048 -14.185  0.00  0.00    +0.001 C 
BRANCH  10  11
ATOM     11  CG  GLU A   1      36.511 -25.420 -14.750  0.00  0.00    +0.108 C 
BRANCH  11  13
ATOM     12  OE2 GLU A   1      38.265 -27.081 -14.742  0.00  0.00    -0.250 OA
ATOM     13  CD  GLU A   1      37.313 -26.560 -14.175  0.00  0.00    +0.314 C 
BRANCH  13  14
ATOM     14  OE1 GLU A   1      36.875 -26.943 -12.950  0.00  0.00    -0.480 OA
ATOM     15  HE1 GLU A   1      36.148 -27.527 -12.873  0.00  0.00    +0.295 HD
ENDBRANCH  13  14
ENDBRANCH  11  13
ENDBRANCH  10  11
ENDBRANCH   1  10
TORSDOF 7
ENDMDL
MODEL 6
REMARK VINA RESULT:      -5.4      2.220      2.601
REMARK  Name = 23327
REMARK  7 active torsions:
REMARK  status: ('A' for Active; 'I' for Inactive)
REMARK    1  A    between atoms: CA_1  and  N_2
REMARK    2  A    between atoms: CA_1  and  C_7
REMARK    3  A    between atoms: CA_1  and  CB_10
REMARK    4  A    between atoms: C_7  and  O_8
REMARK    5  A    between atoms: CB_10  and  CG_11
REMARK    6  A    between atoms: CG_11  and  CD_13
REMARK    7  A    between atoms: CD_13  and  OE1_14
REMARK                            x       y       z     vdW  Elec       q    Type
REMARK                         _______ _______ _______ _____ _____    ______ ____
ROOT
ATOM      1  CA  GLU A   1      36.687 -25.785 -13.925  0.00  0.00    +0.036 C 
ENDROOT
BRANCH   1   2
ATOM      2  N   GLU A   1      35.463 -25.550 -14.689  0.00  0.00    +0.389 N 
ATOM      3  H1  GLU A   1      35.239 -26.383 -15.236  0.00  0.00    -0.088 HD
ATOM      4  H2  GLU A   1      35.600 -24.758 -15.316  0.00  0.00    -0.088 HD
ATOM      5  H3  GLU A   1      34.696 -25.349 -14.048  0.00  0.00    -0.088 HD
ENDBRANCH   1   2
BRANCH   1   7
ATOM      6  OXT GLU A   1      38.862 -26.680 -14.579  0.00  0.00    -0.253 OA
ATOM      7  C   GLU A   1      37.680 -26.491 -14.832  0.00  0.00    +0.293 C 
BRANCH   7   8
ATOM      8  O   GLU A   1      37.104 -26.904 -15.992  0.00  0.00    -0.482 OA
ATOM      9  H   GLU A   1      36.172 -26.998 -16.045  0.00  0.00    +0.295 HD
ENDBRANCH   7   8
ENDBRANCH   1   7
BRANCH   1  10
ATOM     10  CB  GLU A   1      37.260 -24.485 -13.336  0.00  0.00    +0.001 C 
BRANCH  10  11
ATOM     11  CG  GLU A   1      37.094 -24.299 -11.825  0.00  0.00    +0.108 C 
BRANCH  11  13
ATOM     12  OE2 GLU A   1      35.298 -25.049 -10.394  0.00  0.00    -0.250 OA
ATOM     13  CD  GLU A   1      35.664 -24.379 -11.352  0.00  0.00    +0.314 C 
BRANCH  13  14
ATOM     14  OE1 GLU A   1      34.823 -23.616 -12.092  0.00  0.00    -0.480 OA
ATOM     15  HE1 GLU A   1      34.224 -24.021 -12.687  0.00  0.00    +0.295 HD
ENDBRANCH  13  14
ENDBRANCH  11  13
ENDBRANCH  10  11
ENDBRANCH   1  10
TORSDOF 7
ENDMDL
MODEL 7
REMARK VINA RESULT:      -5.3      2.627      4.061
REMARK  Name = 23327
REMARK  7 active torsions:
REMARK  status: ('A' for Active; 'I' for Inactive)
REMARK    1  A    between atoms: CA_1  and  N_2
REMARK    2  A    between atoms: CA_1  and  C_7
REMARK    3  A    between atoms: CA_1  and  CB_10
REMARK    4  A    between atoms: C_7  and  O_8
REMARK    5  A    between atoms: CB_10  and  CG_11
REMARK    6  A    between atoms: CG_11  and  CD_13
REMARK    7  A    between atoms: CD_13  and  OE1_14
REMARK                            x       y       z     vdW  Elec       q    Type
REMARK                         _______ _______ _______ _____ _____    ______ ____
ROOT
ATOM      1  CA  GLU A   1      36.652 -25.579 -13.613  0.00  0.00    +0.036 C 
ENDROOT
BRANCH   1   2
ATOM      2  N   GLU A   1      35.560 -25.059 -12.793  0.00  0.00    +0.389 N 
ATOM      3  H1  GLU A   1      34.667 -25.366 -13.181  0.00  0.00    -0.088 HD
ATOM      4  H2  GLU A   1      35.596 -24.041 -12.785  0.00  0.00    -0.088 HD
ATOM      5  H3  GLU A   1      35.654 -25.410 -11.840  0.00  0.00    -0.088 HD
ENDBRANCH   1   2
BRANCH   1   7
ATOM      6  OXT GLU A   1      35.765 -24.587 -15.660  0.00  0.00    -0.253 OA
ATOM      7  C   GLU A   1      36.200 -25.563 -15.063  0.00  0.00    +0.293 C 
BRANCH   7   8
ATOM      8  O   GLU A   1      36.332 -26.782 -15.650  0.00  0.00    -0.482 OA
ATOM      9  H   GLU A   1      37.146 -27.025 -16.048  0.00  0.00    +0.295 HD
ENDBRANCH   7   8
ENDBRANCH   1   7
BRANCH   1  10
ATOM     10  CB  GLU A   1      37.959 -24.798 -13.401  0.00  0.00    +0.001 C 
BRANCH  10  11
ATOM     11  CG  GLU A   1      39.256 -25.572 -13.649  0.00  0.00    +0.108 C 
BRANCH  11  13
ATOM     12  OE2 GLU A   1      40.713 -26.039 -15.520  0.00  0.00    -0.250 OA
ATOM     13  CD  GLU A   1      39.875 -25.311 -15.000  0.00  0.00    +0.314 C 
BRANCH  13  14
ATOM     14  OE1 GLU A   1      39.394 -24.189 -15.590  0.00  0.00    -0.480 OA
ATOM     15  HE1 GLU A   1      39.757 -23.354 -15.373  0.00  0.00    +0.295 HD
ENDBRANCH  13  14
ENDBRANCH  11  13
ENDBRANCH  10  11
ENDBRANCH   1  10
TORSDOF 7
ENDMDL
MODEL 8
REMARK VINA RESULT:      -5.3      8.331      9.514
REMARK  Name = 23327
REMARK  7 active torsions:
REMARK  status: ('A' for Active; 'I' for Inactive)
REMARK    1  A    between atoms: CA_1  and  N_2
REMARK    2  A    between atoms: CA_1  and  C_7
REMARK    3  A    between atoms: CA_1  and  CB_10
REMARK    4  A    between atoms: C_7  and  O_8
REMARK    5  A    between atoms: CB_10  and  CG_11
REMARK    6  A    between atoms: CG_11  and  CD_13
REMARK    7  A    between atoms: CD_13  and  OE1_14
REMARK                            x       y       z     vdW  Elec       q    Type
REMARK                         _______ _______ _______ _____ _____    ______ ____
ROOT
ATOM      1  CA  GLU A   1      29.454 -23.874 -16.039  0.00  0.00    +0.036 C 
ENDROOT
BRANCH   1   2
ATOM      2  N   GLU A   1      28.847 -24.801 -15.086  0.00  0.00    +0.389 N 
ATOM      3  H1  GLU A   1      29.537 -25.066 -14.383  0.00  0.00    -0.088 HD
ATOM      4  H2  GLU A   1      28.525 -25.633 -15.579  0.00  0.00    -0.088 HD
ATOM      5  H3  GLU A   1      28.055 -24.348 -14.630  0.00  0.00    -0.088 HD
ENDBRANCH   1   2
BRANCH   1   7
ATOM      6  OXT GLU A   1      27.633 -23.937 -17.664  0.00  0.00    -0.253 OA
ATOM      7  C   GLU A   1      28.348 -23.297 -16.905  0.00  0.00    +0.293 C 
BRANCH   7   8
ATOM      8  O   GLU A   1      28.230 -21.951 -16.747  0.00  0.00    -0.482 OA
ATOM      9  H   GLU A   1      27.417 -21.583 -16.461  0.00  0.00    +0.295 HD
ENDBRANCH   7   8
ENDBRANCH   1   7
BRANCH   1  10
ATOM     10  CB  GLU A   1      30.277 -22.780 -15.339  0.00  0.00    +0.001 C 
BRANCH  10  11
ATOM     11  CG  GLU A   1      31.711 -23.154 -14.957  0.00  0.00    +0.108 C 
BRANCH  11  13
ATOM     12  OE2 GLU A   1      31.484 -24.873 -13.276  0.00  0.00    -0.250 OA
ATOM     13  CD  GLU A   1      31.843 -23.741 -13.574  0.00  0.00    +0.314 C 
BRANCH  13  14
ATOM     14  OE1 GLU A   1      32.416 -22.885 -12.693  0.00  0.00    -0.480 OA
ATOM     15  HE1 GLU A   1      33.254 -23.084 -12.325  0.00  0.00    +0.295 HD
ENDBRANCH  13  14
ENDBRANCH  11  13
ENDBRANCH  10  11
ENDBRANCH   1  10
TORSDOF 7
ENDMDL
MODEL 9
REMARK VINA RESULT:      -5.2     13.338     14.046
REMARK  Name = 23327
REMARK  7 active torsions:
REMARK  status: ('A' for Active; 'I' for Inactive)
REMARK    1  A    between atoms: CA_1  and  N_2
REMARK    2  A    between atoms: CA_1  and  C_7
REMARK    3  A    between atoms: CA_1  and  CB_10
REMARK    4  A    between atoms: C_7  and  O_8
REMARK    5  A    between atoms: CB_10  and  CG_11
REMARK    6  A    between atoms: CG_11  and  CD_13
REMARK    7  A    between atoms: CD_13  and  OE1_14
REMARK                            x       y       z     vdW  Elec       q    Type
REMARK                         _______ _______ _______ _____ _____    ______ ____
ROOT
ATOM      1  CA  GLU A   1      34.917 -17.088 -22.556  0.00  0.00    +0.036 C 
ENDROOT
BRANCH   1   2
ATOM      2  N   GLU A   1      35.974 -17.924 -23.123  0.00  0.00    +0.389 N 
ATOM      3  H1  GLU A   1      36.680 -17.330 -23.558  0.00  0.00    -0.088 HD
ATOM      4  H2  GLU A   1      35.575 -18.547 -23.824  0.00  0.00    -0.088 HD
ATOM      5  H3  GLU A   1      36.405 -18.476 -22.382  0.00  0.00    -0.088 HD
ENDBRANCH   1   2
BRANCH   1   7
ATOM      6  OXT GLU A   1      34.929 -16.002 -20.370  0.00  0.00    -0.253 OA
ATOM      7  C   GLU A   1      35.148 -16.989 -21.058  0.00  0.00    +0.293 C 
BRANCH   7   8
ATOM      8  O   GLU A   1      35.642 -18.147 -20.542  0.00  0.00    -0.482 OA
ATOM      9  H   GLU A   1      35.861 -18.198 -19.633  0.00  0.00    +0.295 HD
ENDBRANCH   7   8
ENDBRANCH   1   7
BRANCH   1  10
ATOM     10  CB  GLU A   1      34.849 -15.706 -23.227  0.00  0.00    +0.001 C 
BRANCH  10  11
ATOM     11  CG  GLU A   1      33.718 -15.503 -24.239  0.00  0.00    +0.108 C 
BRANCH  11  13
ATOM     12  OE2 GLU A   1      34.759 -16.987 -25.835  0.00  0.00    -0.250 OA
ATOM     13  CD  GLU A   1      34.031 -16.027 -25.619  0.00  0.00    +0.314 C 
BRANCH  13  14
ATOM     14  OE1 GLU A   1      33.405 -15.330 -26.599  0.00  0.00    -0.480 OA
ATOM     15  HE1 GLU A   1      32.473 -15.365 -26.677  0.00  0.00    +0.295 HD
ENDBRANCH  13  14
ENDBRANCH  11  13
ENDBRANCH  10  11
ENDBRANCH   1  10
TORSDOF 7
ENDMDL
