MODEL 1
REMARK VINA RESULT:      -5.3      0.000      0.000
REMARK  Name = 763
REMARK  4 active torsions:
REMARK  status: ('A' for Active; 'I' for Inactive)
REMARK    1  A    between atoms: N_1  and  C_4
REMARK    2  A    between atoms: N_1  and  C_9
REMARK    3  A    between atoms: C_9  and  C_11
REMARK    4  A    between atoms: C_11  and  O_12
REMARK                            x       y       z     vdW  Elec       q    Type
REMARK                         _______ _______ _______ _____ _____    ______ ____
ROOT
ATOM      1  N   UNL     1      37.180 -24.884 -15.322  0.00  0.00    -0.370 N 
ATOM      2  N   UNL     1      36.185 -26.927 -15.153  0.00  0.00    -0.370 N 
ATOM      3  C   UNL     1      37.222 -26.125 -14.733  0.00  0.00    +0.189 C 
ATOM      4  H   UNL     1      37.866 -24.212 -15.106  0.00  0.00    +0.159 HD
ATOM      5  H   UNL     1      36.462 -24.666 -15.961  0.00  0.00    +0.159 HD
ATOM      6  H   UNL     1      36.100 -27.845 -14.805  0.00  0.00    +0.159 HD
ATOM      7  H   UNL     1      35.530 -26.584 -15.802  0.00  0.00    +0.159 HD
ENDROOT
BRANCH   3   8
ATOM      8  N   UNL     1      38.164 -26.424 -13.887  0.00  0.00    -0.228 NA
BRANCH   8   9
ATOM      9  C   UNL     1      39.296 -25.509 -13.809  0.00  0.00    +0.237 C 
BRANCH   9  11
ATOM     10  O   UNL     1      41.324 -26.817 -14.126  0.00  0.00    -0.248 OA
ATOM     11  C   UNL     1      40.434 -26.113 -14.580  0.00  0.00    +0.339 C 
BRANCH  11  12
ATOM     12  O   UNL     1      40.342 -25.766 -15.890  0.00  0.00    -0.479 OA
ATOM     13  H   UNL     1      40.967 -26.092 -16.507  0.00  0.00    +0.295 HD
ENDBRANCH  11  12
ENDBRANCH   9  11
ENDBRANCH   8   9
ENDBRANCH   3   8
TORSDOF 4
ENDMDL
MODEL 2
REMARK VINA RESULT:      -5.3      1.275      1.514
REMARK  Name = 763
REMARK  4 active torsions:
REMARK  status: ('A' for Active; 'I' for Inactive)
REMARK    1  A    between atoms: N_1  and  C_4
REMARK    2  A    between atoms: N_1  and  C_9
REMARK    3  A    between atoms: C_9  and  C_11
REMARK    4  A    between atoms: C_11  and  O_12
REMARK                            x       y       z     vdW  Elec       q    Type
REMARK                         _______ _______ _______ _____ _____    ______ ____
ROOT
ATOM      1  N   UNL     1      36.245 -27.002 -15.255  0.00  0.00    -0.370 N 
ATOM      2  N   UNL     1      36.681 -26.263 -13.144  0.00  0.00    -0.370 N 
ATOM      3  C   UNL     1      37.218 -26.646 -14.352  0.00  0.00    +0.189 C 
ATOM      4  H   UNL     1      36.497 -27.296 -16.161  0.00  0.00    +0.159 HD
ATOM      5  H   UNL     1      35.295 -26.962 -14.997  0.00  0.00    +0.159 HD
ATOM      6  H   UNL     1      37.273 -25.983 -12.409  0.00  0.00    +0.159 HD
ATOM      7  H   UNL     1      35.705 -26.270 -13.016  0.00  0.00    +0.159 HD
ENDROOT
BRANCH   3   8
ATOM      8  N   UNL     1      38.475 -26.694 -14.683  0.00  0.00    -0.228 NA
BRANCH   8   9
ATOM      9  C   UNL     1      39.393 -25.863 -13.913  0.00  0.00    +0.237 C 
BRANCH   9  11
ATOM     10  O   UNL     1      41.206 -24.401 -14.620  0.00  0.00    -0.248 OA
ATOM     11  C   UNL     1      40.413 -25.299 -14.861  0.00  0.00    +0.339 C 
BRANCH  11  12
ATOM     12  O   UNL     1      40.338 -25.940 -16.056  0.00  0.00    -0.479 OA
ATOM     13  H   UNL     1      40.906 -26.663 -16.237  0.00  0.00    +0.295 HD
ENDBRANCH  11  12
ENDBRANCH   9  11
ENDBRANCH   8   9
ENDBRANCH   3   8
TORSDOF 4
ENDMDL
MODEL 3
REMARK VINA RESULT:      -5.0      1.848      2.147
REMARK  Name = 763
REMARK  4 active torsions:
REMARK  status: ('A' for Active; 'I' for Inactive)
REMARK    1  A    between atoms: N_1  and  C_4
REMARK    2  A    between atoms: N_1  and  C_9
REMARK    3  A    between atoms: C_9  and  C_11
REMARK    4  A    between atoms: C_11  and  O_12
REMARK                            x       y       z     vdW  Elec       q    Type
REMARK                         _______ _______ _______ _____ _____    ______ ____
ROOT
ATOM      1  N   UNL     1      38.128 -24.259 -11.680  0.00  0.00    -0.370 N 
ATOM      2  N   UNL     1      36.417 -25.498 -12.535  0.00  0.00    -0.370 N 
ATOM      3  C   UNL     1      37.780 -25.312 -12.491  0.00  0.00    +0.189 C 
ATOM      4  H   UNL     1      39.075 -24.020 -11.561  0.00  0.00    +0.159 HD
ATOM      5  H   UNL     1      37.428 -23.743 -11.216  0.00  0.00    +0.159 HD
ATOM      6  H   UNL     1      36.035 -26.222 -13.082  0.00  0.00    +0.159 HD
ATOM      7  H   UNL     1      35.823 -24.905 -12.020  0.00  0.00    +0.159 HD
ENDROOT
BRANCH   3   8
ATOM      8  N   UNL     1      38.695 -26.002 -13.108  0.00  0.00    -0.228 NA
BRANCH   8   9
ATOM      9  C   UNL     1      38.781 -25.842 -14.554  0.00  0.00    +0.237 C 
BRANCH   9  11
ATOM     10  O   UNL     1      40.911 -24.710 -14.228  0.00  0.00    -0.248 OA
ATOM     11  C   UNL     1      40.187 -25.437 -14.892  0.00  0.00    +0.339 C 
BRANCH  11  12
ATOM     12  O   UNL     1      40.562 -26.003 -16.068  0.00  0.00    -0.479 OA
ATOM     13  H   UNL     1      40.934 -26.863 -16.077  0.00  0.00    +0.295 HD
ENDBRANCH  11  12
ENDBRANCH   9  11
ENDBRANCH   8   9
ENDBRANCH   3   8
TORSDOF 4
ENDMDL
MODEL 4
REMARK VINA RESULT:      -4.8      4.288      4.757
REMARK  Name = 763
REMARK  4 active torsions:
REMARK  status: ('A' for Active; 'I' for Inactive)
REMARK    1  A    between atoms: N_1  and  C_4
REMARK    2  A    between atoms: N_1  and  C_9
REMARK    3  A    between atoms: C_9  and  C_11
REMARK    4  A    between atoms: C_11  and  O_12
REMARK                            x       y       z     vdW  Elec       q    Type
REMARK                         _______ _______ _______ _____ _____    ______ ____
ROOT
ATOM      1  N   UNL     1      36.880 -26.612 -13.408  0.00  0.00    -0.370 N 
ATOM      2  N   UNL     1      39.074 -26.112 -13.768  0.00  0.00    -0.370 N 
ATOM      3  C   UNL     1      37.978 -25.918 -12.958  0.00  0.00    +0.189 C 
ATOM      4  H   UNL     1      36.029 -26.559 -12.917  0.00  0.00    +0.159 HD
ATOM      5  H   UNL     1      36.945 -27.163 -14.222  0.00  0.00    +0.159 HD
ATOM      6  H   UNL     1      39.928 -25.669 -13.556  0.00  0.00    +0.159 HD
ATOM      7  H   UNL     1      39.004 -26.692 -14.559  0.00  0.00    +0.159 HD
ENDROOT
BRANCH   3   8
ATOM      8  N   UNL     1      37.904 -25.188 -11.884  0.00  0.00    -0.228 NA
BRANCH   8   9
ATOM      9  C   UNL     1      36.945 -24.090 -11.896  0.00  0.00    +0.237 C 
BRANCH   9  11
ATOM     10  O   UNL     1      35.856 -24.256  -9.725  0.00  0.00    -0.248 OA
ATOM     11  C   UNL     1      35.842 -24.429 -10.935  0.00  0.00    +0.339 C 
BRANCH  11  12
ATOM     12  O   UNL     1      34.792 -24.968 -11.607  0.00  0.00    -0.479 OA
ATOM     13  H   UNL     1      34.673 -25.897 -11.625  0.00  0.00    +0.295 HD
ENDBRANCH  11  12
ENDBRANCH   9  11
ENDBRANCH   8   9
ENDBRANCH   3   8
TORSDOF 4
ENDMDL
MODEL 5
REMARK VINA RESULT:      -4.7      1.941      2.163
REMARK  Name = 763
REMARK  4 active torsions:
REMARK  status: ('A' for Active; 'I' for Inactive)
REMARK    1  A    between atoms: N_1  and  C_4
REMARK    2  A    between atoms: N_1  and  C_9
REMARK    3  A    between atoms: C_9  and  C_11
REMARK    4  A    between atoms: C_11  and  O_12
REMARK                            x       y       z     vdW  Elec       q    Type
REMARK                         _______ _______ _______ _____ _____    ______ ____
ROOT
ATOM      1  N   UNL     1      37.629 -23.058 -16.117  0.00  0.00    -0.370 N 
ATOM      2  N   UNL     1      36.046 -23.148 -14.479  0.00  0.00    -0.370 N 
ATOM      3  C   UNL     1      37.331 -23.484 -14.845  0.00  0.00    +0.189 C 
ATOM      4  H   UNL     1      38.518 -23.235 -16.500  0.00  0.00    +0.159 HD
ATOM      5  H   UNL     1      36.953 -22.575 -16.646  0.00  0.00    +0.159 HD
ATOM      6  H   UNL     1      35.707 -23.396 -13.589  0.00  0.00    +0.159 HD
ATOM      7  H   UNL     1      35.468 -22.660 -15.109  0.00  0.00    +0.159 HD
ENDROOT
BRANCH   3   8
ATOM      8  N   UNL     1      38.216 -24.122 -14.137  0.00  0.00    -0.228 NA
BRANCH   8   9
ATOM      9  C   UNL     1      38.654 -25.419 -14.639  0.00  0.00    +0.237 C 
BRANCH   9  11
ATOM     10  O   UNL     1      40.968 -24.810 -14.195  0.00  0.00    -0.248 OA
ATOM     11  C   UNL     1      40.129 -25.336 -14.911  0.00  0.00    +0.339 C 
BRANCH  11  12
ATOM     12  O   UNL     1      40.416 -25.942 -16.091  0.00  0.00    -0.479 OA
ATOM     13  H   UNL     1      40.044 -25.619 -16.887  0.00  0.00    +0.295 HD
ENDBRANCH  11  12
ENDBRANCH   9  11
ENDBRANCH   8   9
ENDBRANCH   3   8
TORSDOF 4
ENDMDL
MODEL 6
REMARK VINA RESULT:      -4.6      3.097      3.775
REMARK  Name = 763
REMARK  4 active torsions:
REMARK  status: ('A' for Active; 'I' for Inactive)
REMARK    1  A    between atoms: N_1  and  C_4
REMARK    2  A    between atoms: N_1  and  C_9
REMARK    3  A    between atoms: C_9  and  C_11
REMARK    4  A    between atoms: C_11  and  O_12
REMARK                            x       y       z     vdW  Elec       q    Type
REMARK                         _______ _______ _______ _____ _____    ______ ____
ROOT
ATOM      1  N   UNL     1      38.162 -26.744 -14.252  0.00  0.00    -0.370 N 
ATOM      2  N   UNL     1      40.371 -26.235 -14.022  0.00  0.00    -0.370 N 
ATOM      3  C   UNL     1      39.095 -25.739 -14.165  0.00  0.00    +0.189 C 
ATOM      4  H   UNL     1      37.208 -26.523 -14.356  0.00  0.00    +0.159 HD
ATOM      5  H   UNL     1      38.447 -27.686 -14.210  0.00  0.00    +0.159 HD
ATOM      6  H   UNL     1      41.134 -25.618 -13.948  0.00  0.00    +0.159 HD
ATOM      7  H   UNL     1      40.520 -27.208 -13.995  0.00  0.00    +0.159 HD
ENDROOT
BRANCH   3   8
ATOM      8  N   UNL     1      38.730 -24.491 -14.218  0.00  0.00    -0.228 NA
BRANCH   8   9
ATOM      9  C   UNL     1      37.572 -24.107 -13.420  0.00  0.00    +0.237 C 
BRANCH   9  11
ATOM     10  O   UNL     1      38.846 -23.016 -11.656  0.00  0.00    -0.248 OA
ATOM     11  C   UNL     1      38.040 -23.862 -12.014  0.00  0.00    +0.339 C 
BRANCH  11  12
ATOM     12  O   UNL     1      37.429 -24.728 -11.165  0.00  0.00    -0.479 OA
ATOM     13  H   UNL     1      37.347 -25.632 -11.397  0.00  0.00    +0.295 HD
ENDBRANCH  11  12
ENDBRANCH   9  11
ENDBRANCH   8   9
ENDBRANCH   3   8
TORSDOF 4
ENDMDL
MODEL 7
REMARK VINA RESULT:      -4.6      2.684      3.438
REMARK  Name = 763
REMARK  4 active torsions:
REMARK  status: ('A' for Active; 'I' for Inactive)
REMARK    1  A    between atoms: N_1  and  C_4
REMARK    2  A    between atoms: N_1  and  C_9
REMARK    3  A    between atoms: C_9  and  C_11
REMARK    4  A    between atoms: C_11  and  O_12
REMARK                            x       y       z     vdW  Elec       q    Type
REMARK                         _______ _______ _______ _____ _____    ______ ____
ROOT
ATOM      1  N   UNL     1      39.445 -24.773 -15.474  0.00  0.00    -0.370 N 
ATOM      2  N   UNL     1      40.436 -26.386 -14.206  0.00  0.00    -0.370 N 
ATOM      3  C   UNL     1      39.300 -25.637 -14.415  0.00  0.00    +0.189 C 
ATOM      4  H   UNL     1      38.703 -24.179 -15.730  0.00  0.00    +0.159 HD
ATOM      5  H   UNL     1      40.292 -24.747 -15.977  0.00  0.00    +0.159 HD
ATOM      6  H   UNL     1      40.464 -27.046 -13.476  0.00  0.00    +0.159 HD
ATOM      7  H   UNL     1      41.222 -26.260 -14.786  0.00  0.00    +0.159 HD
ENDROOT
BRANCH   3   8
ATOM      8  N   UNL     1      38.187 -25.680 -13.745  0.00  0.00    -0.228 NA
BRANCH   8   9
ATOM      9  C   UNL     1      37.297 -26.804 -14.011  0.00  0.00    +0.237 C 
BRANCH   9  11
ATOM     10  O   UNL     1      36.702 -27.421 -16.289  0.00  0.00    -0.248 OA
ATOM     11  C   UNL     1      36.701 -26.609 -15.376  0.00  0.00    +0.339 C 
BRANCH  11  12
ATOM     12  O   UNL     1      36.141 -25.375 -15.464  0.00  0.00    -0.479 OA
ATOM     13  H   UNL     1      36.647 -24.614 -15.256  0.00  0.00    +0.295 HD
ENDBRANCH  11  12
ENDBRANCH   9  11
ENDBRANCH   8   9
ENDBRANCH   3   8
TORSDOF 4
ENDMDL
MODEL 8
REMARK VINA RESULT:      -4.5     11.783     12.884
REMARK  Name = 763
REMARK  4 active torsions:
REMARK  status: ('A' for Active; 'I' for Inactive)
REMARK    1  A    between atoms: N_1  and  C_4
REMARK    2  A    between atoms: N_1  and  C_9
REMARK    3  A    between atoms: C_9  and  C_11
REMARK    4  A    between atoms: C_11  and  O_12
REMARK                            x       y       z     vdW  Elec       q    Type
REMARK                         _______ _______ _______ _____ _____    ______ ____
ROOT
ATOM      1  N   UNL     1      28.383 -24.200 -16.658  0.00  0.00    -0.370 N 
ATOM      2  N   UNL     1      29.667 -22.717 -15.499  0.00  0.00    -0.370 N 
ATOM      3  C   UNL     1      28.682 -22.876 -16.447  0.00  0.00    +0.189 C 
ATOM      4  H   UNL     1      27.693 -24.452 -17.314  0.00  0.00    +0.159 HD
ATOM      5  H   UNL     1      28.860 -24.899 -16.154  0.00  0.00    +0.159 HD
ATOM      6  H   UNL     1      29.974 -21.814 -15.254  0.00  0.00    +0.159 HD
ATOM      7  H   UNL     1      30.065 -23.507 -15.066  0.00  0.00    +0.159 HD
ENDROOT
BRANCH   3   8
ATOM      8  N   UNL     1      28.058 -21.944 -17.107  0.00  0.00    -0.228 NA
BRANCH   8   9
ATOM      9  C   UNL     1      26.603 -21.938 -17.025  0.00  0.00    +0.237 C 
BRANCH   9  11
ATOM     10  O   UNL     1      25.795 -21.598 -19.296  0.00  0.00    -0.248 OA
ATOM     11  C   UNL     1      26.078 -21.153 -18.193  0.00  0.00    +0.339 C 
BRANCH  11  12
ATOM     12  O   UNL     1      25.951 -19.845 -17.853  0.00  0.00    -0.479 OA
ATOM     13  H   UNL     1      25.475 -19.605 -17.082  0.00  0.00    +0.295 HD
ENDBRANCH  11  12
ENDBRANCH   9  11
ENDBRANCH   8   9
ENDBRANCH   3   8
TORSDOF 4
ENDMDL
MODEL 9
REMARK VINA RESULT:      -4.5      2.986      3.217
REMARK  Name = 763
REMARK  4 active torsions:
REMARK  status: ('A' for Active; 'I' for Inactive)
REMARK    1  A    between atoms: N_1  and  C_4
REMARK    2  A    between atoms: N_1  and  C_9
REMARK    3  A    between atoms: C_9  and  C_11
REMARK    4  A    between atoms: C_11  and  O_12
REMARK                            x       y       z     vdW  Elec       q    Type
REMARK                         _______ _______ _______ _____ _____    ______ ____
ROOT
ATOM      1  N   UNL     1      37.998 -25.758 -15.392  0.00  0.00    -0.370 N 
ATOM      2  N   UNL     1      36.059 -26.915 -15.084  0.00  0.00    -0.370 N 
ATOM      3  C   UNL     1      37.127 -26.296 -14.475  0.00  0.00    +0.189 C 
ATOM      4  H   UNL     1      38.806 -25.286 -15.086  0.00  0.00    +0.159 HD
ATOM      5  H   UNL     1      37.814 -25.845 -16.356  0.00  0.00    +0.159 HD
ATOM      6  H   UNL     1      35.359 -27.342 -14.538  0.00  0.00    +0.159 HD
ATOM      7  H   UNL     1      35.995 -26.930 -16.066  0.00  0.00    +0.159 HD
ENDROOT
BRANCH   3   8
ATOM      8  N   UNL     1      37.359 -26.187 -13.200  0.00  0.00    -0.228 NA
BRANCH   8   9
ATOM      9  C   UNL     1      38.488 -25.355 -12.802  0.00  0.00    +0.237 C 
BRANCH   9  11
ATOM     10  O   UNL     1      38.496 -23.199 -11.674  0.00  0.00    -0.248 OA
ATOM     11  C   UNL     1      37.972 -24.281 -11.888  0.00  0.00    +0.339 C 
BRANCH  11  12
ATOM     12  O   UNL     1      36.809 -24.682 -11.313  0.00  0.00    -0.479 OA
ATOM     13  H   UNL     1      36.762 -24.806 -10.385  0.00  0.00    +0.295 HD
ENDBRANCH  11  12
ENDBRANCH   9  11
ENDBRANCH   8   9
ENDBRANCH   3   8
TORSDOF 4
ENDMDL
