MODEL 1
REMARK VINA RESULT:      -6.4      0.000      0.000
REMARK  Name = 7249
REMARK  1 active torsions:
REMARK  status: ('A' for Active; 'I' for Inactive)
REMARK    1  A    between atoms: C_7  and  O_9
REMARK                            x       y       z     vdW  Elec       q    Type
REMARK                         _______ _______ _______ _____ _____    ______ ____
ROOT
ATOM      1  C   UNL     1      33.843 -20.534 -20.231  0.00  0.00    -0.023 C 
ATOM      2  C   UNL     1      35.133 -20.129 -20.573  0.00  0.00    -0.026 C 
ATOM      3  C   UNL     1      33.655 -21.552 -19.296  0.00  0.00    +0.032 C 
ATOM      4  C   UNL     1      36.236 -20.742 -19.979  0.00  0.00    -0.001 C 
ATOM      5  C   UNL     1      32.647 -19.892 -20.853  0.00  0.00    +0.031 C 
ATOM      6  C   UNL     1      35.358 -19.043 -21.572  0.00  0.00    +0.031 C 
ATOM      7  C   UNL     1      34.759 -22.165 -18.702  0.00  0.00    +0.133 C 
ATOM      8  C   UNL     1      36.049 -21.760 -19.043  0.00  0.00    +0.036 C 
ENDROOT
BRANCH   7   9
ATOM      9  O   UNL     1      34.576 -23.159 -17.791  0.00  0.00    -0.506 OA
ATOM     10  H   UNL     1      34.778 -24.046 -18.016  0.00  0.00    +0.292 HD
ENDBRANCH   7   9
TORSDOF 1
ENDMDL
MODEL 2
REMARK VINA RESULT:      -6.4      1.179      2.576
REMARK  Name = 7249
REMARK  1 active torsions:
REMARK  status: ('A' for Active; 'I' for Inactive)
REMARK    1  A    between atoms: C_7  and  O_9
REMARK                            x       y       z     vdW  Elec       q    Type
REMARK                         _______ _______ _______ _____ _____    ______ ____
ROOT
ATOM      1  C   UNL     1      35.599 -20.535 -20.193  0.00  0.00    -0.023 C 
ATOM      2  C   UNL     1      35.029 -19.528 -20.971  0.00  0.00    -0.026 C 
ATOM      3  C   UNL     1      34.782 -21.424 -19.493  0.00  0.00    +0.032 C 
ATOM      4  C   UNL     1      33.641 -19.410 -21.051  0.00  0.00    -0.001 C 
ATOM      5  C   UNL     1      37.082 -20.681 -20.093  0.00  0.00    +0.031 C 
ATOM      6  C   UNL     1      35.883 -18.565 -21.727  0.00  0.00    +0.031 C 
ATOM      7  C   UNL     1      33.394 -21.306 -19.573  0.00  0.00    +0.133 C 
ATOM      8  C   UNL     1      32.824 -20.300 -20.352  0.00  0.00    +0.036 C 
ENDROOT
BRANCH   7   9
ATOM      9  O   UNL     1      32.598 -22.172 -18.891  0.00  0.00    -0.506 OA
ATOM     10  H   UNL     1      32.091 -22.809 -19.355  0.00  0.00    +0.292 HD
ENDBRANCH   7   9
TORSDOF 1
ENDMDL
MODEL 3
REMARK VINA RESULT:      -6.2      4.215      5.880
REMARK  Name = 7249
REMARK  1 active torsions:
REMARK  status: ('A' for Active; 'I' for Inactive)
REMARK    1  A    between atoms: C_7  and  O_9
REMARK                            x       y       z     vdW  Elec       q    Type
REMARK                         _______ _______ _______ _____ _____    ______ ____
ROOT
ATOM      1  C   UNL     1      34.781 -17.202 -22.264  0.00  0.00    -0.023 C 
ATOM      2  C   UNL     1      34.760 -18.596 -22.243  0.00  0.00    -0.026 C 
ATOM      3  C   UNL     1      34.769 -16.522 -23.483  0.00  0.00    +0.032 C 
ATOM      4  C   UNL     1      34.726 -19.311 -23.440  0.00  0.00    -0.001 C 
ATOM      5  C   UNL     1      34.817 -16.415 -20.995  0.00  0.00    +0.031 C 
ATOM      6  C   UNL     1      34.774 -19.345 -20.951  0.00  0.00    +0.031 C 
ATOM      7  C   UNL     1      34.735 -17.237 -24.680  0.00  0.00    +0.133 C 
ATOM      8  C   UNL     1      34.712 -18.631 -24.659  0.00  0.00    +0.036 C 
ENDROOT
BRANCH   7   9
ATOM      9  O   UNL     1      34.724 -16.574 -25.868  0.00  0.00    -0.506 OA
ATOM     10  H   UNL     1      35.525 -16.259 -26.237  0.00  0.00    +0.292 HD
ENDBRANCH   7   9
TORSDOF 1
ENDMDL
MODEL 4
REMARK VINA RESULT:      -6.2      2.746      3.780
REMARK  Name = 7249
REMARK  1 active torsions:
REMARK  status: ('A' for Active; 'I' for Inactive)
REMARK    1  A    between atoms: C_7  and  O_9
REMARK                            x       y       z     vdW  Elec       q    Type
REMARK                         _______ _______ _______ _____ _____    ______ ____
ROOT
ATOM      1  C   UNL     1      34.237 -19.879 -20.786  0.00  0.00    -0.023 C 
ATOM      2  C   UNL     1      35.331 -20.501 -20.185  0.00  0.00    -0.026 C 
ATOM      3  C   UNL     1      34.437 -18.806 -21.657  0.00  0.00    +0.032 C 
ATOM      4  C   UNL     1      36.624 -20.052 -20.453  0.00  0.00    -0.001 C 
ATOM      5  C   UNL     1      32.844 -20.343 -20.515  0.00  0.00    +0.031 C 
ATOM      6  C   UNL     1      35.142 -21.650 -19.249  0.00  0.00    +0.031 C 
ATOM      7  C   UNL     1      35.730 -18.357 -21.925  0.00  0.00    +0.133 C 
ATOM      8  C   UNL     1      36.823 -18.980 -21.324  0.00  0.00    +0.036 C 
ENDROOT
BRANCH   7   9
ATOM      9  O   UNL     1      35.924 -17.311 -22.773  0.00  0.00    -0.506 OA
ATOM     10  H   UNL     1      36.469 -17.413 -23.528  0.00  0.00    +0.292 HD
ENDBRANCH   7   9
TORSDOF 1
ENDMDL
MODEL 5
REMARK VINA RESULT:      -6.2      2.405      4.026
REMARK  Name = 7249
REMARK  1 active torsions:
REMARK  status: ('A' for Active; 'I' for Inactive)
REMARK    1  A    between atoms: C_7  and  O_9
REMARK                            x       y       z     vdW  Elec       q    Type
REMARK                         _______ _______ _______ _____ _____    ______ ____
ROOT
ATOM      1  C   UNL     1      35.537 -20.826 -19.786  0.00  0.00    -0.023 C 
ATOM      2  C   UNL     1      34.153 -20.983 -19.855  0.00  0.00    -0.026 C 
ATOM      3  C   UNL     1      36.171 -19.868 -20.579  0.00  0.00    +0.032 C 
ATOM      4  C   UNL     1      33.402 -20.182 -20.716  0.00  0.00    -0.001 C 
ATOM      5  C   UNL     1      36.360 -21.671 -18.871  0.00  0.00    +0.031 C 
ATOM      6  C   UNL     1      33.452 -22.001 -19.018  0.00  0.00    +0.031 C 
ATOM      7  C   UNL     1      35.420 -19.068 -21.440  0.00  0.00    +0.133 C 
ATOM      8  C   UNL     1      34.036 -19.224 -21.508  0.00  0.00    +0.036 C 
ENDROOT
BRANCH   7   9
ATOM      9  O   UNL     1      36.039 -18.135 -22.213  0.00  0.00    -0.506 OA
ATOM     10  H   UNL     1      35.547 -17.648 -22.845  0.00  0.00    +0.292 HD
ENDBRANCH   7   9
TORSDOF 1
ENDMDL
MODEL 6
REMARK VINA RESULT:      -6.0      0.885      2.294
REMARK  Name = 7249
REMARK  1 active torsions:
REMARK  status: ('A' for Active; 'I' for Inactive)
REMARK    1  A    between atoms: C_7  and  O_9
REMARK                            x       y       z     vdW  Elec       q    Type
REMARK                         _______ _______ _______ _____ _____    ______ ____
ROOT
ATOM      1  C   UNL     1      35.212 -20.287 -20.354  0.00  0.00    -0.023 C 
ATOM      2  C   UNL     1      33.895 -20.694 -20.146  0.00  0.00    -0.026 C 
ATOM      3  C   UNL     1      36.245 -20.857 -19.610  0.00  0.00    +0.032 C 
ATOM      4  C   UNL     1      33.610 -21.672 -19.193  0.00  0.00    -0.001 C 
ATOM      5  C   UNL     1      35.541 -19.242 -21.370  0.00  0.00    +0.031 C 
ATOM      6  C   UNL     1      32.773 -20.098 -20.930  0.00  0.00    +0.031 C 
ATOM      7  C   UNL     1      35.960 -21.835 -18.657  0.00  0.00    +0.133 C 
ATOM      8  C   UNL     1      34.643 -22.243 -18.449  0.00  0.00    +0.036 C 
ENDROOT
BRANCH   7   9
ATOM      9  O   UNL     1      36.968 -22.390 -17.930  0.00  0.00    -0.506 OA
ATOM     10  H   UNL     1      37.033 -23.322 -17.854  0.00  0.00    +0.292 HD
ENDBRANCH   7   9
TORSDOF 1
ENDMDL
MODEL 7
REMARK VINA RESULT:      -5.9      4.120      5.303
REMARK  Name = 7249
REMARK  1 active torsions:
REMARK  status: ('A' for Active; 'I' for Inactive)
REMARK    1  A    between atoms: C_7  and  O_9
REMARK                            x       y       z     vdW  Elec       q    Type
REMARK                         _______ _______ _______ _____ _____    ______ ____
ROOT
ATOM      1  C   UNL     1      34.734 -17.072 -23.789  0.00  0.00    -0.023 C 
ATOM      2  C   UNL     1      34.809 -18.441 -23.535  0.00  0.00    -0.026 C 
ATOM      3  C   UNL     1      34.784 -16.163 -22.731  0.00  0.00    +0.032 C 
ATOM      4  C   UNL     1      34.933 -18.902 -22.225  0.00  0.00    -0.001 C 
ATOM      5  C   UNL     1      34.602 -16.556 -25.184  0.00  0.00    +0.031 C 
ATOM      6  C   UNL     1      34.756 -19.433 -24.650  0.00  0.00    +0.031 C 
ATOM      7  C   UNL     1      34.909 -16.624 -21.421  0.00  0.00    +0.133 C 
ATOM      8  C   UNL     1      34.984 -17.993 -21.167  0.00  0.00    +0.036 C 
ENDROOT
BRANCH   7   9
ATOM      9  O   UNL     1      34.957 -15.737 -20.390  0.00  0.00    -0.506 OA
ATOM     10  H   UNL     1      35.715 -15.201 -20.266  0.00  0.00    +0.292 HD
ENDBRANCH   7   9
TORSDOF 1
ENDMDL
MODEL 8
REMARK VINA RESULT:      -5.9      5.759      7.234
REMARK  Name = 7249
REMARK  1 active torsions:
REMARK  status: ('A' for Active; 'I' for Inactive)
REMARK    1  A    between atoms: C_7  and  O_9
REMARK                            x       y       z     vdW  Elec       q    Type
REMARK                         _______ _______ _______ _____ _____    ______ ____
ROOT
ATOM      1  C   UNL     1      34.770 -17.361 -23.821  0.00  0.00    -0.023 C 
ATOM      2  C   UNL     1      34.552 -16.460 -22.780  0.00  0.00    -0.026 C 
ATOM      3  C   UNL     1      34.404 -17.023 -25.125  0.00  0.00    +0.032 C 
ATOM      4  C   UNL     1      33.968 -15.221 -23.040  0.00  0.00    -0.001 C 
ATOM      5  C   UNL     1      35.395 -18.693 -23.567  0.00  0.00    +0.031 C 
ATOM      6  C   UNL     1      34.935 -16.801 -21.377  0.00  0.00    +0.031 C 
ATOM      7  C   UNL     1      33.819 -15.783 -25.385  0.00  0.00    +0.133 C 
ATOM      8  C   UNL     1      33.602 -14.882 -24.343  0.00  0.00    +0.036 C 
ENDROOT
BRANCH   7   9
ATOM      9  O   UNL     1      33.461 -15.454 -26.656  0.00  0.00    -0.506 OA
ATOM     10  H   UNL     1      33.592 -16.065 -27.354  0.00  0.00    +0.292 HD
ENDBRANCH   7   9
TORSDOF 1
ENDMDL
MODEL 9
REMARK VINA RESULT:      -5.8      3.689      5.350
REMARK  Name = 7249
REMARK  1 active torsions:
REMARK  status: ('A' for Active; 'I' for Inactive)
REMARK    1  A    between atoms: C_7  and  O_9
REMARK                            x       y       z     vdW  Elec       q    Type
REMARK                         _______ _______ _______ _____ _____    ______ ____
ROOT
ATOM      1  C   UNL     1      34.909 -18.376 -21.884  0.00  0.00    -0.023 C 
ATOM      2  C   UNL     1      34.841 -18.090 -23.247  0.00  0.00    -0.026 C 
ATOM      3  C   UNL     1      34.901 -17.338 -20.952  0.00  0.00    +0.032 C 
ATOM      4  C   UNL     1      34.765 -16.766 -23.679  0.00  0.00    -0.001 C 
ATOM      5  C   UNL     1      34.990 -19.786 -21.399  0.00  0.00    +0.031 C 
ATOM      6  C   UNL     1      34.848 -19.185 -24.263  0.00  0.00    +0.031 C 
ATOM      7  C   UNL     1      34.825 -16.014 -21.384  0.00  0.00    +0.133 C 
ATOM      8  C   UNL     1      34.756 -15.728 -22.747  0.00  0.00    +0.036 C 
ENDROOT
BRANCH   7   9
ATOM      9  O   UNL     1      34.819 -15.001 -20.475  0.00  0.00    -0.506 OA
ATOM     10  H   UNL     1      35.381 -14.262 -20.592  0.00  0.00    +0.292 HD
ENDBRANCH   7   9
TORSDOF 1
ENDMDL
