MODEL 1
REMARK VINA RESULT:      -7.3      0.000      0.000
REMARK  Name = 774282
REMARK  6 active torsions:
REMARK  status: ('A' for Active; 'I' for Inactive)
REMARK    1  A    between atoms: N_2  and  CA_10
REMARK    2  A    between atoms: C_3  and  C_6
REMARK    3  A    between atoms: CA_10  and  C_12
REMARK    4  A    between atoms: CA_10  and  CB_15
REMARK    5  A    between atoms: C_12  and  O_13
REMARK    6  A    between atoms: CB_15  and  CG_16
REMARK                            x       y       z     vdW  Elec       q    Type
REMARK                         _______ _______ _______ _____ _____    ______ ____
ROOT
ATOM      1  O   UNK A   0      33.044 -19.706 -21.395  0.00  0.00    -0.267 OA
ATOM      2  N   LEU A   1      34.931 -18.435 -20.944  0.00  0.00    -0.291 N 
ATOM      3  C   UNK A   0      34.126 -19.562 -20.833  0.00  0.00    +0.281 C 
ATOM      4  H   LEU A   1      35.784 -18.414 -20.454  0.00  0.00    +0.150 HD
ENDROOT
BRANCH   3   6
ATOM      5  O   UNK A   0      35.921 -20.561 -19.625  0.00  0.00    -0.446 OA
ATOM      6  C   UNK A   0      34.632 -20.639 -19.943  0.00  0.00    +0.198 C 
ATOM      7  C   UNK A   0      33.982 -21.677 -19.413  0.00  0.00    +0.045 C 
ATOM      8  C   UNK A   0      34.971 -22.354 -18.660  0.00  0.00    +0.044 C 
ATOM      9  C   UNK A   0      36.133 -21.636 -18.821  0.00  0.00    +0.180 C 
ENDBRANCH   3   6
BRANCH   2  10
ATOM     10  CA  LEU A   1      34.567 -17.298 -21.749  0.00  0.00    +0.172 C 
BRANCH  10  12
ATOM     11  OXT LEU A   1      35.421 -18.303 -23.778  0.00  0.00    -0.248 OA
ATOM     12  C   LEU A   1      35.241 -17.289 -23.112  0.00  0.00    +0.332 C 
BRANCH  12  13
ATOM     13  O   LEU A   1      35.679 -16.072 -23.513  0.00  0.00    -0.479 OA
ATOM     14  H   LEU A   1      36.153 -15.987 -24.318  0.00  0.00    +0.295 HD
ENDBRANCH  12  13
ENDBRANCH  10  12
BRANCH  10  15
ATOM     15  CB  LEU A   1      34.731 -15.973 -20.991  0.00  0.00    +0.031 C 
BRANCH  15  16
ATOM     16  CG  LEU A   1      33.459 -15.136 -20.720  0.00  0.00    +0.002 C 
ATOM     17  CD1 LEU A   1      33.283 -14.109 -21.845  0.00  0.00    +0.000 C 
ATOM     18  CD2 LEU A   1      32.187 -15.972 -20.591  0.00  0.00    +0.000 C 
ENDBRANCH  15  16
ENDBRANCH  10  15
ENDBRANCH   2  10
TORSDOF 6
ENDMDL
MODEL 2
REMARK VINA RESULT:      -7.2      1.325      1.561
REMARK  Name = 774282
REMARK  6 active torsions:
REMARK  status: ('A' for Active; 'I' for Inactive)
REMARK    1  A    between atoms: N_2  and  CA_10
REMARK    2  A    between atoms: C_3  and  C_6
REMARK    3  A    between atoms: CA_10  and  C_12
REMARK    4  A    between atoms: CA_10  and  CB_15
REMARK    5  A    between atoms: C_12  and  O_13
REMARK    6  A    between atoms: CB_15  and  CG_16
REMARK                            x       y       z     vdW  Elec       q    Type
REMARK                         _______ _______ _______ _____ _____    ______ ____
ROOT
ATOM      1  O   UNK A   0      32.388 -20.089 -20.989  0.00  0.00    -0.267 OA
ATOM      2  N   LEU A   1      34.539 -19.281 -20.672  0.00  0.00    -0.291 N 
ATOM      3  C   UNK A   0      33.492 -20.169 -20.458  0.00  0.00    +0.281 C 
ATOM      4  H   LEU A   1      35.389 -19.429 -20.199  0.00  0.00    +0.150 HD
ENDROOT
BRANCH   3   6
ATOM      5  O   UNK A   0      32.679 -21.826 -18.950  0.00  0.00    -0.446 OA
ATOM      6  C   UNK A   0      33.757 -21.266 -19.492  0.00  0.00    +0.198 C 
ATOM      7  C   UNK A   0      34.922 -21.777 -19.086  0.00  0.00    +0.045 C 
ATOM      8  C   UNK A   0      34.553 -22.790 -18.170  0.00  0.00    +0.044 C 
ATOM      9  C   UNK A   0      33.179 -22.780 -18.122  0.00  0.00    +0.180 C 
ENDBRANCH   3   6
BRANCH   2  10
ATOM     10  CA  LEU A   1      34.429 -18.153 -21.560  0.00  0.00    +0.172 C 
BRANCH  10  12
ATOM     11  OXT LEU A   1      34.515 -19.282 -23.698  0.00  0.00    -0.248 OA
ATOM     12  C   LEU A   1      34.980 -18.429 -22.950  0.00  0.00    +0.332 C 
BRANCH  12  13
ATOM     13  O   LEU A   1      36.067 -17.692 -23.280  0.00  0.00    -0.479 OA
ATOM     14  H   LEU A   1      36.754 -18.074 -23.791  0.00  0.00    +0.295 HD
ENDBRANCH  12  13
ENDBRANCH  10  12
BRANCH  10  15
ATOM     15  CB  LEU A   1      34.992 -16.866 -20.938  0.00  0.00    +0.031 C 
BRANCH  15  16
ATOM     16  CG  LEU A   1      34.088 -15.612 -20.937  0.00  0.00    +0.002 C 
ATOM     17  CD1 LEU A   1      34.357 -14.797 -22.209  0.00  0.00    +0.000 C 
ATOM     18  CD2 LEU A   1      32.596 -15.926 -20.842  0.00  0.00    +0.000 C 
ENDBRANCH  15  16
ENDBRANCH  10  15
ENDBRANCH   2  10
TORSDOF 6
ENDMDL
MODEL 3
REMARK VINA RESULT:      -7.2      4.631      8.200
REMARK  Name = 774282
REMARK  6 active torsions:
REMARK  status: ('A' for Active; 'I' for Inactive)
REMARK    1  A    between atoms: N_2  and  CA_10
REMARK    2  A    between atoms: C_3  and  C_6
REMARK    3  A    between atoms: CA_10  and  C_12
REMARK    4  A    between atoms: CA_10  and  CB_15
REMARK    5  A    between atoms: C_12  and  O_13
REMARK    6  A    between atoms: CB_15  and  CG_16
REMARK                            x       y       z     vdW  Elec       q    Type
REMARK                         _______ _______ _______ _____ _____    ______ ____
ROOT
ATOM      1  O   UNK A   0      33.661 -23.797 -17.791  0.00  0.00    -0.267 OA
ATOM      2  N   LEU A   1      31.854 -22.421 -17.319  0.00  0.00    -0.291 N 
ATOM      3  C   UNK A   0      33.019 -22.769 -17.991  0.00  0.00    +0.281 C 
ATOM      4  H   LEU A   1      31.410 -21.574 -17.551  0.00  0.00    +0.150 HD
ENDROOT
BRANCH   3   6
ATOM      5  O   UNK A   0      32.573 -21.005 -19.530  0.00  0.00    -0.446 OA
ATOM      6  C   UNK A   0      33.504 -21.794 -19.001  0.00  0.00    +0.198 C 
ATOM      7  C   UNK A   0      34.742 -21.590 -19.458  0.00  0.00    +0.045 C 
ATOM      8  C   UNK A   0      34.595 -20.542 -20.397  0.00  0.00    +0.044 C 
ATOM      9  C   UNK A   0      33.257 -20.221 -20.405  0.00  0.00    +0.180 C 
ENDBRANCH   3   6
BRANCH   2  10
ATOM     10  CA  LEU A   1      31.272 -23.250 -16.296  0.00  0.00    +0.172 C 
BRANCH  10  12
ATOM     11  OXT LEU A   1      29.201 -24.494 -16.166  0.00  0.00    -0.248 OA
ATOM     12  C   LEU A   1      29.775 -23.454 -16.471  0.00  0.00    +0.332 C 
BRANCH  12  13
ATOM     13  O   LEU A   1      29.129 -22.413 -17.046  0.00  0.00    -0.479 OA
ATOM     14  H   LEU A   1      29.432 -21.537 -16.904  0.00  0.00    +0.295 HD
ENDBRANCH  12  13
ENDBRANCH  10  12
BRANCH  10  15
ATOM     15  CB  LEU A   1      31.650 -22.782 -14.883  0.00  0.00    +0.031 C 
BRANCH  15  16
ATOM     16  CG  LEU A   1      32.470 -23.750 -13.999  0.00  0.00    +0.002 C 
ATOM     17  CD1 LEU A   1      31.689 -25.059 -13.829  0.00  0.00    +0.000 C 
ATOM     18  CD2 LEU A   1      33.862 -24.057 -14.547  0.00  0.00    +0.000 C 
ENDBRANCH  15  16
ENDBRANCH  10  15
ENDBRANCH   2  10
TORSDOF 6
ENDMDL
MODEL 4
REMARK VINA RESULT:      -7.1      1.297      1.718
REMARK  Name = 774282
REMARK  6 active torsions:
REMARK  status: ('A' for Active; 'I' for Inactive)
REMARK    1  A    between atoms: N_2  and  CA_10
REMARK    2  A    between atoms: C_3  and  C_6
REMARK    3  A    between atoms: CA_10  and  C_12
REMARK    4  A    between atoms: CA_10  and  CB_15
REMARK    5  A    between atoms: C_12  and  O_13
REMARK    6  A    between atoms: CB_15  and  CG_16
REMARK                            x       y       z     vdW  Elec       q    Type
REMARK                         _______ _______ _______ _____ _____    ______ ____
ROOT
ATOM      1  O   UNK A   0      33.014 -19.265 -20.926  0.00  0.00    -0.267 OA
ATOM      2  N   LEU A   1      34.987 -19.121 -22.137  0.00  0.00    -0.291 N 
ATOM      3  C   UNK A   0      34.185 -19.591 -21.105  0.00  0.00    +0.281 C 
ATOM      4  H   LEU A   1      35.916 -19.443 -22.197  0.00  0.00    +0.150 HD
ENDROOT
BRANCH   3   6
ATOM      5  O   UNK A   0      36.119 -20.316 -19.917  0.00  0.00    -0.446 OA
ATOM      6  C   UNK A   0      34.830 -20.535 -20.156  0.00  0.00    +0.198 C 
ATOM      7  C   UNK A   0      34.304 -21.576 -19.506  0.00  0.00    +0.045 C 
ATOM      8  C   UNK A   0      35.386 -22.093 -18.753  0.00  0.00    +0.044 C 
ATOM      9  C   UNK A   0      36.467 -21.292 -19.038  0.00  0.00    +0.180 C 
ENDBRANCH   3   6
BRANCH   2  10
ATOM     10  CA  LEU A   1      34.514 -18.183 -23.121  0.00  0.00    +0.172 C 
BRANCH  10  12
ATOM     11  OXT LEU A   1      34.840 -19.868 -24.827  0.00  0.00    -0.248 OA
ATOM     12  C   LEU A   1      34.663 -18.687 -24.548  0.00  0.00    +0.332 C 
BRANCH  12  13
ATOM     13  O   LEU A   1      34.638 -17.717 -25.492  0.00  0.00    -0.479 OA
ATOM     14  H   LEU A   1      35.305 -17.686 -26.149  0.00  0.00    +0.295 HD
ENDBRANCH  12  13
ENDBRANCH  10  12
BRANCH  10  15
ATOM     15  CB  LEU A   1      35.104 -16.780 -22.918  0.00  0.00    +0.031 C 
BRANCH  15  16
ATOM     16  CG  LEU A   1      34.213 -15.716 -22.236  0.00  0.00    +0.002 C 
ATOM     17  CD1 LEU A   1      34.583 -15.625 -20.751  0.00  0.00    +0.000 C 
ATOM     18  CD2 LEU A   1      34.313 -14.329 -22.870  0.00  0.00    +0.000 C 
ENDBRANCH  15  16
ENDBRANCH  10  15
ENDBRANCH   2  10
TORSDOF 6
ENDMDL
MODEL 5
REMARK VINA RESULT:      -6.9      7.306      9.957
REMARK  Name = 774282
REMARK  6 active torsions:
REMARK  status: ('A' for Active; 'I' for Inactive)
REMARK    1  A    between atoms: N_2  and  CA_10
REMARK    2  A    between atoms: C_3  and  C_6
REMARK    3  A    between atoms: CA_10  and  C_12
REMARK    4  A    between atoms: CA_10  and  CB_15
REMARK    5  A    between atoms: C_12  and  O_13
REMARK    6  A    between atoms: CB_15  and  CG_16
REMARK                            x       y       z     vdW  Elec       q    Type
REMARK                         _______ _______ _______ _____ _____    ______ ____
ROOT
ATOM      1  O   UNK A   0      36.046 -23.104 -16.450  0.00  0.00    -0.267 OA
ATOM      2  N   LEU A   1      35.596 -24.809 -14.944  0.00  0.00    -0.291 N 
ATOM      3  C   UNK A   0      35.246 -23.788 -15.818  0.00  0.00    +0.281 C 
ATOM      4  H   LEU A   1      34.880 -25.303 -14.482  0.00  0.00    +0.150 HD
ENDROOT
BRANCH   3   6
ATOM      5  O   UNK A   0      33.098 -23.527 -14.819  0.00  0.00    -0.446 OA
ATOM      6  C   UNK A   0      33.792 -23.518 -15.954  0.00  0.00    +0.198 C 
ATOM      7  C   UNK A   0      33.074 -23.264 -17.051  0.00  0.00    +0.045 C 
ATOM      8  C   UNK A   0      31.756 -23.089 -16.567  0.00  0.00    +0.044 C 
ATOM      9  C   UNK A   0      31.823 -23.259 -15.204  0.00  0.00    +0.180 C 
ENDBRANCH   3   6
BRANCH   2  10
ATOM     10  CA  LEU A   1      36.965 -25.175 -14.687  0.00  0.00    +0.172 C 
BRANCH  10  12
ATOM     11  OXT LEU A   1      38.135 -27.288 -14.551  0.00  0.00    -0.248 OA
ATOM     12  C   LEU A   1      37.296 -26.596 -15.116  0.00  0.00    +0.332 C 
BRANCH  12  13
ATOM     13  O   LEU A   1      36.626 -27.022 -16.213  0.00  0.00    -0.479 OA
ATOM     14  H   LEU A   1      36.755 -27.894 -16.532  0.00  0.00    +0.295 HD
ENDBRANCH  12  13
ENDBRANCH  10  12
BRANCH  10  15
ATOM     15  CB  LEU A   1      37.386 -24.873 -13.241  0.00  0.00    +0.031 C 
BRANCH  15  16
ATOM     16  CG  LEU A   1      36.539 -23.855 -12.443  0.00  0.00    +0.002 C 
ATOM     17  CD1 LEU A   1      35.671 -24.609 -11.427  0.00  0.00    +0.000 C 
ATOM     18  CD2 LEU A   1      37.368 -22.798 -11.716  0.00  0.00    +0.000 C 
ENDBRANCH  15  16
ENDBRANCH  10  15
ENDBRANCH   2  10
TORSDOF 6
ENDMDL
MODEL 6
REMARK VINA RESULT:      -6.9      1.914      5.844
REMARK  Name = 774282
REMARK  6 active torsions:
REMARK  status: ('A' for Active; 'I' for Inactive)
REMARK    1  A    between atoms: N_2  and  CA_10
REMARK    2  A    between atoms: C_3  and  C_6
REMARK    3  A    between atoms: CA_10  and  C_12
REMARK    4  A    between atoms: CA_10  and  CB_15
REMARK    5  A    between atoms: C_12  and  O_13
REMARK    6  A    between atoms: CB_15  and  CG_16
REMARK                            x       y       z     vdW  Elec       q    Type
REMARK                         _______ _______ _______ _____ _____    ______ ____
ROOT
ATOM      1  O   UNK A   0      34.992 -15.689 -20.213  0.00  0.00    -0.267 OA
ATOM      2  N   LEU A   1      34.063 -16.911 -21.952  0.00  0.00    -0.291 N 
ATOM      3  C   UNK A   0      34.213 -15.782 -21.158  0.00  0.00    +0.281 C 
ATOM      4  H   LEU A   1      33.410 -16.888 -22.688  0.00  0.00    +0.150 HD
ENDROOT
BRANCH   3   6
ATOM      5  O   UNK A   0      33.205 -14.364 -22.787  0.00  0.00    -0.446 OA
ATOM      6  C   UNK A   0      33.334 -14.631 -21.490  0.00  0.00    +0.198 C 
ATOM      7  C   UNK A   0      32.650 -13.822 -20.677  0.00  0.00    +0.045 C 
ATOM      8  C   UNK A   0      32.000 -12.922 -21.554  0.00  0.00    +0.044 C 
ATOM      9  C   UNK A   0      32.370 -13.293 -22.826  0.00  0.00    +0.180 C 
ENDBRANCH   3   6
BRANCH   2  10
ATOM     10  CA  LEU A   1      34.825 -18.115 -21.740  0.00  0.00    +0.172 C 
BRANCH  10  12
ATOM     11  OXT LEU A   1      35.420 -18.812 -23.979  0.00  0.00    -0.248 OA
ATOM     12  C   LEU A   1      35.787 -18.421 -22.876  0.00  0.00    +0.332 C 
BRANCH  12  13
ATOM     13  O   LEU A   1      37.096 -18.282 -22.558  0.00  0.00    -0.479 OA
ATOM     14  H   LEU A   1      37.563 -17.513 -22.821  0.00  0.00    +0.295 HD
ENDBRANCH  12  13
ENDBRANCH  10  12
BRANCH  10  15
ATOM     15  CB  LEU A   1      33.934 -19.310 -21.371  0.00  0.00    +0.031 C 
BRANCH  15  16
ATOM     16  CG  LEU A   1      34.355 -20.174 -20.160  0.00  0.00    +0.002 C 
ATOM     17  CD1 LEU A   1      33.246 -21.190 -19.856  0.00  0.00    +0.000 C 
ATOM     18  CD2 LEU A   1      35.678 -20.912 -20.358  0.00  0.00    +0.000 C 
ENDBRANCH  15  16
ENDBRANCH  10  15
ENDBRANCH   2  10
TORSDOF 6
ENDMDL
MODEL 7
REMARK VINA RESULT:      -6.8      1.895      3.066
REMARK  Name = 774282
REMARK  6 active torsions:
REMARK  status: ('A' for Active; 'I' for Inactive)
REMARK    1  A    between atoms: N_2  and  CA_10
REMARK    2  A    between atoms: C_3  and  C_6
REMARK    3  A    between atoms: CA_10  and  C_12
REMARK    4  A    between atoms: CA_10  and  CB_15
REMARK    5  A    between atoms: C_12  and  O_13
REMARK    6  A    between atoms: CB_15  and  CG_16
REMARK                            x       y       z     vdW  Elec       q    Type
REMARK                         _______ _______ _______ _____ _____    ______ ____
ROOT
ATOM      1  O   UNK A   0      36.473 -18.617 -21.536  0.00  0.00    -0.267 OA
ATOM      2  N   LEU A   1      34.497 -17.407 -21.438  0.00  0.00    -0.291 N 
ATOM      3  C   UNK A   0      35.287 -18.530 -21.230  0.00  0.00    +0.281 C 
ATOM      4  H   LEU A   1      33.554 -17.434 -21.157  0.00  0.00    +0.150 HD
ENDROOT
BRANCH   3   6
ATOM      5  O   UNK A   0      35.394 -20.518 -19.919  0.00  0.00    -0.446 OA
ATOM      6  C   UNK A   0      34.608 -19.698 -20.611  0.00  0.00    +0.198 C 
ATOM      7  C   UNK A   0      33.320 -20.048 -20.647  0.00  0.00    +0.045 C 
ATOM      8  C   UNK A   0      33.266 -21.240 -19.886  0.00  0.00    +0.044 C 
ATOM      9  C   UNK A   0      34.552 -21.484 -19.465  0.00  0.00    +0.180 C 
ENDBRANCH   3   6
BRANCH   2  10
ATOM     10  CA  LEU A   1      35.003 -16.206 -22.049  0.00  0.00    +0.172 C 
BRANCH  10  12
ATOM     11  OXT LEU A   1      34.168 -13.969 -22.441  0.00  0.00    -0.248 OA
ATOM     12  C   LEU A   1      34.159 -14.978 -21.745  0.00  0.00    +0.332 C 
BRANCH  12  13
ATOM     13  O   LEU A   1      33.430 -15.066 -20.607  0.00  0.00    -0.479 OA
ATOM     14  H   LEU A   1      33.063 -14.292 -20.225  0.00  0.00    +0.295 HD
ENDBRANCH  12  13
ENDBRANCH  10  12
BRANCH  10  15
ATOM     15  CB  LEU A   1      35.277 -16.387 -23.549  0.00  0.00    +0.031 C 
BRANCH  15  16
ATOM     16  CG  LEU A   1      34.127 -16.927 -24.431  0.00  0.00    +0.002 C 
ATOM     17  CD1 LEU A   1      33.815 -15.907 -25.533  0.00  0.00    +0.000 C 
ATOM     18  CD2 LEU A   1      34.422 -18.286 -25.065  0.00  0.00    +0.000 C 
ENDBRANCH  15  16
ENDBRANCH  10  15
ENDBRANCH   2  10
TORSDOF 6
ENDMDL
MODEL 8
REMARK VINA RESULT:      -6.8      4.317      6.397
REMARK  Name = 774282
REMARK  6 active torsions:
REMARK  status: ('A' for Active; 'I' for Inactive)
REMARK    1  A    between atoms: N_2  and  CA_10
REMARK    2  A    between atoms: C_3  and  C_6
REMARK    3  A    between atoms: CA_10  and  C_12
REMARK    4  A    between atoms: CA_10  and  CB_15
REMARK    5  A    between atoms: C_12  and  O_13
REMARK    6  A    between atoms: CB_15  and  CG_16
REMARK                            x       y       z     vdW  Elec       q    Type
REMARK                         _______ _______ _______ _____ _____    ______ ____
ROOT
ATOM      1  O   UNK A   0      34.709 -14.449 -21.912  0.00  0.00    -0.267 OA
ATOM      2  N   LEU A   1      33.895 -13.735 -23.963  0.00  0.00    -0.291 N 
ATOM      3  C   UNK A   0      34.397 -14.680 -23.077  0.00  0.00    +0.281 C 
ATOM      4  H   LEU A   1      33.673 -14.018 -24.879  0.00  0.00    +0.150 HD
ENDROOT
BRANCH   3   6
ATOM      5  O   UNK A   0      34.121 -16.243 -24.855  0.00  0.00    -0.446 OA
ATOM      6  C   UNK A   0      34.578 -16.051 -23.621  0.00  0.00    +0.198 C 
ATOM      7  C   UNK A   0      35.135 -17.122 -23.052  0.00  0.00    +0.045 C 
ATOM      8  C   UNK A   0      35.025 -18.132 -24.038  0.00  0.00    +0.044 C 
ATOM      9  C   UNK A   0      34.401 -17.547 -25.115  0.00  0.00    +0.180 C 
ENDBRANCH   3   6
BRANCH   2  10
ATOM     10  CA  LEU A   1      33.686 -12.359 -23.593  0.00  0.00    +0.172 C 
BRANCH  10  12
ATOM     11  OXT LEU A   1      31.961 -11.021 -22.550  0.00  0.00    -0.248 OA
ATOM     12  C   LEU A   1      32.390 -12.135 -22.830  0.00  0.00    +0.332 C 
BRANCH  12  13
ATOM     13  O   LEU A   1      31.767 -13.270 -22.433  0.00  0.00    -0.479 OA
ATOM     14  H   LEU A   1      31.861 -13.571 -21.551  0.00  0.00    +0.295 HD
ENDBRANCH  12  13
ENDBRANCH  10  12
BRANCH  10  15
ATOM     15  CB  LEU A   1      33.852 -11.405 -24.785  0.00  0.00    +0.031 C 
BRANCH  15  16
ATOM     16  CG  LEU A   1      35.058 -10.439 -24.770  0.00  0.00    +0.002 C 
ATOM     17  CD1 LEU A   1      35.613 -10.303 -26.194  0.00  0.00    +0.000 C 
ATOM     18  CD2 LEU A   1      34.731  -9.052 -24.219  0.00  0.00    +0.000 C 
ENDBRANCH  15  16
ENDBRANCH  10  15
ENDBRANCH   2  10
TORSDOF 6
ENDMDL
MODEL 9
REMARK VINA RESULT:      -6.7      3.247      6.957
REMARK  Name = 774282
REMARK  6 active torsions:
REMARK  status: ('A' for Active; 'I' for Inactive)
REMARK    1  A    between atoms: N_2  and  CA_10
REMARK    2  A    between atoms: C_3  and  C_6
REMARK    3  A    between atoms: CA_10  and  C_12
REMARK    4  A    between atoms: CA_10  and  CB_15
REMARK    5  A    between atoms: C_12  and  O_13
REMARK    6  A    between atoms: CB_15  and  CG_16
REMARK                            x       y       z     vdW  Elec       q    Type
REMARK                         _______ _______ _______ _____ _____    ______ ____
ROOT
ATOM      1  O   UNK A   0      32.207 -14.317 -22.836  0.00  0.00    -0.267 OA
ATOM      2  N   LEU A   1      34.161 -15.490 -23.269  0.00  0.00    -0.291 N 
ATOM      3  C   UNK A   0      33.157 -14.579 -23.570  0.00  0.00    +0.281 C 
ATOM      4  H   LEU A   1      34.882 -15.632 -23.924  0.00  0.00    +0.150 HD
ENDROOT
BRANCH   3   6
ATOM      5  O   UNK A   0      33.681 -12.649 -24.866  0.00  0.00    -0.446 OA
ATOM      6  C   UNK A   0      33.260 -13.910 -24.892  0.00  0.00    +0.198 C 
ATOM      7  C   UNK A   0      32.991 -14.389 -26.109  0.00  0.00    +0.045 C 
ATOM      8  C   UNK A   0      33.273 -13.307 -26.976  0.00  0.00    +0.044 C 
ATOM      9  C   UNK A   0      33.689 -12.272 -26.172  0.00  0.00    +0.180 C 
ENDBRANCH   3   6
BRANCH   2  10
ATOM     10  CA  LEU A   1      34.188 -16.236 -22.038  0.00  0.00    +0.172 C 
BRANCH  10  12
ATOM     11  OXT LEU A   1      35.047 -14.755 -20.329  0.00  0.00    -0.248 OA
ATOM     12  C   LEU A   1      34.089 -15.356 -20.802  0.00  0.00    +0.332 C 
BRANCH  12  13
ATOM     13  O   LEU A   1      32.863 -15.328 -20.229  0.00  0.00    -0.479 OA
ATOM     14  H   LEU A   1      32.098 -15.484 -20.748  0.00  0.00    +0.295 HD
ENDBRANCH  12  13
ENDBRANCH  10  12
BRANCH  10  15
ATOM     15  CB  LEU A   1      35.366 -17.220 -21.979  0.00  0.00    +0.031 C 
BRANCH  15  16
ATOM     16  CG  LEU A   1      35.061 -18.721 -22.186  0.00  0.00    +0.002 C 
ATOM     17  CD1 LEU A   1      33.914 -19.135 -21.257  0.00  0.00    +0.000 C 
ATOM     18  CD2 LEU A   1      34.704 -19.086 -23.626  0.00  0.00    +0.000 C 
ENDBRANCH  15  16
ENDBRANCH  10  15
ENDBRANCH   2  10
TORSDOF 6
ENDMDL
