MODEL 1
REMARK VINA RESULT:      -6.8      0.000      0.000
REMARK  Name = 25223
REMARK  3 active torsions:
REMARK  status: ('A' for Active; 'I' for Inactive)
REMARK    1  A    between atoms: C_1  and  C_3
REMARK    2  A    between atoms: C_1  and  C_9
REMARK    3  A    between atoms: C_9  and  N_12
REMARK                            x       y       z     vdW  Elec       q    Type
REMARK                         _______ _______ _______ _____ _____    ______ ____
ROOT
ATOM      1  C   UNL     1      34.783 -18.082 -21.366  0.00  0.00    +0.007 C 
ENDROOT
BRANCH   1   3
ATOM      2 CL   UNL     1      37.093 -19.852 -20.349  0.00  0.00    -0.083 Cl
ATOM      3  C   UNL     1      34.432 -19.415 -20.747  0.00  0.00    -0.014 C 
ATOM      4  C   UNL     1      35.419 -20.263 -20.267  0.00  0.00    +0.054 C 
ATOM      5  C   UNL     1      33.091 -19.759 -20.674  0.00  0.00    -0.004 C 
ATOM      6  C   UNL     1      35.056 -21.485 -19.701  0.00  0.00    +0.011 C 
ATOM      7  C   UNL     1      32.728 -20.982 -20.107  0.00  0.00    -0.000 C 
ATOM      8  C   UNL     1      33.710 -21.844 -19.621  0.00  0.00    +0.001 C 
ENDBRANCH   1   3
BRANCH   1   9
ATOM      9  C   UNL     1      35.137 -18.097 -22.876  0.00  0.00    -0.045 C 
ATOM     10  C   UNL     1      34.582 -19.336 -23.592  0.00  0.00    -0.022 C 
ATOM     11  C   UNL     1      34.670 -16.825 -23.598  0.00  0.00    -0.022 C 
BRANCH   9  12
ATOM     12  N   UNL     1      36.606 -18.149 -22.993  0.00  0.00    +0.383 N 
ATOM     13  H   UNL     1      37.025 -17.547 -22.285  0.00  0.00    -0.089 HD
ATOM     14  H   UNL     1      36.885 -17.827 -23.921  0.00  0.00    -0.089 HD
ATOM     15  H   UNL     1      36.924 -19.109 -22.858  0.00  0.00    -0.089 HD
ENDBRANCH   9  12
ENDBRANCH   1   9
TORSDOF 3
ENDMDL
MODEL 2
REMARK VINA RESULT:      -6.8      1.533      2.126
REMARK  Name = 25223
REMARK  3 active torsions:
REMARK  status: ('A' for Active; 'I' for Inactive)
REMARK    1  A    between atoms: C_1  and  C_3
REMARK    2  A    between atoms: C_1  and  C_9
REMARK    3  A    between atoms: C_9  and  N_12
REMARK                            x       y       z     vdW  Elec       q    Type
REMARK                         _______ _______ _______ _____ _____    ______ ____
ROOT
ATOM      1  C   UNL     1      34.929 -18.203 -21.301  0.00  0.00    +0.007 C 
ENDROOT
BRANCH   1   3
ATOM      2 CL   UNL     1      32.320 -19.697 -20.620  0.00  0.00    -0.083 Cl
ATOM      3  C   UNL     1      35.042 -19.552 -20.629  0.00  0.00    -0.014 C 
ATOM      4  C   UNL     1      33.911 -20.281 -20.293  0.00  0.00    +0.054 C 
ATOM      5  C   UNL     1      36.314 -20.035 -20.360  0.00  0.00    -0.004 C 
ATOM      6  C   UNL     1      34.055 -21.522 -19.674  0.00  0.00    +0.011 C 
ATOM      7  C   UNL     1      36.458 -21.277 -19.740  0.00  0.00    -0.000 C 
ATOM      8  C   UNL     1      35.329 -22.020 -19.398  0.00  0.00    +0.001 C 
ENDBRANCH   1   3
BRANCH   1   9
ATOM      9  C   UNL     1      35.339 -18.143 -22.796  0.00  0.00    -0.045 C 
ATOM     10  C   UNL     1      34.786 -19.328 -23.599  0.00  0.00    -0.022 C 
ATOM     11  C   UNL     1      34.926 -16.824 -23.463  0.00  0.00    -0.022 C 
BRANCH   9  12
ATOM     12  N   UNL     1      36.810 -18.222 -22.862  0.00  0.00    +0.383 N 
ATOM     13  H   UNL     1      37.169 -17.426 -23.389  0.00  0.00    -0.089 HD
ATOM     14  H   UNL     1      37.083 -19.089 -23.326  0.00  0.00    -0.089 HD
ATOM     15  H   UNL     1      37.194 -18.207 -21.917  0.00  0.00    -0.089 HD
ENDBRANCH   9  12
ENDBRANCH   1   9
TORSDOF 3
ENDMDL
MODEL 3
REMARK VINA RESULT:      -6.5      1.773      2.230
REMARK  Name = 25223
REMARK  3 active torsions:
REMARK  status: ('A' for Active; 'I' for Inactive)
REMARK    1  A    between atoms: C_1  and  C_3
REMARK    2  A    between atoms: C_1  and  C_9
REMARK    3  A    between atoms: C_9  and  N_12
REMARK                            x       y       z     vdW  Elec       q    Type
REMARK                         _______ _______ _______ _____ _____    ______ ____
ROOT
ATOM      1  C   UNL     1      34.236 -17.642 -22.213  0.00  0.00    +0.007 C 
ENDROOT
BRANCH   1   3
ATOM      2 CL   UNL     1      37.028 -18.803 -21.611  0.00  0.00    -0.083 Cl
ATOM      3  C   UNL     1      34.316 -18.880 -21.350  0.00  0.00    -0.014 C 
ATOM      4  C   UNL     1      35.538 -19.457 -21.037  0.00  0.00    +0.054 C 
ATOM      5  C   UNL     1      33.127 -19.418 -20.881  0.00  0.00    -0.004 C 
ATOM      6  C   UNL     1      35.572 -20.599 -20.237  0.00  0.00    +0.011 C 
ATOM      7  C   UNL     1      33.161 -20.561 -20.081  0.00  0.00    -0.000 C 
ATOM      8  C   UNL     1      34.383 -21.151 -19.759  0.00  0.00    +0.001 C 
ENDBRANCH   1   3
BRANCH   1   9
ATOM      9  C   UNL     1      34.075 -16.292 -21.466  0.00  0.00    -0.045 C 
ATOM     10  C   UNL     1      34.532 -15.098 -22.315  0.00  0.00    -0.022 C 
ATOM     11  C   UNL     1      32.638 -16.063 -20.977  0.00  0.00    -0.022 C 
BRANCH   9  12
ATOM     12  N   UNL     1      34.939 -16.333 -20.272  0.00  0.00    +0.383 N 
ATOM     13  H   UNL     1      34.395 -16.648 -19.469  0.00  0.00    -0.089 HD
ATOM     14  H   UNL     1      35.309 -15.400 -20.088  0.00  0.00    -0.089 HD
ATOM     15  H   UNL     1      35.712 -16.979 -20.434  0.00  0.00    -0.089 HD
ENDBRANCH   9  12
ENDBRANCH   1   9
TORSDOF 3
ENDMDL
MODEL 4
REMARK VINA RESULT:      -6.3      2.904      4.938
REMARK  Name = 25223
REMARK  3 active torsions:
REMARK  status: ('A' for Active; 'I' for Inactive)
REMARK    1  A    between atoms: C_1  and  C_3
REMARK    2  A    between atoms: C_1  and  C_9
REMARK    3  A    between atoms: C_9  and  N_12
REMARK                            x       y       z     vdW  Elec       q    Type
REMARK                         _______ _______ _______ _____ _____    ______ ____
ROOT
ATOM      1  C   UNL     1      35.409 -17.213 -21.579  0.00  0.00    +0.007 C 
ENDROOT
BRANCH   1   3
ATOM      2 CL   UNL     1      34.615 -16.250 -24.398  0.00  0.00    -0.083 Cl
ATOM      3  C   UNL     1      34.379 -16.112 -21.686  0.00  0.00    -0.014 C 
ATOM      4  C   UNL     1      33.973 -15.629 -22.922  0.00  0.00    +0.054 C 
ATOM      5  C   UNL     1      33.853 -15.602 -20.509  0.00  0.00    -0.004 C 
ATOM      6  C   UNL     1      33.020 -14.613 -22.981  0.00  0.00    +0.011 C 
ATOM      7  C   UNL     1      32.900 -14.585 -20.568  0.00  0.00    -0.000 C 
ATOM      8  C   UNL     1      32.483 -14.091 -21.803  0.00  0.00    +0.001 C 
ENDBRANCH   1   3
BRANCH   1   9
ATOM      9  C   UNL     1      34.862 -18.663 -21.526  0.00  0.00    -0.045 C 
ATOM     10  C   UNL     1      33.435 -18.728 -20.963  0.00  0.00    -0.022 C 
ATOM     11  C   UNL     1      34.914 -19.357 -22.894  0.00  0.00    -0.022 C 
BRANCH   9  12
ATOM     12  N   UNL     1      35.725 -19.436 -20.614  0.00  0.00    +0.383 N 
ATOM     13  H   UNL     1      36.583 -19.698 -21.098  0.00  0.00    -0.089 HD
ATOM     14  H   UNL     1      35.233 -20.278 -20.313  0.00  0.00    -0.089 HD
ATOM     15  H   UNL     1      35.953 -18.867 -19.798  0.00  0.00    -0.089 HD
ENDBRANCH   9  12
ENDBRANCH   1   9
TORSDOF 3
ENDMDL
MODEL 5
REMARK VINA RESULT:      -6.3      3.167      4.547
REMARK  Name = 25223
REMARK  3 active torsions:
REMARK  status: ('A' for Active; 'I' for Inactive)
REMARK    1  A    between atoms: C_1  and  C_3
REMARK    2  A    between atoms: C_1  and  C_9
REMARK    3  A    between atoms: C_9  and  N_12
REMARK                            x       y       z     vdW  Elec       q    Type
REMARK                         _______ _______ _______ _____ _____    ______ ____
ROOT
ATOM      1  C   UNL     1      34.945 -15.078 -23.468  0.00  0.00    +0.007 C 
ENDROOT
BRANCH   1   3
ATOM      2 CL   UNL     1      34.971 -16.673 -20.830  0.00  0.00    -0.083 Cl
ATOM      3  C   UNL     1      34.805 -16.581 -23.549  0.00  0.00    -0.014 C 
ATOM      4  C   UNL     1      34.808 -17.363 -22.404  0.00  0.00    +0.054 C 
ATOM      5  C   UNL     1      34.673 -17.150 -24.807  0.00  0.00    -0.004 C 
ATOM      6  C   UNL     1      34.675 -18.746 -22.519  0.00  0.00    +0.011 C 
ATOM      7  C   UNL     1      34.541 -18.534 -24.922  0.00  0.00    -0.000 C 
ATOM      8  C   UNL     1      34.541 -19.332 -23.778  0.00  0.00    +0.001 C 
ENDBRANCH   1   3
BRANCH   1   9
ATOM      9  C   UNL     1      33.642 -14.255 -23.636  0.00  0.00    -0.045 C 
ATOM     10  C   UNL     1      32.969 -14.500 -24.995  0.00  0.00    -0.022 C 
ATOM     11  C   UNL     1      32.638 -14.514 -22.504  0.00  0.00    -0.022 C 
BRANCH   9  12
ATOM     12  N   UNL     1      34.001 -12.827 -23.581  0.00  0.00    +0.383 N 
ATOM     13  H   UNL     1      33.152 -12.265 -23.515  0.00  0.00    -0.089 HD
ATOM     14  H   UNL     1      34.513 -12.572 -24.425  0.00  0.00    -0.089 HD
ATOM     15  H   UNL     1      34.587 -12.655 -22.763  0.00  0.00    -0.089 HD
ENDBRANCH   9  12
ENDBRANCH   1   9
TORSDOF 3
ENDMDL
MODEL 6
REMARK VINA RESULT:      -6.3      2.267      3.150
REMARK  Name = 25223
REMARK  3 active torsions:
REMARK  status: ('A' for Active; 'I' for Inactive)
REMARK    1  A    between atoms: C_1  and  C_3
REMARK    2  A    between atoms: C_1  and  C_9
REMARK    3  A    between atoms: C_9  and  N_12
REMARK                            x       y       z     vdW  Elec       q    Type
REMARK                         _______ _______ _______ _____ _____    ______ ____
ROOT
ATOM      1  C   UNL     1      34.207 -17.630 -22.149  0.00  0.00    +0.007 C 
ENDROOT
BRANCH   1   3
ATOM      2 CL   UNL     1      32.505 -19.802 -20.775  0.00  0.00    -0.083 Cl
ATOM      3  C   UNL     1      34.929 -18.716 -21.386  0.00  0.00    -0.014 C 
ATOM      4  C   UNL     1      34.229 -19.726 -20.743  0.00  0.00    +0.054 C 
ATOM      5  C   UNL     1      36.314 -18.669 -21.351  0.00  0.00    -0.004 C 
ATOM      6  C   UNL     1      34.930 -20.712 -20.049  0.00  0.00    +0.011 C 
ATOM      7  C   UNL     1      37.016 -19.654 -20.656  0.00  0.00    -0.000 C 
ATOM      8  C   UNL     1      36.325 -20.676 -20.006  0.00  0.00    +0.001 C 
ENDBRANCH   1   3
BRANCH   1   9
ATOM      9  C   UNL     1      34.063 -16.263 -21.431  0.00  0.00    -0.045 C 
ATOM     10  C   UNL     1      34.523 -15.092 -22.309  0.00  0.00    -0.022 C 
ATOM     11  C   UNL     1      32.632 -16.012 -20.934  0.00  0.00    -0.022 C 
BRANCH   9  12
ATOM     12  N   UNL     1      34.937 -16.285 -20.244  0.00  0.00    +0.383 N 
ATOM     13  H   UNL     1      35.907 -16.160 -20.533  0.00  0.00    -0.089 HD
ATOM     14  H   UNL     1      34.838 -17.181 -19.765  0.00  0.00    -0.089 HD
ATOM     15  H   UNL     1      34.670 -15.531 -19.611  0.00  0.00    -0.089 HD
ENDBRANCH   9  12
ENDBRANCH   1   9
TORSDOF 3
ENDMDL
MODEL 7
REMARK VINA RESULT:      -6.2      3.027      4.189
REMARK  Name = 25223
REMARK  3 active torsions:
REMARK  status: ('A' for Active; 'I' for Inactive)
REMARK    1  A    between atoms: C_1  and  C_3
REMARK    2  A    between atoms: C_1  and  C_9
REMARK    3  A    between atoms: C_9  and  N_12
REMARK                            x       y       z     vdW  Elec       q    Type
REMARK                         _______ _______ _______ _____ _____    ______ ____
ROOT
ATOM      1  C   UNL     1      35.083 -15.425 -23.319  0.00  0.00    +0.007 C 
ENDROOT
BRANCH   1   3
ATOM      2 CL   UNL     1      34.685 -17.591 -25.475  0.00  0.00    -0.083 Cl
ATOM      3  C   UNL     1      34.917 -16.856 -22.861  0.00  0.00    -0.014 C 
ATOM      4  C   UNL     1      34.734 -17.883 -23.775  0.00  0.00    +0.054 C 
ATOM      5  C   UNL     1      34.954 -17.106 -21.498  0.00  0.00    -0.004 C 
ATOM      6  C   UNL     1      34.585 -19.191 -23.315  0.00  0.00    +0.011 C 
ATOM      7  C   UNL     1      34.804 -18.414 -21.037  0.00  0.00    -0.000 C 
ATOM      8  C   UNL     1      34.620 -19.456 -21.946  0.00  0.00    +0.001 C 
ENDBRANCH   1   3
BRANCH   1   9
ATOM      9  C   UNL     1      33.787 -14.580 -23.422  0.00  0.00    -0.045 C 
ATOM     10  C   UNL     1      33.114 -14.712 -24.796  0.00  0.00    -0.022 C 
ATOM     11  C   UNL     1      32.779 -14.919 -22.314  0.00  0.00    -0.022 C 
BRANCH   9  12
ATOM     12  N   UNL     1      34.158 -13.164 -23.254  0.00  0.00    +0.383 N 
ATOM     13  H   UNL     1      34.470 -13.005 -22.296  0.00  0.00    -0.089 HD
ATOM     14  H   UNL     1      33.349 -12.574 -23.450  0.00  0.00    -0.089 HD
ATOM     15  H   UNL     1      34.912 -12.931 -23.901  0.00  0.00    -0.089 HD
ENDBRANCH   9  12
ENDBRANCH   1   9
TORSDOF 3
ENDMDL
MODEL 8
REMARK VINA RESULT:      -6.2      2.855      5.590
REMARK  Name = 25223
REMARK  3 active torsions:
REMARK  status: ('A' for Active; 'I' for Inactive)
REMARK    1  A    between atoms: C_1  and  C_3
REMARK    2  A    between atoms: C_1  and  C_9
REMARK    3  A    between atoms: C_9  and  N_12
REMARK                            x       y       z     vdW  Elec       q    Type
REMARK                         _______ _______ _______ _____ _____    ______ ____
ROOT
ATOM      1  C   UNL     1      35.602 -17.043 -22.700  0.00  0.00    +0.007 C 
ENDROOT
BRANCH   1   3
ATOM      2 CL   UNL     1      34.478 -17.901 -25.439  0.00  0.00    -0.083 Cl
ATOM      3  C   UNL     1      34.758 -16.047 -23.462  0.00  0.00    -0.014 C 
ATOM      4  C   UNL     1      34.219 -16.364 -24.700  0.00  0.00    +0.054 C 
ATOM      5  C   UNL     1      34.542 -14.807 -22.880  0.00  0.00    -0.004 C 
ATOM      6  C   UNL     1      33.445 -15.418 -25.372  0.00  0.00    +0.011 C 
ATOM      7  C   UNL     1      33.768 -13.861 -23.553  0.00  0.00    -0.000 C 
ATOM      8  C   UNL     1      33.220 -14.167 -24.799  0.00  0.00    +0.001 C 
ENDBRANCH   1   3
BRANCH   1   9
ATOM      9  C   UNL     1      34.848 -17.966 -21.708  0.00  0.00    -0.045 C 
ATOM     10  C   UNL     1      33.628 -17.276 -21.081  0.00  0.00    -0.022 C 
ATOM     11  C   UNL     1      34.421 -19.292 -22.353  0.00  0.00    -0.022 C 
BRANCH   9  12
ATOM     12  N   UNL     1      35.773 -18.296 -20.608  0.00  0.00    +0.383 N 
ATOM     13  H   UNL     1      36.338 -19.103 -20.870  0.00  0.00    -0.089 HD
ATOM     14  H   UNL     1      35.237 -18.514 -19.767  0.00  0.00    -0.089 HD
ATOM     15  H   UNL     1      36.382 -17.498 -20.426  0.00  0.00    -0.089 HD
ENDBRANCH   9  12
ENDBRANCH   1   9
TORSDOF 3
ENDMDL
MODEL 9
REMARK VINA RESULT:      -6.1      2.589      5.135
REMARK  Name = 25223
REMARK  3 active torsions:
REMARK  status: ('A' for Active; 'I' for Inactive)
REMARK    1  A    between atoms: C_1  and  C_3
REMARK    2  A    between atoms: C_1  and  C_9
REMARK    3  A    between atoms: C_9  and  N_12
REMARK                            x       y       z     vdW  Elec       q    Type
REMARK                         _______ _______ _______ _____ _____    ______ ____
ROOT
ATOM      1  C   UNL     1      35.230 -17.278 -21.438  0.00  0.00    +0.007 C 
ENDROOT
BRANCH   1   3
ATOM      2 CL   UNL     1      33.257 -15.191 -20.315  0.00  0.00    -0.083 Cl
ATOM      3  C   UNL     1      34.533 -16.364 -22.419  0.00  0.00    -0.014 C 
ATOM      4  C   UNL     1      33.633 -15.401 -21.987  0.00  0.00    +0.054 C 
ATOM      5  C   UNL     1      34.825 -16.521 -23.766  0.00  0.00    -0.004 C 
ATOM      6  C   UNL     1      33.011 -14.576 -22.922  0.00  0.00    +0.011 C 
ATOM      7  C   UNL     1      34.202 -15.695 -24.702  0.00  0.00    -0.000 C 
ATOM      8  C   UNL     1      33.295 -14.723 -24.281  0.00  0.00    +0.001 C 
ENDBRANCH   1   3
BRANCH   1   9
ATOM      9  C   UNL     1      34.765 -18.757 -21.426  0.00  0.00    -0.045 C 
ATOM     10  C   UNL     1      33.334 -18.914 -20.894  0.00  0.00    -0.022 C 
ATOM     11  C   UNL     1      34.883 -19.417 -22.807  0.00  0.00    -0.022 C 
BRANCH   9  12
ATOM     12  N   UNL     1      35.652 -19.500 -20.512  0.00  0.00    +0.383 N 
ATOM     13  H   UNL     1      35.768 -18.972 -19.647  0.00  0.00    -0.089 HD
ATOM     14  H   UNL     1      36.562 -19.633 -20.955  0.00  0.00    -0.089 HD
ATOM     15  H   UNL     1      35.240 -20.410 -20.304  0.00  0.00    -0.089 HD
ENDBRANCH   9  12
ENDBRANCH   1   9
TORSDOF 3
ENDMDL
