MODEL 1
REMARK VINA RESULT:      -8.1      0.000      0.000
REMARK  Name = 5226
REMARK  2 active torsions:
REMARK  status: ('A' for Active; 'I' for Inactive)
REMARK    1  A    between atoms: C_8  and  S_13
REMARK    2  A    between atoms: S_13  and  N_16
REMARK                            x       y       z     vdW  Elec       q    Type
REMARK                         _______ _______ _______ _____ _____    ______ ____
ROOT
ATOM      1  N   UNL     1      36.617 -18.286 -22.168  0.00  0.00    +0.387 N 
ATOM      2  C   UNL     1      34.118 -19.147 -21.107  0.00  0.00    -0.030 C 
ATOM      3  C   UNL     1      35.296 -19.787 -20.681  0.00  0.00    -0.046 C 
ATOM      4  C   UNL     1      34.194 -17.931 -21.995  0.00  0.00    +0.003 C 
ATOM      5  C   UNL     1      36.647 -19.213 -21.030  0.00  0.00    -0.055 C 
ATOM      6  C   UNL     1      35.576 -17.276 -21.977  0.00  0.00    -0.077 C 
ATOM      7  C   UNL     1      35.208 -20.929 -19.875  0.00  0.00    +0.013 C 
ATOM      8  C   UNL     1      33.962 -21.447 -19.519  0.00  0.00    +0.121 C 
ATOM      9  C   UNL     1      32.873 -19.681 -20.754  0.00  0.00    -0.003 C 
ATOM     10  C   UNL     1      32.797 -20.825 -19.959  0.00  0.00    +0.020 C 
ATOM     11  H   UNL     1      36.425 -18.809 -23.022  0.00  0.00    -0.084 HD
ATOM     12  H   UNL     1      37.521 -17.820 -22.237  0.00  0.00    -0.084 HD
ENDROOT
BRANCH   8  13
ATOM     13  S   UNL     1      33.867 -22.876 -18.519  0.00  0.00    +0.057 S 
ATOM     14  O   UNL     1      33.819 -24.043 -19.388  0.00  0.00    -0.153 OA
ATOM     15  O   UNL     1      34.889 -22.785 -17.485  0.00  0.00    -0.153 OA
BRANCH  13  16
ATOM     16  N   UNL     1      32.334 -22.664 -17.795  0.00  0.00    -0.203 NA
ATOM     17  H   UNL     1      32.049 -21.689 -17.883  0.00  0.00    +0.144 HD
ATOM     18  H   UNL     1      32.387 -22.915 -16.808  0.00  0.00    +0.144 HD
ENDBRANCH  13  16
ENDBRANCH   8  13
TORSDOF 2
ENDMDL
MODEL 2
REMARK VINA RESULT:      -8.0      1.352      2.294
REMARK  Name = 5226
REMARK  2 active torsions:
REMARK  status: ('A' for Active; 'I' for Inactive)
REMARK    1  A    between atoms: C_8  and  S_13
REMARK    2  A    between atoms: S_13  and  N_16
REMARK                            x       y       z     vdW  Elec       q    Type
REMARK                         _______ _______ _______ _____ _____    ______ ____
ROOT
ATOM      1  N   UNL     1      34.395 -17.618 -21.817  0.00  0.00    +0.387 N 
ATOM      2  C   UNL     1      35.804 -19.824 -20.696  0.00  0.00    -0.030 C 
ATOM      3  C   UNL     1      34.398 -19.823 -20.657  0.00  0.00    -0.046 C 
ATOM      4  C   UNL     1      36.543 -18.748 -21.450  0.00  0.00    +0.003 C 
ATOM      5  C   UNL     1      33.613 -18.802 -21.442  0.00  0.00    -0.055 C 
ATOM      6  C   UNL     1      35.651 -18.015 -22.453  0.00  0.00    -0.077 C 
ATOM      7  C   UNL     1      33.727 -20.817 -19.934  0.00  0.00    +0.013 C 
ATOM      8  C   UNL     1      34.445 -21.786 -19.233  0.00  0.00    +0.121 C 
ATOM      9  C   UNL     1      36.516 -20.794 -19.980  0.00  0.00    -0.003 C 
ATOM     10  C   UNL     1      35.838 -21.773 -19.254  0.00  0.00    +0.020 C 
ATOM     11  H   UNL     1      34.600 -17.072 -20.979  0.00  0.00    -0.084 HD
ATOM     12  H   UNL     1      33.853 -17.060 -22.476  0.00  0.00    -0.084 HD
ENDROOT
BRANCH   8  13
ATOM     13  S   UNL     1      33.597 -23.016 -18.329  0.00  0.00    +0.057 S 
ATOM     14  O   UNL     1      32.274 -22.508 -17.993  0.00  0.00    -0.153 OA
ATOM     15  O   UNL     1      33.727 -24.282 -19.037  0.00  0.00    -0.153 OA
BRANCH  13  16
ATOM     16  N   UNL     1      34.540 -23.084 -16.907  0.00  0.00    -0.203 NA
ATOM     17  H   UNL     1      35.346 -22.467 -17.004  0.00  0.00    +0.144 HD
ATOM     18  H   UNL     1      34.861 -24.041 -16.757  0.00  0.00    +0.144 HD
ENDBRANCH  13  16
ENDBRANCH   8  13
TORSDOF 2
ENDMDL
MODEL 3
REMARK VINA RESULT:      -7.5      4.108      5.696
REMARK  Name = 5226
REMARK  2 active torsions:
REMARK  status: ('A' for Active; 'I' for Inactive)
REMARK    1  A    between atoms: C_8  and  S_13
REMARK    2  A    between atoms: S_13  and  N_16
REMARK                            x       y       z     vdW  Elec       q    Type
REMARK                         _______ _______ _______ _____ _____    ______ ____
ROOT
ATOM      1  N   UNL     1      33.086 -22.064 -19.861  0.00  0.00    +0.387 N 
ATOM      2  C   UNL     1      35.262 -20.311 -20.412  0.00  0.00    -0.030 C 
ATOM      3  C   UNL     1      33.949 -19.812 -20.489  0.00  0.00    -0.046 C 
ATOM      4  C   UNL     1      35.515 -21.707 -19.901  0.00  0.00    +0.003 C 
ATOM      5  C   UNL     1      32.789 -20.631 -19.979  0.00  0.00    -0.055 C 
ATOM      6  C   UNL     1      34.328 -22.269 -19.117  0.00  0.00    -0.077 C 
ATOM      7  C   UNL     1      33.729 -18.521 -20.986  0.00  0.00    +0.013 C 
ATOM      8  C   UNL     1      34.800 -17.743 -21.428  0.00  0.00    +0.121 C 
ATOM      9  C   UNL     1      36.329 -19.527 -20.868  0.00  0.00    -0.003 C 
ATOM     10  C   UNL     1      36.097 -18.246 -21.371  0.00  0.00    +0.020 C 
ATOM     11  H   UNL     1      33.184 -22.464 -20.795  0.00  0.00    -0.084 HD
ATOM     12  H   UNL     1      32.323 -22.519 -19.361  0.00  0.00    -0.084 HD
ENDROOT
BRANCH   8  13
ATOM     13  S   UNL     1      34.511 -16.138 -22.052  0.00  0.00    +0.057 S 
ATOM     14  O   UNL     1      35.464 -15.883 -23.123  0.00  0.00    -0.153 OA
ATOM     15  O   UNL     1      33.084 -15.990 -22.303  0.00  0.00    -0.153 OA
BRANCH  13  16
ATOM     16  N   UNL     1      34.932 -15.183 -20.699  0.00  0.00    -0.203 NA
ATOM     17  H   UNL     1      35.569 -14.442 -20.992  0.00  0.00    +0.144 HD
ATOM     18  H   UNL     1      35.388 -15.767 -19.999  0.00  0.00    +0.144 HD
ENDBRANCH  13  16
ENDBRANCH   8  13
TORSDOF 2
ENDMDL
MODEL 4
REMARK VINA RESULT:      -7.4      3.565      5.147
REMARK  Name = 5226
REMARK  2 active torsions:
REMARK  status: ('A' for Active; 'I' for Inactive)
REMARK    1  A    between atoms: C_8  and  S_13
REMARK    2  A    between atoms: S_13  and  N_16
REMARK                            x       y       z     vdW  Elec       q    Type
REMARK                         _______ _______ _______ _____ _____    ______ ____
ROOT
ATOM      1  N   UNL     1      35.345 -22.305 -17.823  0.00  0.00    +0.387 N 
ATOM      2  C   UNL     1      33.717 -21.005 -19.764  0.00  0.00    -0.030 C 
ATOM      3  C   UNL     1      35.115 -20.861 -19.840  0.00  0.00    -0.046 C 
ATOM      4  C   UNL     1      33.105 -21.951 -18.763  0.00  0.00    +0.003 C 
ATOM      5  C   UNL     1      36.018 -21.716 -18.986  0.00  0.00    -0.055 C 
ATOM      6  C   UNL     1      34.110 -22.974 -18.231  0.00  0.00    -0.077 C 
ATOM      7  C   UNL     1      35.667 -19.962 -20.760  0.00  0.00    +0.013 C 
ATOM      8  C   UNL     1      34.839 -19.191 -21.578  0.00  0.00    +0.121 C 
ATOM      9  C   UNL     1      32.895 -20.220 -20.581  0.00  0.00    -0.003 C 
ATOM     10  C   UNL     1      33.455 -19.319 -21.487  0.00  0.00    +0.020 C 
ATOM     11  H   UNL     1      35.122 -21.568 -17.154  0.00  0.00    -0.084 HD
ATOM     12  H   UNL     1      35.966 -22.992 -17.395  0.00  0.00    -0.084 HD
ENDROOT
BRANCH   8  13
ATOM     13  S   UNL     1      35.541 -18.069 -22.716  0.00  0.00    +0.057 S 
ATOM     14  O   UNL     1      35.202 -18.508 -24.063  0.00  0.00    -0.153 OA
ATOM     15  O   UNL     1      35.210 -16.715 -22.293  0.00  0.00    -0.153 OA
BRANCH  13  16
ATOM     16  N   UNL     1      37.207 -18.334 -22.451  0.00  0.00    -0.203 NA
ATOM     17  H   UNL     1      37.713 -18.220 -23.330  0.00  0.00    +0.144 HD
ATOM     18  H   UNL     1      37.348 -19.280 -22.098  0.00  0.00    +0.144 HD
ENDBRANCH  13  16
ENDBRANCH   8  13
TORSDOF 2
ENDMDL
MODEL 5
REMARK VINA RESULT:      -7.4      5.899      7.322
REMARK  Name = 5226
REMARK  2 active torsions:
REMARK  status: ('A' for Active; 'I' for Inactive)
REMARK    1  A    between atoms: C_8  and  S_13
REMARK    2  A    between atoms: S_13  and  N_16
REMARK                            x       y       z     vdW  Elec       q    Type
REMARK                         _______ _______ _______ _____ _____    ______ ____
ROOT
ATOM      1  N   UNL     1      34.706 -23.125 -16.277  0.00  0.00    +0.387 N 
ATOM      2  C   UNL     1      32.405 -23.699 -14.701  0.00  0.00    -0.030 C 
ATOM      3  C   UNL     1      32.234 -23.338 -16.050  0.00  0.00    -0.046 C 
ATOM      4  C   UNL     1      33.788 -23.923 -14.144  0.00  0.00    +0.003 C 
ATOM      5  C   UNL     1      33.422 -23.259 -16.976  0.00  0.00    -0.055 C 
ATOM      6  C   UNL     1      34.832 -24.148 -15.239  0.00  0.00    -0.077 C 
ATOM      7  C   UNL     1      30.944 -23.113 -16.546  0.00  0.00    +0.013 C 
ATOM      8  C   UNL     1      29.836 -23.218 -15.704  0.00  0.00    +0.121 C 
ATOM      9  C   UNL     1      31.288 -23.791 -13.862  0.00  0.00    -0.003 C 
ATOM     10  C   UNL     1      30.008 -23.554 -14.363  0.00  0.00    +0.020 C 
ATOM     11  H   UNL     1      34.760 -22.202 -15.847  0.00  0.00    -0.084 HD
ATOM     12  H   UNL     1      35.462 -23.244 -16.951  0.00  0.00    -0.084 HD
ENDROOT
BRANCH   8  13
ATOM     13  S   UNL     1      28.233 -22.927 -16.333  0.00  0.00    +0.057 S 
ATOM     14  O   UNL     1      27.301 -22.890 -15.216  0.00  0.00    -0.153 OA
ATOM     15  O   UNL     1      28.297 -21.806 -17.260  0.00  0.00    -0.153 OA
BRANCH  13  16
ATOM     16  N   UNL     1      27.969 -24.361 -17.225  0.00  0.00    -0.203 NA
ATOM     17  H   UNL     1      28.333 -24.244 -18.170  0.00  0.00    +0.144 HD
ATOM     18  H   UNL     1      26.969 -24.555 -17.267  0.00  0.00    +0.144 HD
ENDBRANCH  13  16
ENDBRANCH   8  13
TORSDOF 2
ENDMDL
MODEL 6
REMARK VINA RESULT:      -7.3      4.143      5.668
REMARK  Name = 5226
REMARK  2 active torsions:
REMARK  status: ('A' for Active; 'I' for Inactive)
REMARK    1  A    between atoms: C_8  and  S_13
REMARK    2  A    between atoms: S_13  and  N_16
REMARK                            x       y       z     vdW  Elec       q    Type
REMARK                         _______ _______ _______ _____ _____    ______ ____
ROOT
ATOM      1  N   UNL     1      32.959 -22.334 -18.648  0.00  0.00    +0.387 N 
ATOM      2  C   UNL     1      35.639 -22.193 -17.699  0.00  0.00    -0.030 C 
ATOM      3  C   UNL     1      34.690 -22.914 -16.953  0.00  0.00    -0.046 C 
ATOM      4  C   UNL     1      35.277 -21.632 -19.050  0.00  0.00    +0.003 C 
ATOM      5  C   UNL     1      33.330 -23.214 -17.533  0.00  0.00    -0.055 C 
ATOM      6  C   UNL     1      34.030 -22.291 -19.644  0.00  0.00    -0.077 C 
ATOM      7  C   UNL     1      35.036 -23.409 -15.690  0.00  0.00    +0.013 C 
ATOM      8  C   UNL     1      36.304 -23.167 -15.159  0.00  0.00    +0.121 C 
ATOM      9  C   UNL     1      36.905 -21.945 -17.153  0.00  0.00    -0.003 C 
ATOM     10  C   UNL     1      37.236 -22.434 -15.890  0.00  0.00    +0.020 C 
ATOM     11  H   UNL     1      32.792 -21.393 -18.293  0.00  0.00    -0.084 HD
ATOM     12  H   UNL     1      32.114 -22.699 -19.089  0.00  0.00    -0.084 HD
ENDROOT
BRANCH   8  13
ATOM     13  S   UNL     1      36.720 -23.784 -13.580  0.00  0.00    +0.057 S 
ATOM     14  O   UNL     1      36.901 -25.225 -13.683  0.00  0.00    -0.153 OA
ATOM     15  O   UNL     1      37.786 -22.959 -13.028  0.00  0.00    -0.153 OA
BRANCH  13  16
ATOM     16  N   UNL     1      35.280 -23.469 -12.717  0.00  0.00    -0.203 NA
ATOM     17  H   UNL     1      34.943 -22.534 -12.948  0.00  0.00    +0.144 HD
ATOM     18  H   UNL     1      35.464 -23.526 -11.716  0.00  0.00    +0.144 HD
ENDBRANCH  13  16
ENDBRANCH   8  13
TORSDOF 2
ENDMDL
MODEL 7
REMARK VINA RESULT:      -7.2      4.623      5.918
REMARK  Name = 5226
REMARK  2 active torsions:
REMARK  status: ('A' for Active; 'I' for Inactive)
REMARK    1  A    between atoms: C_8  and  S_13
REMARK    2  A    between atoms: S_13  and  N_16
REMARK                            x       y       z     vdW  Elec       q    Type
REMARK                         _______ _______ _______ _____ _____    ______ ____
ROOT
ATOM      1  N   UNL     1      33.451 -13.045 -25.173  0.00  0.00    +0.387 N 
ATOM      2  C   UNL     1      33.872 -15.861 -25.128  0.00  0.00    -0.030 C 
ATOM      3  C   UNL     1      33.981 -15.136 -23.927  0.00  0.00    -0.046 C 
ATOM      4  C   UNL     1      33.395 -15.179 -26.385  0.00  0.00    +0.003 C 
ATOM      5  C   UNL     1      33.536 -13.696 -23.861  0.00  0.00    -0.055 C 
ATOM      6  C   UNL     1      32.670 -13.863 -26.101  0.00  0.00    -0.077 C 
ATOM      7  C   UNL     1      34.447 -15.778 -22.773  0.00  0.00    +0.013 C 
ATOM      8  C   UNL     1      34.827 -17.120 -22.817  0.00  0.00    +0.121 C 
ATOM      9  C   UNL     1      34.267 -17.204 -25.165  0.00  0.00    -0.003 C 
ATOM     10  C   UNL     1      34.740 -17.831 -24.012  0.00  0.00    +0.020 C 
ATOM     11  H   UNL     1      34.392 -12.919 -25.548  0.00  0.00    -0.084 HD
ATOM     12  H   UNL     1      32.992 -12.141 -25.064  0.00  0.00    -0.084 HD
ENDROOT
BRANCH   8  13
ATOM     13  S   UNL     1      35.413 -17.908 -21.373  0.00  0.00    +0.057 S 
ATOM     14  O   UNL     1      36.640 -18.618 -21.703  0.00  0.00    -0.153 OA
ATOM     15  O   UNL     1      35.408 -16.940 -20.285  0.00  0.00    -0.153 OA
BRANCH  13  16
ATOM     16  N   UNL     1      34.171 -19.049 -21.098  0.00  0.00    -0.203 NA
ATOM     17  H   UNL     1      33.471 -18.972 -21.835  0.00  0.00    +0.144 HD
ATOM     18  H   UNL     1      33.736 -18.866 -20.194  0.00  0.00    +0.144 HD
ENDBRANCH  13  16
ENDBRANCH   8  13
TORSDOF 2
ENDMDL
MODEL 8
REMARK VINA RESULT:      -7.1      6.416      7.982
REMARK  Name = 5226
REMARK  2 active torsions:
REMARK  status: ('A' for Active; 'I' for Inactive)
REMARK    1  A    between atoms: C_8  and  S_13
REMARK    2  A    between atoms: S_13  and  N_16
REMARK                            x       y       z     vdW  Elec       q    Type
REMARK                         _______ _______ _______ _____ _____    ______ ____
ROOT
ATOM      1  N   UNL     1      31.523 -22.957 -15.560  0.00  0.00    +0.387 N 
ATOM      2  C   UNL     1      34.309 -23.540 -15.477  0.00  0.00    -0.030 C 
ATOM      3  C   UNL     1      33.527 -23.789 -14.335  0.00  0.00    -0.046 C 
ATOM      4  C   UNL     1      33.656 -23.113 -16.767  0.00  0.00    +0.003 C 
ATOM      5  C   UNL     1      32.022 -23.721 -14.410  0.00  0.00    -0.055 C 
ATOM      6  C   UNL     1      32.157 -23.419 -16.794  0.00  0.00    -0.077 C 
ATOM      7  C   UNL     1      34.152 -24.163 -13.138  0.00  0.00    +0.013 C 
ATOM      8  C   UNL     1      35.542 -24.262 -13.069  0.00  0.00    +0.121 C 
ATOM      9  C   UNL     1      35.705 -23.631 -15.394  0.00  0.00    -0.003 C 
ATOM     10  C   UNL     1      36.317 -23.994 -14.195  0.00  0.00    +0.020 C 
ATOM     11  H   UNL     1      31.735 -21.969 -15.423  0.00  0.00    -0.084 HD
ATOM     12  H   UNL     1      30.516 -23.095 -15.635  0.00  0.00    -0.084 HD
ENDROOT
BRANCH   8  13
ATOM     13  S   UNL     1      36.309 -24.722 -11.569  0.00  0.00    +0.057 S 
ATOM     14  O   UNL     1      37.350 -23.750 -11.268  0.00  0.00    -0.153 OA
ATOM     15  O   UNL     1      35.271 -24.999 -10.585  0.00  0.00    -0.153 OA
BRANCH  13  16
ATOM     16  N   UNL     1      37.044 -26.197 -12.019  0.00  0.00    -0.203 NA
ATOM     17  H   UNL     1      37.746 -26.452 -11.325  0.00  0.00    +0.144 HD
ATOM     18  H   UNL     1      37.490 -26.090 -12.930  0.00  0.00    +0.144 HD
ENDBRANCH  13  16
ENDBRANCH   8  13
TORSDOF 2
ENDMDL
MODEL 9
REMARK VINA RESULT:      -7.0      4.633      6.898
REMARK  Name = 5226
REMARK  2 active torsions:
REMARK  status: ('A' for Active; 'I' for Inactive)
REMARK    1  A    between atoms: C_8  and  S_13
REMARK    2  A    between atoms: S_13  and  N_16
REMARK                            x       y       z     vdW  Elec       q    Type
REMARK                         _______ _______ _______ _____ _____    ______ ____
ROOT
ATOM      1  N   UNL     1      34.928 -24.751 -12.873  0.00  0.00    +0.387 N 
ATOM      2  C   UNL     1      36.028 -23.088 -14.907  0.00  0.00    -0.030 C 
ATOM      3  C   UNL     1      34.730 -23.602 -15.075  0.00  0.00    -0.046 C 
ATOM      4  C   UNL     1      36.763 -23.293 -13.606  0.00  0.00    +0.003 C 
ATOM      5  C   UNL     1      34.023 -24.283 -13.929  0.00  0.00    -0.055 C 
ATOM      6  C   UNL     1      35.828 -23.675 -12.458  0.00  0.00    -0.077 C 
ATOM      7  C   UNL     1      34.069 -23.422 -16.297  0.00  0.00    +0.013 C 
ATOM      8  C   UNL     1      34.702 -22.763 -17.351  0.00  0.00    +0.121 C 
ATOM      9  C   UNL     1      36.660 -22.438 -15.974  0.00  0.00    -0.003 C 
ATOM     10  C   UNL     1      35.997 -22.273 -17.190  0.00  0.00    +0.020 C 
ATOM     11  H   UNL     1      35.481 -25.533 -13.226  0.00  0.00    -0.084 HD
ATOM     12  H   UNL     1      34.374 -25.046 -12.070  0.00  0.00    -0.084 HD
ENDROOT
BRANCH   8  13
ATOM     13  S   UNL     1      33.871 -22.551 -18.871  0.00  0.00    +0.057 S 
ATOM     14  O   UNL     1      34.065 -23.751 -19.673  0.00  0.00    -0.153 OA
ATOM     15  O   UNL     1      32.521 -22.076 -18.598  0.00  0.00    -0.153 OA
BRANCH  13  16
ATOM     16  N   UNL     1      34.772 -21.274 -19.561  0.00  0.00    -0.203 NA
ATOM     17  H   UNL     1      35.747 -21.351 -19.270  0.00  0.00    +0.144 HD
ATOM     18  H   UNL     1      34.392 -20.381 -19.246  0.00  0.00    +0.144 HD
ENDBRANCH  13  16
ENDBRANCH   8  13
TORSDOF 2
ENDMDL
