MODEL 1
REMARK VINA RESULT:      -9.1      0.000      0.000
REMARK  Name = 12544
REMARK  9 active torsions:
REMARK  status: ('A' for Active; 'I' for Inactive)
REMARK    1  A    between atoms: C_6  and  C_24
REMARK    2  A    between atoms: C_10  and  O_20
REMARK    3  A    between atoms: C_19  and  O_22
REMARK    4  A    between atoms: C_24  and  C_26
REMARK    5  A    between atoms: C_26  and  C_27
REMARK    6  A    between atoms: C_27  and  C_30
REMARK    7  A    between atoms: N_29  and  C_32
REMARK    8  A    between atoms: C_32  and  C_34
REMARK    9  A    between atoms: C_34  and  O_35
REMARK                            x       y       z     vdW  Elec       q    Type
REMARK                         _______ _______ _______ _____ _____    ______ ____
ROOT
ATOM      1  C   UNL     1      34.511 -16.570 -23.864  0.00  0.00    +0.002 C 
ATOM      2  C   UNL     1      34.611 -16.754 -22.335  0.00  0.00    +0.000 C 
ATOM      3  C   UNL     1      33.531 -15.461 -24.276  0.00  0.00    +0.027 C 
ATOM      4  C   UNL     1      34.016 -14.110 -23.648  0.00  0.00    +0.002 C 
ATOM      5  C   UNL     1      33.059 -12.915 -24.024  0.00  0.00    +0.000 C 
ATOM      6  C   UNL     1      35.593 -17.950 -22.293  0.00  0.00    +0.000 C 
ATOM      7  C   UNL     1      32.941 -12.818 -25.581  0.00  0.00    +0.005 C 
ATOM      8  C   UNL     1      35.164 -15.450 -21.747  0.00  0.00    +0.000 C 
ATOM      9  C   UNL     1      34.288 -14.241 -22.123  0.00  0.00    +0.000 C 
ATOM     10  C   UNL     1      33.368 -15.360 -25.804  0.00  0.00    +0.110 C 
ATOM     11  C   UNL     1      34.275 -17.988 -24.380  0.00  0.00    +0.000 C 
ATOM     12  C   UNL     1      35.089 -18.878 -23.424  0.00  0.00    +0.000 C 
ATOM     13  C   UNL     1      32.520 -14.155 -26.223  0.00  0.00    +0.029 C 
ATOM     14  C   UNL     1      33.563 -11.547 -23.475  0.00  0.00    +0.002 C 
ATOM     15  C   UNL     1      33.269 -17.109 -21.648  0.00  0.00    +0.000 C 
ATOM     16  C   UNL     1      34.216 -12.258 -26.246  0.00  0.00    +0.029 C 
ATOM     17  C   UNL     1      31.645 -13.117 -23.416  0.00  0.00    +0.000 C 
ATOM     18  C   UNL     1      34.837 -11.042 -24.139  0.00  0.00    +0.029 C 
ATOM     19  C   UNL     1      34.650 -10.925 -25.645  0.00  0.00    +0.111 C 
ENDROOT
BRANCH  10  20
ATOM     20  O   UNL     1      34.643 -15.308 -26.436  0.00  0.00    -0.384 OA
ATOM     21  H   UNL     1      34.587 -15.722 -27.312  0.00  0.00    +0.210 HD
ENDBRANCH  10  20
BRANCH  19  22
ATOM     22  O   UNL     1      35.885 -10.517 -26.224  0.00  0.00    -0.384 OA
ATOM     23  H   UNL     1      35.828  -9.584 -26.483  0.00  0.00    +0.210 HD
ENDBRANCH  19  22
BRANCH   6  24
ATOM     24  C   UNL     1      35.736 -18.669 -20.959  0.00  0.00    +0.000 C 
ATOM     25  C   UNL     1      37.145 -19.261 -20.832  0.00  0.00    +0.000 C 
BRANCH  24  26
ATOM     26  C   UNL     1      34.692 -19.789 -20.770  0.00  0.00    +0.010 C 
BRANCH  26  27
ATOM     27  C   UNL     1      35.241 -21.008 -20.026  0.00  0.00    +0.085 C 
BRANCH  27  30
ATOM     28  O   UNL     1      33.017 -21.938 -19.798  0.00  0.00    -0.275 OA
ATOM     29  N   UNL     1      34.592 -22.350 -18.140  0.00  0.00    -0.295 N 
ATOM     30  C   UNL     1      34.146 -21.804 -19.335  0.00  0.00    +0.223 C 
ATOM     31  H   UNL     1      35.521 -22.178 -17.863  0.00  0.00    +0.150 HD
BRANCH  29  32
ATOM     32  C   UNL     1      33.758 -23.161 -17.283  0.00  0.00    +0.200 C 
BRANCH  32  34
ATOM     33  O   UNL     1      35.280 -24.443 -15.929  0.00  0.00    -0.248 OA
ATOM     34  C   UNL     1      34.442 -23.553 -15.998  0.00  0.00    +0.334 C 
BRANCH  34  35
ATOM     35  O   UNL     1      34.039 -22.828 -14.929  0.00  0.00    -0.479 OA
ATOM     36  H   UNL     1      33.182 -22.956 -14.571  0.00  0.00    +0.295 HD
ENDBRANCH  34  35
ENDBRANCH  32  34
ENDBRANCH  29  32
ENDBRANCH  27  30
ENDBRANCH  26  27
ENDBRANCH  24  26
ENDBRANCH   6  24
TORSDOF 9
ENDMDL
MODEL 2
REMARK VINA RESULT:      -7.9      3.727      6.549
REMARK  Name = 12544
REMARK  9 active torsions:
REMARK  status: ('A' for Active; 'I' for Inactive)
REMARK    1  A    between atoms: C_6  and  C_24
REMARK    2  A    between atoms: C_10  and  O_20
REMARK    3  A    between atoms: C_19  and  O_22
REMARK    4  A    between atoms: C_24  and  C_26
REMARK    5  A    between atoms: C_26  and  C_27
REMARK    6  A    between atoms: C_27  and  C_30
REMARK    7  A    between atoms: N_29  and  C_32
REMARK    8  A    between atoms: C_32  and  C_34
REMARK    9  A    between atoms: C_34  and  O_35
REMARK                            x       y       z     vdW  Elec       q    Type
REMARK                         _______ _______ _______ _____ _____    ______ ____
ROOT
ATOM      1  C   UNL     1      32.499 -11.307 -23.251  0.00  0.00    +0.002 C 
ATOM      2  C   UNL     1      33.504 -11.946 -24.234  0.00  0.00    +0.000 C 
ATOM      3  C   UNL     1      32.979  -9.961 -22.687  0.00  0.00    +0.027 C 
ATOM      4  C   UNL     1      33.198  -8.971 -23.880  0.00  0.00    +0.002 C 
ATOM      5  C   UNL     1      33.694  -7.559 -23.382  0.00  0.00    +0.000 C 
ATOM      6  C   UNL     1      32.753 -13.265 -24.535  0.00  0.00    +0.000 C 
ATOM      7  C   UNL     1      32.674  -6.991 -22.340  0.00  0.00    +0.005 C 
ATOM      8  C   UNL     1      33.644 -10.999 -25.432  0.00  0.00    +0.000 C 
ATOM      9  C   UNL     1      34.085  -9.590 -24.996  0.00  0.00    +0.000 C 
ATOM     10  C   UNL     1      32.011  -9.390 -21.634  0.00  0.00    +0.110 C 
ATOM     11  C   UNL     1      32.180 -12.441 -22.279  0.00  0.00    +0.000 C 
ATOM     12  C   UNL     1      32.223 -13.709 -23.151  0.00  0.00    +0.000 C 
ATOM     13  C   UNL     1      32.400  -7.977 -21.187  0.00  0.00    +0.029 C 
ATOM     14  C   UNL     1      33.845  -6.533 -24.544  0.00  0.00    +0.002 C 
ATOM     15  C   UNL     1      34.900 -12.225 -23.623  0.00  0.00    +0.000 C 
ATOM     16  C   UNL     1      31.357  -6.513 -22.989  0.00  0.00    +0.029 C 
ATOM     17  C   UNL     1      35.096  -7.658 -22.723  0.00  0.00    +0.000 C 
ATOM     18  C   UNL     1      32.526  -6.107 -25.174  0.00  0.00    +0.029 C 
ATOM     19  C   UNL     1      31.592  -5.522 -24.123  0.00  0.00    +0.111 C 
ENDROOT
BRANCH  10  20
ATOM     20  O   UNL     1      30.676  -9.398 -22.130  0.00  0.00    -0.384 OA
ATOM     21  H   UNL     1      30.589 -10.080 -22.814  0.00  0.00    +0.210 HD
ENDBRANCH  10  20
BRANCH  19  22
ATOM     22  O   UNL     1      30.352  -5.204 -24.747  0.00  0.00    -0.384 OA
ATOM     23  H   UNL     1      29.968  -6.009 -25.131  0.00  0.00    +0.210 HD
ENDBRANCH  19  22
BRANCH   6  24
ATOM     24  C   UNL     1      33.546 -14.356 -25.241  0.00  0.00    +0.000 C 
ATOM     25  C   UNL     1      32.813 -14.793 -26.515  0.00  0.00    +0.000 C 
BRANCH  24  26
ATOM     26  C   UNL     1      33.794 -15.588 -24.346  0.00  0.00    +0.010 C 
BRANCH  26  27
ATOM     27  C   UNL     1      34.238 -16.825 -25.129  0.00  0.00    +0.085 C 
BRANCH  27  30
ATOM     28  O   UNL     1      34.396 -19.093 -24.297  0.00  0.00    -0.275 OA
ATOM     29  N   UNL     1      35.700 -17.436 -23.321  0.00  0.00    -0.295 N 
ATOM     30  C   UNL     1      34.764 -17.925 -24.221  0.00  0.00    +0.223 C 
ATOM     31  H   UNL     1      35.921 -16.478 -23.348  0.00  0.00    +0.150 HD
BRANCH  29  32
ATOM     32  C   UNL     1      36.366 -18.269 -22.346  0.00  0.00    +0.200 C 
BRANCH  32  34
ATOM     33  O   UNL     1      35.407 -19.400 -20.450  0.00  0.00    -0.248 OA
ATOM     34  C   UNL     1      35.626 -18.347 -21.036  0.00  0.00    +0.334 C 
BRANCH  34  35
ATOM     35  O   UNL     1      35.225 -17.141 -20.569  0.00  0.00    -0.479 OA
ATOM     36  H   UNL     1      35.534 -16.833 -19.739  0.00  0.00    +0.295 HD
ENDBRANCH  34  35
ENDBRANCH  32  34
ENDBRANCH  29  32
ENDBRANCH  27  30
ENDBRANCH  26  27
ENDBRANCH  24  26
ENDBRANCH   6  24
TORSDOF 9
ENDMDL
MODEL 3
REMARK VINA RESULT:      -7.8      2.668      3.785
REMARK  Name = 12544
REMARK  9 active torsions:
REMARK  status: ('A' for Active; 'I' for Inactive)
REMARK    1  A    between atoms: C_6  and  C_24
REMARK    2  A    between atoms: C_10  and  O_20
REMARK    3  A    between atoms: C_19  and  O_22
REMARK    4  A    between atoms: C_24  and  C_26
REMARK    5  A    between atoms: C_26  and  C_27
REMARK    6  A    between atoms: C_27  and  C_30
REMARK    7  A    between atoms: N_29  and  C_32
REMARK    8  A    between atoms: C_32  and  C_34
REMARK    9  A    between atoms: C_34  and  O_35
REMARK                            x       y       z     vdW  Elec       q    Type
REMARK                         _______ _______ _______ _____ _____    ______ ____
ROOT
ATOM      1  C   UNL     1      33.820 -13.722 -22.454  0.00  0.00    +0.002 C 
ATOM      2  C   UNL     1      33.569 -14.872 -21.455  0.00  0.00    +0.000 C 
ATOM      3  C   UNL     1      32.665 -12.711 -22.514  0.00  0.00    +0.027 C 
ATOM      4  C   UNL     1      32.472 -12.091 -21.088  0.00  0.00    +0.002 C 
ATOM      5  C   UNL     1      31.298 -11.038 -21.064  0.00  0.00    +0.000 C 
ATOM      6  C   UNL     1      34.854 -15.699 -21.702  0.00  0.00    +0.000 C 
ATOM      7  C   UNL     1      31.571  -9.936 -22.141  0.00  0.00    +0.005 C 
ATOM      8  C   UNL     1      33.463 -14.253 -20.056  0.00  0.00    +0.000 C 
ATOM      9  C   UNL     1      32.358 -13.184 -19.988  0.00  0.00    +0.000 C 
ATOM     10  C   UNL     1      32.888 -11.629 -23.587  0.00  0.00    +0.110 C 
ATOM     11  C   UNL     1      34.231 -14.445 -23.735  0.00  0.00    +0.000 C 
ATOM     12  C   UNL     1      35.018 -15.672 -23.240  0.00  0.00    +0.000 C 
ATOM     13  C   UNL     1      31.821 -10.531 -23.541  0.00  0.00    +0.029 C 
ATOM     14  C   UNL     1      31.137 -10.352 -19.676  0.00  0.00    +0.002 C 
ATOM     15  C   UNL     1      32.300 -15.708 -21.754  0.00  0.00    +0.000 C 
ATOM     16  C   UNL     1      32.703  -8.968 -21.736  0.00  0.00    +0.029 C 
ATOM     17  C   UNL     1      29.932 -11.715 -21.360  0.00  0.00    +0.000 C 
ATOM     18  C   UNL     1      32.287  -9.426 -19.302  0.00  0.00    +0.029 C 
ATOM     19  C   UNL     1      32.477  -8.349 -20.361  0.00  0.00    +0.111 C 
ENDROOT
BRANCH  10  20
ATOM     20  O   UNL     1      34.186 -11.059 -23.455  0.00  0.00    -0.384 OA
ATOM     21  H   UNL     1      34.514 -11.204 -22.553  0.00  0.00    +0.210 HD
ENDBRANCH  10  20
BRANCH  19  22
ATOM     22  O   UNL     1      33.603  -7.555 -20.002  0.00  0.00    -0.384 OA
ATOM     23  H   UNL     1      33.474  -6.648 -20.323  0.00  0.00    +0.210 HD
ENDBRANCH  19  22
BRANCH   6  24
ATOM     24  C   UNL     1      34.877 -17.110 -21.130  0.00  0.00    +0.000 C 
ATOM     25  C   UNL     1      36.068 -17.888 -21.703  0.00  0.00    +0.000 C 
BRANCH  24  26
ATOM     26  C   UNL     1      33.575 -17.889 -21.411  0.00  0.00    +0.010 C 
BRANCH  26  27
ATOM     27  C   UNL     1      33.804 -19.380 -21.662  0.00  0.00    +0.085 C 
BRANCH  27  30
ATOM     28  O   UNL     1      32.505 -20.274 -19.825  0.00  0.00    -0.275 OA
ATOM     29  N   UNL     1      34.732 -20.899 -20.047  0.00  0.00    -0.295 N 
ATOM     30  C   UNL     1      33.580 -20.218 -20.414  0.00  0.00    +0.223 C 
ATOM     31  H   UNL     1      35.541 -20.781 -20.593  0.00  0.00    +0.150 HD
BRANCH  29  32
ATOM     32  C   UNL     1      34.797 -21.776 -18.900  0.00  0.00    +0.200 C 
BRANCH  32  34
ATOM     33  O   UNL     1      33.990 -23.923 -19.630  0.00  0.00    -0.248 OA
ATOM     34  C   UNL     1      33.805 -22.909 -18.969  0.00  0.00    +0.334 C 
BRANCH  34  35
ATOM     35  O   UNL     1      32.690 -22.696 -18.233  0.00  0.00    -0.479 OA
ATOM     36  H   UNL     1      32.203 -23.424 -17.899  0.00  0.00    +0.295 HD
ENDBRANCH  34  35
ENDBRANCH  32  34
ENDBRANCH  29  32
ENDBRANCH  27  30
ENDBRANCH  26  27
ENDBRANCH  24  26
ENDBRANCH   6  24
TORSDOF 9
ENDMDL
MODEL 4
REMARK VINA RESULT:      -7.7      3.011     11.901
REMARK  Name = 12544
REMARK  9 active torsions:
REMARK  status: ('A' for Active; 'I' for Inactive)
REMARK    1  A    between atoms: C_6  and  C_24
REMARK    2  A    between atoms: C_10  and  O_20
REMARK    3  A    between atoms: C_19  and  O_22
REMARK    4  A    between atoms: C_24  and  C_26
REMARK    5  A    between atoms: C_26  and  C_27
REMARK    6  A    between atoms: C_27  and  C_30
REMARK    7  A    between atoms: N_29  and  C_32
REMARK    8  A    between atoms: C_32  and  C_34
REMARK    9  A    between atoms: C_34  and  O_35
REMARK                            x       y       z     vdW  Elec       q    Type
REMARK                         _______ _______ _______ _____ _____    ______ ____
ROOT
ATOM      1  C   UNL     1      33.680 -22.550 -16.933  0.00  0.00    +0.002 C 
ATOM      2  C   UNL     1      34.572 -22.408 -18.184  0.00  0.00    +0.000 C 
ATOM      3  C   UNL     1      34.100 -23.713 -16.021  0.00  0.00    +0.027 C 
ATOM      4  C   UNL     1      35.574 -23.470 -15.551  0.00  0.00    +0.002 C 
ATOM      5  C   UNL     1      36.083 -24.626 -14.606  0.00  0.00    +0.000 C 
ATOM      6  C   UNL     1      33.843 -21.230 -18.876  0.00  0.00    +0.000 C 
ATOM      7  C   UNL     1      35.106 -24.770 -13.393  0.00  0.00    +0.005 C 
ATOM      8  C   UNL     1      35.994 -22.090 -17.706  0.00  0.00    +0.000 C 
ATOM      9  C   UNL     1      36.524 -23.169 -16.744  0.00  0.00    +0.000 C 
ATOM     10  C   UNL     1      33.139 -23.901 -14.832  0.00  0.00    +0.110 C 
ATOM     11  C   UNL     1      32.262 -22.535 -17.500  0.00  0.00    +0.000 C 
ATOM     12  C   UNL     1      32.345 -21.570 -18.697  0.00  0.00    +0.000 C 
ATOM     13  C   UNL     1      33.640 -24.952 -13.836  0.00  0.00    +0.029 C 
ATOM     14  C   UNL     1      37.519 -24.368 -14.064  0.00  0.00    +0.002 C 
ATOM     15  C   UNL     1      34.595 -23.661 -19.094  0.00  0.00    +0.000 C 
ATOM     16  C   UNL     1      35.241 -23.618 -12.374  0.00  0.00    +0.029 C 
ATOM     17  C   UNL     1      36.157 -25.978 -15.366  0.00  0.00    +0.000 C 
ATOM     18  C   UNL     1      37.615 -23.208 -13.082  0.00  0.00    +0.029 C 
ATOM     19  C   UNL     1      36.677 -23.423 -11.902  0.00  0.00    +0.111 C 
ENDROOT
BRANCH  10  20
ATOM     20  O   UNL     1      32.920 -22.660 -14.169  0.00  0.00    -0.384 OA
ATOM     21  H   UNL     1      33.053 -22.775 -13.215  0.00  0.00    +0.210 HD
ENDBRANCH  10  20
BRANCH  19  22
ATOM     22  O   UNL     1      36.751 -22.284 -11.051  0.00  0.00    -0.384 OA
ATOM     23  H   UNL     1      37.624 -21.869 -11.141  0.00  0.00    +0.210 HD
ENDBRANCH  19  22
BRANCH   6  24
ATOM     24  C   UNL     1      34.218 -20.952 -20.325  0.00  0.00    +0.000 C 
ATOM     25  C   UNL     1      35.718 -20.656 -20.431  0.00  0.00    +0.000 C 
BRANCH  24  26
ATOM     26  C   UNL     1      33.421 -19.779 -20.932  0.00  0.00    +0.010 C 
BRANCH  26  27
ATOM     27  C   UNL     1      34.294 -18.573 -21.283  0.00  0.00    +0.085 C 
BRANCH  27  30
ATOM     28  O   UNL     1      34.652 -19.428 -23.520  0.00  0.00    -0.275 OA
ATOM     29  N   UNL     1      34.627 -17.130 -23.177  0.00  0.00    -0.295 N 
ATOM     30  C   UNL     1      34.545 -18.457 -22.778  0.00  0.00    +0.223 C 
ATOM     31  H   UNL     1      34.526 -16.428 -22.496  0.00  0.00    +0.150 HD
BRANCH  29  32
ATOM     32  C   UNL     1      34.853 -16.732 -24.547  0.00  0.00    +0.200 C 
BRANCH  32  34
ATOM     33  O   UNL     1      33.264 -14.939 -24.321  0.00  0.00    -0.248 OA
ATOM     34  C   UNL     1      33.830 -15.745 -25.049  0.00  0.00    +0.334 C 
BRANCH  34  35
ATOM     35  O   UNL     1      33.596 -15.837 -26.378  0.00  0.00    -0.479 OA
ATOM     36  H   UNL     1      33.696 -15.083 -26.925  0.00  0.00    +0.295 HD
ENDBRANCH  34  35
ENDBRANCH  32  34
ENDBRANCH  29  32
ENDBRANCH  27  30
ENDBRANCH  26  27
ENDBRANCH  24  26
ENDBRANCH   6  24
TORSDOF 9
ENDMDL
MODEL 5
REMARK VINA RESULT:      -7.5      5.595      9.402
REMARK  Name = 12544
REMARK  9 active torsions:
REMARK  status: ('A' for Active; 'I' for Inactive)
REMARK    1  A    between atoms: C_6  and  C_24
REMARK    2  A    between atoms: C_10  and  O_20
REMARK    3  A    between atoms: C_19  and  O_22
REMARK    4  A    between atoms: C_24  and  C_26
REMARK    5  A    between atoms: C_26  and  C_27
REMARK    6  A    between atoms: C_27  and  C_30
REMARK    7  A    between atoms: N_29  and  C_32
REMARK    8  A    between atoms: C_32  and  C_34
REMARK    9  A    between atoms: C_34  and  O_35
REMARK                            x       y       z     vdW  Elec       q    Type
REMARK                         _______ _______ _______ _____ _____    ______ ____
ROOT
ATOM      1  C   UNL     1      36.102 -22.357 -16.450  0.00  0.00    +0.002 C 
ATOM      2  C   UNL     1      35.121 -23.287 -15.705  0.00  0.00    +0.000 C 
ATOM      3  C   UNL     1      35.976 -22.447 -17.979  0.00  0.00    +0.027 C 
ATOM      4  C   UNL     1      34.516 -22.047 -18.382  0.00  0.00    +0.002 C 
ATOM      5  C   UNL     1      34.303 -22.114 -19.943  0.00  0.00    +0.000 C 
ATOM      6  C   UNL     1      35.561 -22.996 -14.250  0.00  0.00    +0.000 C 
ATOM      7  C   UNL     1      35.366 -21.208 -20.649  0.00  0.00    +0.005 C 
ATOM      8  C   UNL     1      33.698 -22.829 -16.049  0.00  0.00    +0.000 C 
ATOM      9  C   UNL     1      33.450 -22.834 -17.568  0.00  0.00    +0.000 C 
ATOM     10  C   UNL     1      37.029 -21.589 -18.705  0.00  0.00    +0.110 C 
ATOM     11  C   UNL     1      37.450 -22.668 -15.805  0.00  0.00    +0.000 C 
ATOM     12  C   UNL     1      37.105 -22.962 -14.333  0.00  0.00    +0.000 C 
ATOM     13  C   UNL     1      36.807 -21.548 -20.220  0.00  0.00    +0.029 C 
ATOM     14  C   UNL     1      32.882 -21.647 -20.375  0.00  0.00    +0.002 C 
ATOM     15  C   UNL     1      35.284 -24.789 -16.048  0.00  0.00    +0.000 C 
ATOM     16  C   UNL     1      35.075 -19.701 -20.482  0.00  0.00    +0.029 C 
ATOM     17  C   UNL     1      34.445 -23.569 -20.466  0.00  0.00    +0.000 C 
ATOM     18  C   UNL     1      32.627 -20.160 -20.170  0.00  0.00    +0.029 C 
ATOM     19  C   UNL     1      33.662 -19.328 -20.915  0.00  0.00    +0.111 C 
ENDROOT
BRANCH  10  20
ATOM     20  O   UNL     1      37.045 -20.268 -18.174  0.00  0.00    -0.384 OA
ATOM     21  H   UNL     1      36.162 -19.875 -18.255  0.00  0.00    +0.210 HD
ENDBRANCH  10  20
BRANCH  19  22
ATOM     22  O   UNL     1      33.423 -17.953 -20.636  0.00  0.00    -0.384 OA
ATOM     23  H   UNL     1      34.074 -17.409 -21.107  0.00  0.00    +0.210 HD
ENDBRANCH  19  22
BRANCH   6  24
ATOM     24  C   UNL     1      35.047 -23.949 -13.179  0.00  0.00    +0.000 C 
ATOM     25  C   UNL     1      33.526 -23.815 -13.045  0.00  0.00    +0.000 C 
BRANCH  24  26
ATOM     26  C   UNL     1      35.704 -23.709 -11.804  0.00  0.00    +0.010 C 
BRANCH  26  27
ATOM     27  C   UNL     1      36.692 -24.807 -11.405  0.00  0.00    +0.085 C 
BRANCH  27  30
ATOM     28  O   UNL     1      38.776 -23.591 -11.600  0.00  0.00    -0.275 OA
ATOM     29  N   UNL     1      38.476 -25.530 -12.846  0.00  0.00    -0.295 N 
ATOM     30  C   UNL     1      38.090 -24.550 -11.942  0.00  0.00    +0.223 C 
ATOM     31  H   UNL     1      37.844 -26.256 -13.048  0.00  0.00    +0.150 HD
BRANCH  29  32
ATOM     32  C   UNL     1      39.762 -25.534 -13.503  0.00  0.00    +0.200 C 
BRANCH  32  34
ATOM     33  O   UNL     1      40.639 -25.867 -15.720  0.00  0.00    -0.248 OA
ATOM     34  C   UNL     1      39.671 -25.869 -14.970  0.00  0.00    +0.334 C 
BRANCH  34  35
ATOM     35  O   UNL     1      38.417 -26.169 -15.379  0.00  0.00    -0.479 OA
ATOM     36  H   UNL     1      37.701 -26.115 -14.775  0.00  0.00    +0.295 HD
ENDBRANCH  34  35
ENDBRANCH  32  34
ENDBRANCH  29  32
ENDBRANCH  27  30
ENDBRANCH  26  27
ENDBRANCH  24  26
ENDBRANCH   6  24
TORSDOF 9
ENDMDL
MODEL 6
REMARK VINA RESULT:      -7.5      5.568      9.277
REMARK  Name = 12544
REMARK  9 active torsions:
REMARK  status: ('A' for Active; 'I' for Inactive)
REMARK    1  A    between atoms: C_6  and  C_24
REMARK    2  A    between atoms: C_10  and  O_20
REMARK    3  A    between atoms: C_19  and  O_22
REMARK    4  A    between atoms: C_24  and  C_26
REMARK    5  A    between atoms: C_26  and  C_27
REMARK    6  A    between atoms: C_27  and  C_30
REMARK    7  A    between atoms: N_29  and  C_32
REMARK    8  A    between atoms: C_32  and  C_34
REMARK    9  A    between atoms: C_34  and  O_35
REMARK                            x       y       z     vdW  Elec       q    Type
REMARK                         _______ _______ _______ _____ _____    ______ ____
ROOT
ATOM      1  C   UNL     1      35.818 -22.419 -16.170  0.00  0.00    +0.002 C 
ATOM      2  C   UNL     1      34.718 -23.277 -15.510  0.00  0.00    +0.000 C 
ATOM      3  C   UNL     1      35.837 -22.536 -17.702  0.00  0.00    +0.027 C 
ATOM      4  C   UNL     1      34.449 -22.066 -18.254  0.00  0.00    +0.002 C 
ATOM      5  C   UNL     1      34.387 -22.156 -19.827  0.00  0.00    +0.000 C 
ATOM      6  C   UNL     1      35.029 -22.979 -14.023  0.00  0.00    +0.000 C 
ATOM      7  C   UNL     1      35.563 -21.326 -20.439  0.00  0.00    +0.005 C 
ATOM      8  C   UNL     1      33.364 -22.750 -16.001  0.00  0.00    +0.000 C 
ATOM      9  C   UNL     1      33.266 -22.775 -17.537  0.00  0.00    +0.000 C 
ATOM     10  C   UNL     1      37.004 -21.754 -18.334  0.00  0.00    +0.110 C 
ATOM     11  C   UNL     1      37.077 -22.789 -15.389  0.00  0.00    +0.000 C 
ATOM     12  C   UNL     1      36.573 -23.031 -13.954  0.00  0.00    +0.000 C 
ATOM     13  C   UNL     1      36.933 -21.734 -19.864  0.00  0.00    +0.029 C 
ATOM     14  C   UNL     1      33.043 -21.622 -20.405  0.00  0.00    +0.002 C 
ATOM     15  C   UNL     1      34.828 -24.793 -15.810  0.00  0.00    +0.000 C 
ATOM     16  C   UNL     1      35.343 -19.802 -20.327  0.00  0.00    +0.029 C 
ATOM     17  C   UNL     1      34.496 -23.628 -20.309  0.00  0.00    +0.000 C 
ATOM     18  C   UNL     1      32.854 -20.119 -20.251  0.00  0.00    +0.029 C 
ATOM     19  C   UNL     1      34.002 -19.362 -20.904  0.00  0.00    +0.111 C 
ENDROOT
BRANCH  10  20
ATOM     20  O   UNL     1      37.042 -20.424 -17.827  0.00  0.00    -0.384 OA
ATOM     21  H   UNL     1      37.146 -19.799 -18.562  0.00  0.00    +0.210 HD
ENDBRANCH  10  20
BRANCH  19  22
ATOM     22  O   UNL     1      33.815 -17.969 -20.673  0.00  0.00    -0.384 OA
ATOM     23  H   UNL     1      33.237 -17.602 -21.361  0.00  0.00    +0.210 HD
ENDBRANCH  19  22
BRANCH   6  24
ATOM     24  C   UNL     1      34.360 -23.878 -12.992  0.00  0.00    +0.000 C 
ATOM     25  C   UNL     1      35.385 -24.858 -12.410  0.00  0.00    +0.000 C 
BRANCH  24  26
ATOM     26  C   UNL     1      33.169 -24.668 -13.574  0.00  0.00    +0.010 C 
BRANCH  26  27
ATOM     27  C   UNL     1      31.827 -23.958 -13.395  0.00  0.00    +0.085 C 
BRANCH  27  30
ATOM     28  O   UNL     1      30.700 -25.758 -14.558  0.00  0.00    -0.275 OA
ATOM     29  N   UNL     1      29.789 -23.622 -14.625  0.00  0.00    -0.295 N 
ATOM     30  C   UNL     1      30.731 -24.570 -14.252  0.00  0.00    +0.223 C 
ATOM     31  H   UNL     1      29.912 -22.693 -14.322  0.00  0.00    +0.150 HD
BRANCH  29  32
ATOM     32  C   UNL     1      28.635 -23.933 -15.436  0.00  0.00    +0.200 C 
BRANCH  32  34
ATOM     33  O   UNL     1      29.467 -22.393 -17.089  0.00  0.00    -0.248 OA
ATOM     34  C   UNL     1      28.684 -23.290 -16.799  0.00  0.00    +0.334 C 
BRANCH  34  35
ATOM     35  O   UNL     1      27.780 -23.796 -17.668  0.00  0.00    -0.479 OA
ATOM     36  H   UNL     1      27.913 -23.701 -18.592  0.00  0.00    +0.295 HD
ENDBRANCH  34  35
ENDBRANCH  32  34
ENDBRANCH  29  32
ENDBRANCH  27  30
ENDBRANCH  26  27
ENDBRANCH  24  26
ENDBRANCH   6  24
TORSDOF 9
ENDMDL
MODEL 7
REMARK VINA RESULT:      -7.4      3.530      6.594
REMARK  Name = 12544
REMARK  9 active torsions:
REMARK  status: ('A' for Active; 'I' for Inactive)
REMARK    1  A    between atoms: C_6  and  C_24
REMARK    2  A    between atoms: C_10  and  O_20
REMARK    3  A    between atoms: C_19  and  O_22
REMARK    4  A    between atoms: C_24  and  C_26
REMARK    5  A    between atoms: C_26  and  C_27
REMARK    6  A    between atoms: C_27  and  C_30
REMARK    7  A    between atoms: N_29  and  C_32
REMARK    8  A    between atoms: C_32  and  C_34
REMARK    9  A    between atoms: C_34  and  O_35
REMARK                            x       y       z     vdW  Elec       q    Type
REMARK                         _______ _______ _______ _____ _____    ______ ____
ROOT
ATOM      1  C   UNL     1      35.469 -21.039 -19.089  0.00  0.00    +0.002 C 
ATOM      2  C   UNL     1      34.205 -21.923 -19.025  0.00  0.00    +0.000 C 
ATOM      3  C   UNL     1      35.732 -20.462 -20.488  0.00  0.00    +0.027 C 
ATOM      4  C   UNL     1      34.498 -19.591 -20.907  0.00  0.00    +0.002 C 
ATOM      5  C   UNL     1      34.691 -18.960 -22.339  0.00  0.00    +0.000 C 
ATOM      6  C   UNL     1      34.290 -22.370 -17.545  0.00  0.00    +0.000 C 
ATOM      7  C   UNL     1      36.018 -18.132 -22.366  0.00  0.00    +0.005 C 
ATOM      8  C   UNL     1      33.001 -21.035 -19.359  0.00  0.00    +0.000 C 
ATOM      9  C   UNL     1      33.157 -20.357 -20.732  0.00  0.00    +0.000 C 
ATOM     10  C   UNL     1      37.048 -19.666 -20.556  0.00  0.00    +0.110 C 
ATOM     11  C   UNL     1      36.545 -21.904 -18.436  0.00  0.00    +0.000 C 
ATOM     12  C   UNL     1      35.791 -22.680 -17.341  0.00  0.00    +0.000 C 
ATOM     13  C   UNL     1      37.235 -18.957 -21.900  0.00  0.00    +0.029 C 
ATOM     14  C   UNL     1      33.512 -18.027 -22.746  0.00  0.00    +0.002 C 
ATOM     15  C   UNL     1      34.235 -23.143 -19.978  0.00  0.00    +0.000 C 
ATOM     16  C   UNL     1      35.913 -16.804 -21.585  0.00  0.00    +0.029 C 
ATOM     17  C   UNL     1      34.753 -20.060 -23.433  0.00  0.00    +0.000 C 
ATOM     18  C   UNL     1      33.427 -16.741 -21.935  0.00  0.00    +0.029 C 
ATOM     19  C   UNL     1      34.728 -15.956 -22.034  0.00  0.00    +0.111 C 
ENDROOT
BRANCH  10  20
ATOM     20  O   UNL     1      37.115 -18.725 -19.490  0.00  0.00    -0.384 OA
ATOM     21  H   UNL     1      37.570 -17.923 -19.793  0.00  0.00    +0.210 HD
ENDBRANCH  10  20
BRANCH  19  22
ATOM     22  O   UNL     1      34.624 -14.802 -21.207  0.00  0.00    -0.384 OA
ATOM     23  H   UNL     1      34.076 -14.134 -21.650  0.00  0.00    +0.210 HD
ENDBRANCH  19  22
BRANCH   6  24
ATOM     24  C   UNL     1      33.386 -23.521 -17.127  0.00  0.00    +0.000 C 
ATOM     25  C   UNL     1      32.013 -22.982 -16.707  0.00  0.00    +0.000 C 
BRANCH  24  26
ATOM     26  C   UNL     1      33.980 -24.358 -15.975  0.00  0.00    +0.010 C 
BRANCH  26  27
ATOM     27  C   UNL     1      33.600 -23.835 -14.589  0.00  0.00    +0.085 C 
BRANCH  27  30
ATOM     28  O   UNL     1      34.422 -24.259 -12.351  0.00  0.00    -0.275 OA
ATOM     29  N   UNL     1      35.923 -24.242 -14.124  0.00  0.00    -0.295 N 
ATOM     30  C   UNL     1      34.666 -24.131 -13.547  0.00  0.00    +0.223 C 
ATOM     31  H   UNL     1      36.005 -24.121 -15.097  0.00  0.00    +0.150 HD
BRANCH  29  32
ATOM     32  C   UNL     1      37.118 -24.528 -13.364  0.00  0.00    +0.200 C 
BRANCH  32  34
ATOM     33  O   UNL     1      37.886 -26.757 -13.852  0.00  0.00    -0.248 OA
ATOM     34  C   UNL     1      37.300 -25.999 -13.088  0.00  0.00    +0.334 C 
BRANCH  34  35
ATOM     35  O   UNL     1      36.754 -26.402 -11.918  0.00  0.00    -0.479 OA
ATOM     36  H   UNL     1      36.161 -25.839 -11.459  0.00  0.00    +0.295 HD
ENDBRANCH  34  35
ENDBRANCH  32  34
ENDBRANCH  29  32
ENDBRANCH  27  30
ENDBRANCH  26  27
ENDBRANCH  24  26
ENDBRANCH   6  24
TORSDOF 9
ENDMDL
MODEL 8
REMARK VINA RESULT:      -7.1      9.812     12.882
REMARK  Name = 12544
REMARK  9 active torsions:
REMARK  status: ('A' for Active; 'I' for Inactive)
REMARK    1  A    between atoms: C_6  and  C_24
REMARK    2  A    between atoms: C_10  and  O_20
REMARK    3  A    between atoms: C_19  and  O_22
REMARK    4  A    between atoms: C_24  and  C_26
REMARK    5  A    between atoms: C_26  and  C_27
REMARK    6  A    between atoms: C_27  and  C_30
REMARK    7  A    between atoms: N_29  and  C_32
REMARK    8  A    between atoms: C_32  and  C_34
REMARK    9  A    between atoms: C_34  and  O_35
REMARK                            x       y       z     vdW  Elec       q    Type
REMARK                         _______ _______ _______ _____ _____    ______ ____
ROOT
ATOM      1  C   UNL     1      33.882 -23.577 -15.348  0.00  0.00    +0.002 C 
ATOM      2  C   UNL     1      32.795 -23.887 -14.296  0.00  0.00    +0.000 C 
ATOM      3  C   UNL     1      35.203 -23.095 -14.728  0.00  0.00    +0.027 C 
ATOM      4  C   UNL     1      35.744 -24.216 -13.776  0.00  0.00    +0.002 C 
ATOM      5  C   UNL     1      37.104 -23.798 -13.097  0.00  0.00    +0.000 C 
ATOM      6  C   UNL     1      31.631 -24.261 -15.245  0.00  0.00    +0.000 C 
ATOM      7  C   UNL     1      38.144 -23.430 -14.206  0.00  0.00    +0.005 C 
ATOM      8  C   UNL     1      33.310 -25.040 -13.425  0.00  0.00    +0.000 C 
ATOM      9  C   UNL     1      34.661 -24.700 -12.771  0.00  0.00    +0.000 C 
ATOM     10  C   UNL     1      36.239 -22.696 -15.795  0.00  0.00    +0.110 C 
ATOM     11  C   UNL     1      33.165 -22.670 -16.346  0.00  0.00    +0.000 C 
ATOM     12  C   UNL     1      31.721 -23.204 -16.370  0.00  0.00    +0.000 C 
ATOM     13  C   UNL     1      37.607 -22.370 -15.188  0.00  0.00    +0.029 C 
ATOM     14  C   UNL     1      37.701 -24.927 -12.206  0.00  0.00    +0.002 C 
ATOM     15  C   UNL     1      32.418 -22.682 -13.398  0.00  0.00    +0.000 C 
ATOM     16  C   UNL     1      38.680 -24.666 -14.960  0.00  0.00    +0.029 C 
ATOM     17  C   UNL     1      36.908 -22.578 -12.156  0.00  0.00    +0.000 C 
ATOM     18  C   UNL     1      38.194 -26.139 -12.985  0.00  0.00    +0.029 C 
ATOM     19  C   UNL     1      39.235 -25.728 -14.017  0.00  0.00    +0.111 C 
ENDROOT
BRANCH  10  20
ATOM     20  O   UNL     1      36.367 -23.723 -16.772  0.00  0.00    -0.384 OA
ATOM     21  H   UNL     1      37.102 -23.513 -17.369  0.00  0.00    +0.210 HD
ENDBRANCH  10  20
BRANCH  19  22
ATOM     22  O   UNL     1      39.612 -26.881 -14.762  0.00  0.00    -0.384 OA
ATOM     23  H   UNL     1      39.463 -26.718 -15.708  0.00  0.00    +0.210 HD
ENDBRANCH  19  22
BRANCH   6  24
ATOM     24  C   UNL     1      30.244 -24.346 -14.623  0.00  0.00    +0.000 C 
ATOM     25  C   UNL     1      30.340 -24.937 -13.211  0.00  0.00    +0.000 C 
BRANCH  24  26
ATOM     26  C   UNL     1      29.264 -25.189 -15.464  0.00  0.00    +0.010 C 
BRANCH  26  27
ATOM     27  C   UNL     1      28.632 -24.409 -16.618  0.00  0.00    +0.085 C 
BRANCH  27  30
ATOM     28  O   UNL     1      28.303 -22.525 -15.133  0.00  0.00    -0.275 OA
ATOM     29  N   UNL     1      26.967 -22.723 -17.023  0.00  0.00    -0.295 N 
ATOM     30  C   UNL     1      27.970 -23.122 -16.152  0.00  0.00    +0.223 C 
ATOM     31  H   UNL     1      26.783 -23.279 -17.814  0.00  0.00    +0.150 HD
BRANCH  29  32
ATOM     32  C   UNL     1      26.180 -21.527 -16.825  0.00  0.00    +0.200 C 
BRANCH  32  34
ATOM     33  O   UNL     1      25.752 -21.375 -19.189  0.00  0.00    -0.248 OA
ATOM     34  C   UNL     1      25.875 -20.804 -18.112  0.00  0.00    +0.334 C 
BRANCH  34  35
ATOM     35  O   UNL     1      25.754 -19.465 -17.963  0.00  0.00    -0.479 OA
ATOM     36  H   UNL     1      25.536 -18.929 -18.701  0.00  0.00    +0.295 HD
ENDBRANCH  34  35
ENDBRANCH  32  34
ENDBRANCH  29  32
ENDBRANCH  27  30
ENDBRANCH  26  27
ENDBRANCH  24  26
ENDBRANCH   6  24
TORSDOF 9
ENDMDL
MODEL 9
REMARK VINA RESULT:      -6.6      3.406      6.481
REMARK  Name = 12544
REMARK  9 active torsions:
REMARK  status: ('A' for Active; 'I' for Inactive)
REMARK    1  A    between atoms: C_6  and  C_24
REMARK    2  A    between atoms: C_10  and  O_20
REMARK    3  A    between atoms: C_19  and  O_22
REMARK    4  A    between atoms: C_24  and  C_26
REMARK    5  A    between atoms: C_26  and  C_27
REMARK    6  A    between atoms: C_27  and  C_30
REMARK    7  A    between atoms: N_29  and  C_32
REMARK    8  A    between atoms: C_32  and  C_34
REMARK    9  A    between atoms: C_34  and  O_35
REMARK                            x       y       z     vdW  Elec       q    Type
REMARK                         _______ _______ _______ _____ _____    ______ ____
ROOT
ATOM      1  C   UNL     1      35.511 -20.885 -19.361  0.00  0.00    +0.002 C 
ATOM      2  C   UNL     1      34.260 -21.785 -19.277  0.00  0.00    +0.000 C 
ATOM      3  C   UNL     1      35.744 -20.304 -20.764  0.00  0.00    +0.027 C 
ATOM      4  C   UNL     1      34.493 -19.448 -21.163  0.00  0.00    +0.002 C 
ATOM      5  C   UNL     1      34.655 -18.814 -22.598  0.00  0.00    +0.000 C 
ATOM      6  C   UNL     1      34.373 -22.230 -17.799  0.00  0.00    +0.000 C 
ATOM      7  C   UNL     1      35.971 -17.970 -22.645  0.00  0.00    +0.005 C 
ATOM      8  C   UNL     1      33.039 -20.911 -19.592  0.00  0.00    +0.000 C 
ATOM      9  C   UNL     1      33.165 -20.231 -20.967  0.00  0.00    +0.000 C 
ATOM     10  C   UNL     1      37.049 -19.492 -20.852  0.00  0.00    +0.110 C 
ATOM     11  C   UNL     1      36.608 -21.737 -18.726  0.00  0.00    +0.000 C 
ATOM     12  C   UNL     1      35.881 -22.523 -17.620  0.00  0.00    +0.000 C 
ATOM     13  C   UNL     1      37.205 -18.780 -22.199  0.00  0.00    +0.029 C 
ATOM     14  C   UNL     1      33.458 -17.896 -22.985  0.00  0.00    +0.002 C 
ATOM     15  C   UNL     1      34.289 -23.004 -20.232  0.00  0.00    +0.000 C 
ATOM     16  C   UNL     1      35.862 -16.644 -21.862  0.00  0.00    +0.029 C 
ATOM     17  C   UNL     1      34.713 -19.913 -23.693  0.00  0.00    +0.000 C 
ATOM     18  C   UNL     1      33.371 -16.611 -22.172  0.00  0.00    +0.029 C 
ATOM     19  C   UNL     1      34.660 -15.810 -22.291  0.00  0.00    +0.111 C 
ENDROOT
BRANCH  10  20
ATOM     20  O   UNL     1      37.122 -18.550 -19.787  0.00  0.00    -0.384 OA
ATOM     21  H   UNL     1      36.362 -17.948 -19.834  0.00  0.00    +0.210 HD
ENDBRANCH  10  20
BRANCH  19  22
ATOM     22  O   UNL     1      34.555 -14.658 -21.462  0.00  0.00    -0.384 OA
ATOM     23  H   UNL     1      33.742 -14.175 -21.680  0.00  0.00    +0.210 HD
ENDBRANCH  19  22
BRANCH   6  24
ATOM     24  C   UNL     1      33.490 -23.393 -17.367  0.00  0.00    +0.000 C 
ATOM     25  C   UNL     1      32.059 -22.901 -17.124  0.00  0.00    +0.000 C 
BRANCH  24  26
ATOM     26  C   UNL     1      34.012 -24.098 -16.098  0.00  0.00    +0.010 C 
BRANCH  26  27
ATOM     27  C   UNL     1      33.706 -23.330 -14.811  0.00  0.00    +0.085 C 
BRANCH  27  30
ATOM     28  O   UNL     1      33.079 -24.638 -12.872  0.00  0.00    -0.275 OA
ATOM     29  N   UNL     1      31.442 -24.031 -14.405  0.00  0.00    -0.295 N 
ATOM     30  C   UNL     1      32.737 -24.077 -13.909  0.00  0.00    +0.223 C 
ATOM     31  H   UNL     1      31.280 -23.551 -15.249  0.00  0.00    +0.150 HD
BRANCH  29  32
ATOM     32  C   UNL     1      30.320 -24.653 -13.741  0.00  0.00    +0.200 C 
BRANCH  32  34
ATOM     33  O   UNL     1      28.893 -24.052 -15.584  0.00  0.00    -0.248 OA
ATOM     34  C   UNL     1      29.113 -24.792 -14.633  0.00  0.00    +0.334 C 
BRANCH  34  35
ATOM     35  O   UNL     1      28.297 -25.812 -14.282  0.00  0.00    -0.479 OA
ATOM     36  H   UNL     1      28.547 -26.697 -14.464  0.00  0.00    +0.295 HD
ENDBRANCH  34  35
ENDBRANCH  32  34
ENDBRANCH  29  32
ENDBRANCH  27  30
ENDBRANCH  26  27
ENDBRANCH  24  26
ENDBRANCH   6  24
TORSDOF 9
ENDMDL
