MODEL 1
REMARK VINA RESULT:      -8.8      0.000      0.000
REMARK  Name = 136297
REMARK  2 active torsions:
REMARK  status: ('A' for Active; 'I' for Inactive)
REMARK    1  A    between atoms: C_8  and  O_20
REMARK    2  A    between atoms: C_19  and  O_22
REMARK                            x       y       z     vdW  Elec       q    Type
REMARK                         _______ _______ _______ _____ _____    ______ ____
ROOT
ATOM      1  C   UNL     1      33.014 -23.612 -15.787  0.00  0.00    +0.002 C 
ATOM      2  C   UNL     1      34.381 -23.300 -15.171  0.00  0.00    +0.001 C 
ATOM      3  C   UNL     1      31.913 -23.792 -14.723  0.00  0.00    +0.025 C 
ATOM      4  C   UNL     1      34.796 -24.497 -14.240  0.00  0.00    +0.003 C 
ATOM      5  C   UNL     1      36.223 -24.278 -13.609  0.00  0.00    +0.015 C 
ATOM      6  C   UNL     1      32.287 -24.997 -13.851  0.00  0.00    +0.002 C 
ATOM      7  C   UNL     1      33.680 -24.831 -13.215  0.00  0.00    +0.000 C 
ATOM      8  C   UNL     1      30.703 -24.016 -15.651  0.00  0.00    +0.110 C 
ATOM      9  C   UNL     1      32.398 -22.623 -16.772  0.00  0.00    +0.003 C 
ATOM     10  C   UNL     1      35.442 -23.031 -16.254  0.00  0.00    +0.004 C 
ATOM     11  C   UNL     1      30.902 -22.988 -16.781  0.00  0.00    +0.029 C 
ATOM     12  C   UNL     1      37.171 -24.028 -14.791  0.00  0.00    -0.047 C 
ATOM     13  C   UNL     1      36.839 -22.845 -15.664  0.00  0.00    +0.022 C 
ATOM     14  C   UNL     1      36.709 -25.499 -12.766  0.00  0.00    +0.007 C 
ATOM     15  C   UNL     1      31.676 -22.555 -13.820  0.00  0.00    +0.002 C 
ATOM     16  C   UNL     1      36.241 -23.070 -12.640  0.00  0.00    +0.004 C 
ATOM     17  C   UNL     1      37.242 -26.646 -13.619  0.00  0.00    +0.034 C 
ATOM     18  C   UNL     1      38.170 -24.863 -15.130  0.00  0.00    -0.006 C 
ATOM     19  C   UNL     1      38.430 -26.176 -14.460  0.00  0.00    +0.132 C 
ENDROOT
BRANCH   8  20
ATOM     20  O   UNL     1      29.453 -23.833 -15.016  0.00  0.00    -0.384 OA
ATOM     21  H   UNL     1      28.859 -23.344 -15.607  0.00  0.00    +0.210 HD
ENDBRANCH   8  20
BRANCH  19  22
ATOM     22  O   UNL     1      39.591 -26.034 -13.649  0.00  0.00    -0.380 OA
ATOM     23  H   UNL     1      40.030 -25.194 -13.857  0.00  0.00    +0.211 HD
ENDBRANCH  19  22
TORSDOF 2
ENDMDL
MODEL 2
REMARK VINA RESULT:      -8.0      3.543      6.307
REMARK  Name = 136297
REMARK  2 active torsions:
REMARK  status: ('A' for Active; 'I' for Inactive)
REMARK    1  A    between atoms: C_8  and  O_20
REMARK    2  A    between atoms: C_19  and  O_22
REMARK                            x       y       z     vdW  Elec       q    Type
REMARK                         _______ _______ _______ _____ _____    ______ ____
ROOT
ATOM      1  C   UNL     1      35.556 -22.680 -15.662  0.00  0.00    +0.002 C 
ATOM      2  C   UNL     1      35.665 -22.691 -17.189  0.00  0.00    +0.001 C 
ATOM      3  C   UNL     1      34.509 -23.682 -15.136  0.00  0.00    +0.025 C 
ATOM      4  C   UNL     1      34.269 -22.297 -17.794  0.00  0.00    +0.003 C 
ATOM      5  C   UNL     1      34.311 -22.230 -19.367  0.00  0.00    +0.015 C 
ATOM      6  C   UNL     1      33.137 -23.262 -15.676  0.00  0.00    +0.002 C 
ATOM      7  C   UNL     1      33.131 -23.179 -17.214  0.00  0.00    +0.000 C 
ATOM      8  C   UNL     1      34.699 -23.470 -13.622  0.00  0.00    +0.110 C 
ATOM      9  C   UNL     1      36.795 -22.987 -14.825  0.00  0.00    +0.003 C 
ATOM     10  C   UNL     1      36.781 -21.754 -17.684  0.00  0.00    +0.004 C 
ATOM     11  C   UNL     1      36.227 -23.371 -13.446  0.00  0.00    +0.029 C 
ATOM     12  C   UNL     1      35.454 -21.267 -19.716  0.00  0.00    -0.047 C 
ATOM     13  C   UNL     1      36.820 -21.652 -19.209  0.00  0.00    +0.022 C 
ATOM     14  C   UNL     1      32.969 -21.735 -19.992  0.00  0.00    +0.007 C 
ATOM     15  C   UNL     1      34.782 -25.161 -15.510  0.00  0.00    +0.002 C 
ATOM     16  C   UNL     1      34.572 -23.623 -19.992  0.00  0.00    +0.004 C 
ATOM     17  C   UNL     1      32.789 -20.222 -19.914  0.00  0.00    +0.034 C 
ATOM     18  C   UNL     1      35.266 -20.081 -20.325  0.00  0.00    -0.006 C 
ATOM     19  C   UNL     1      33.922 -19.514 -20.659  0.00  0.00    +0.132 C 
ENDROOT
BRANCH   8  20
ATOM     20  O   UNL     1      34.167 -24.511 -12.826  0.00  0.00    -0.384 OA
ATOM     21  H   UNL     1      34.237 -24.270 -11.889  0.00  0.00    +0.210 HD
ENDBRANCH   8  20
BRANCH  19  22
ATOM     22  O   UNL     1      33.737 -19.619 -22.067  0.00  0.00    -0.380 OA
ATOM     23  H   UNL     1      32.918 -19.165 -22.320  0.00  0.00    +0.211 HD
ENDBRANCH  19  22
TORSDOF 2
ENDMDL
MODEL 3
REMARK VINA RESULT:      -7.1     18.604     20.891
REMARK  Name = 136297
REMARK  2 active torsions:
REMARK  status: ('A' for Active; 'I' for Inactive)
REMARK    1  A    between atoms: C_8  and  O_20
REMARK    2  A    between atoms: C_19  and  O_22
REMARK                            x       y       z     vdW  Elec       q    Type
REMARK                         _______ _______ _______ _____ _____    ______ ____
ROOT
ATOM      1  C   UNL     1      33.041  -5.037 -26.079  0.00  0.00    +0.002 C 
ATOM      2  C   UNL     1      33.394  -5.733 -24.762  0.00  0.00    +0.001 C 
ATOM      3  C   UNL     1      31.967  -3.945 -25.902  0.00  0.00    +0.025 C 
ATOM      4  C   UNL     1      32.098  -6.416 -24.193  0.00  0.00    +0.003 C 
ATOM      5  C   UNL     1      32.389  -7.204 -22.861  0.00  0.00    +0.015 C 
ATOM      6  C   UNL     1      30.683  -4.619 -25.404  0.00  0.00    +0.002 C 
ATOM      7  C   UNL     1      30.920  -5.408 -24.103  0.00  0.00    +0.000 C 
ATOM      8  C   UNL     1      31.902  -3.421 -27.350  0.00  0.00    +0.110 C 
ATOM      9  C   UNL     1      34.141  -4.329 -26.865  0.00  0.00    +0.003 C 
ATOM     10  C   UNL     1      34.534  -6.750 -24.946  0.00  0.00    +0.004 C 
ATOM     11  C   UNL     1      33.376  -3.370 -27.796  0.00  0.00    +0.029 C 
ATOM     12  C   UNL     1      33.532  -8.176 -23.190  0.00  0.00    -0.047 C 
ATOM     13  C   UNL     1      34.813  -7.548 -23.673  0.00  0.00    +0.022 C 
ATOM     14  C   UNL     1      31.145  -7.983 -22.329  0.00  0.00    +0.007 C 
ATOM     15  C   UNL     1      32.359  -2.801 -24.933  0.00  0.00    +0.002 C 
ATOM     16  C   UNL     1      32.806  -6.253 -21.712  0.00  0.00    +0.004 C 
ATOM     17  C   UNL     1      30.891  -9.292 -23.071  0.00  0.00    +0.034 C 
ATOM     18  C   UNL     1      33.393  -9.514 -23.180  0.00  0.00    -0.006 C 
ATOM     19  C   UNL     1      32.097 -10.222 -22.935  0.00  0.00    +0.132 C 
ENDROOT
BRANCH   8  20
ATOM     20  O   UNL     1      31.294  -2.150 -27.472  0.00  0.00    -0.384 OA
ATOM     21  H   UNL     1      31.569  -1.739 -28.306  0.00  0.00    +0.210 HD
ENDBRANCH   8  20
BRANCH  19  22
ATOM     22  O   UNL     1      32.146 -10.791 -21.631  0.00  0.00    -0.380 OA
ATOM     23  H   UNL     1      32.000 -10.096 -20.969  0.00  0.00    +0.211 HD
ENDBRANCH  19  22
TORSDOF 2
ENDMDL
MODEL 4
REMARK VINA RESULT:      -7.0     17.494     19.694
REMARK  Name = 136297
REMARK  2 active torsions:
REMARK  status: ('A' for Active; 'I' for Inactive)
REMARK    1  A    between atoms: C_8  and  O_20
REMARK    2  A    between atoms: C_19  and  O_22
REMARK                            x       y       z     vdW  Elec       q    Type
REMARK                         _______ _______ _______ _____ _____    ______ ____
ROOT
ATOM      1  C   UNL     1      32.346  -5.525 -25.033  0.00  0.00    +0.002 C 
ATOM      2  C   UNL     1      33.106  -6.470 -24.098  0.00  0.00    +0.001 C 
ATOM      3  C   UNL     1      31.311  -4.660 -24.287  0.00  0.00    +0.025 C 
ATOM      4  C   UNL     1      32.072  -7.435 -23.412  0.00  0.00    +0.003 C 
ATOM      5  C   UNL     1      32.782  -8.480 -22.473  0.00  0.00    +0.015 C 
ATOM      6  C   UNL     1      30.267  -5.598 -23.667  0.00  0.00    +0.002 C 
ATOM      7  C   UNL     1      30.917  -6.643 -22.742  0.00  0.00    +0.000 C 
ATOM      8  C   UNL     1      30.798  -3.811 -25.466  0.00  0.00    +0.110 C 
ATOM      9  C   UNL     1      33.128  -4.509 -25.861  0.00  0.00    +0.003 C 
ATOM     10  C   UNL     1      34.197  -7.253 -24.849  0.00  0.00    +0.004 C 
ATOM     11  C   UNL     1      32.072  -3.460 -26.257  0.00  0.00    +0.029 C 
ATOM     12  C   UNL     1      33.832  -9.183 -23.345  0.00  0.00    -0.047 C 
ATOM     13  C   UNL     1      34.880  -8.294 -23.963  0.00  0.00    +0.022 C 
ATOM     14  C   UNL     1      31.793  -9.521 -21.861  0.00  0.00    +0.007 C 
ATOM     15  C   UNL     1      31.904  -3.746 -23.184  0.00  0.00    +0.002 C 
ATOM     16  C   UNL     1      33.463  -7.793 -21.262  0.00  0.00    +0.004 C 
ATOM     17  C   UNL     1      31.407 -10.630 -22.835  0.00  0.00    +0.034 C 
ATOM     18  C   UNL     1      33.778 -10.490 -23.663  0.00  0.00    -0.006 C 
ATOM     19  C   UNL     1      32.651 -11.400 -23.283  0.00  0.00    +0.132 C 
ENDROOT
BRANCH   8  20
ATOM     20  O   UNL     1      30.110  -2.640 -25.072  0.00  0.00    -0.384 OA
ATOM     21  H   UNL     1      29.408  -2.873 -24.445  0.00  0.00    +0.210 HD
ENDBRANCH   8  20
BRANCH  19  22
ATOM     22  O   UNL     1      33.109 -12.259 -22.245  0.00  0.00    -0.380 OA
ATOM     23  H   UNL     1      34.059 -12.119 -22.105  0.00  0.00    +0.211 HD
ENDBRANCH  19  22
TORSDOF 2
ENDMDL
MODEL 5
REMARK VINA RESULT:      -6.6     15.077     17.831
REMARK  Name = 136297
REMARK  2 active torsions:
REMARK  status: ('A' for Active; 'I' for Inactive)
REMARK    1  A    between atoms: C_8  and  O_20
REMARK    2  A    between atoms: C_19  and  O_22
REMARK                            x       y       z     vdW  Elec       q    Type
REMARK                         _______ _______ _______ _____ _____    ______ ____
ROOT
ATOM      1  C   UNL     1      32.182 -11.451 -22.372  0.00  0.00    +0.002 C 
ATOM      2  C   UNL     1      32.676 -10.041 -22.037  0.00  0.00    +0.001 C 
ATOM      3  C   UNL     1      33.034 -12.134 -23.460  0.00  0.00    +0.025 C 
ATOM      4  C   UNL     1      32.600  -9.161 -23.337  0.00  0.00    +0.003 C 
ATOM      5  C   UNL     1      33.041  -7.674 -23.063  0.00  0.00    +0.015 C 
ATOM      6  C   UNL     1      32.912 -11.309 -24.746  0.00  0.00    +0.002 C 
ATOM      7  C   UNL     1      33.329  -9.843 -24.526  0.00  0.00    +0.000 C 
ATOM      8  C   UNL     1      32.333 -13.505 -23.502  0.00  0.00    +0.110 C 
ATOM      9  C   UNL     1      32.113 -12.498 -21.264  0.00  0.00    +0.003 C 
ATOM     10  C   UNL     1      31.870  -9.417 -20.884  0.00  0.00    +0.004 C 
ATOM     11  C   UNL     1      32.071 -13.839 -22.021  0.00  0.00    +0.029 C 
ATOM     12  C   UNL     1      32.161  -7.182 -21.905  0.00  0.00    -0.047 C 
ATOM     13  C   UNL     1      32.262  -7.964 -20.620  0.00  0.00    +0.022 C 
ATOM     14  C   UNL     1      32.873  -6.749 -24.309  0.00  0.00    +0.007 C 
ATOM     15  C   UNL     1      34.531 -12.307 -23.097  0.00  0.00    +0.002 C 
ATOM     16  C   UNL     1      34.538  -7.583 -22.676  0.00  0.00    +0.004 C 
ATOM     17  C   UNL     1      31.433  -6.300 -24.536  0.00  0.00    +0.034 C 
ATOM     18  C   UNL     1      31.252  -6.198 -22.030  0.00  0.00    -0.006 C 
ATOM     19  C   UNL     1      30.922  -5.520 -23.324  0.00  0.00    +0.132 C 
ENDROOT
BRANCH   8  20
ATOM     20  O   UNL     1      33.098 -14.521 -24.121  0.00  0.00    -0.384 OA
ATOM     21  H   UNL     1      33.585 -14.147 -24.872  0.00  0.00    +0.210 HD
ENDBRANCH   8  20
BRANCH  19  22
ATOM     22  O   UNL     1      31.488  -4.214 -23.294  0.00  0.00    -0.380 OA
ATOM     23  H   UNL     1      31.756  -3.999 -22.386  0.00  0.00    +0.211 HD
ENDBRANCH  19  22
TORSDOF 2
ENDMDL
MODEL 6
REMARK VINA RESULT:      -6.5     11.227     13.947
REMARK  Name = 136297
REMARK  2 active torsions:
REMARK  status: ('A' for Active; 'I' for Inactive)
REMARK    1  A    between atoms: C_8  and  O_20
REMARK    2  A    between atoms: C_19  and  O_22
REMARK                            x       y       z     vdW  Elec       q    Type
REMARK                         _______ _______ _______ _____ _____    ______ ____
ROOT
ATOM      1  C   UNL     1      34.816 -16.824 -23.469  0.00  0.00    +0.002 C 
ATOM      2  C   UNL     1      33.814 -15.777 -23.962  0.00  0.00    +0.001 C 
ATOM      3  C   UNL     1      34.761 -17.024 -21.941  0.00  0.00    +0.025 C 
ATOM      4  C   UNL     1      34.152 -14.401 -23.280  0.00  0.00    +0.003 C 
ATOM      5  C   UNL     1      33.198 -13.252 -23.779  0.00  0.00    +0.015 C 
ATOM      6  C   UNL     1      35.149 -15.699 -21.275  0.00  0.00    +0.002 C 
ATOM      7  C   UNL     1      34.244 -14.541 -21.737  0.00  0.00    +0.000 C 
ATOM      8  C   UNL     1      35.804 -18.149 -21.798  0.00  0.00    +0.110 C 
ATOM      9  C   UNL     1      34.736 -18.247 -24.016  0.00  0.00    +0.003 C 
ATOM     10  C   UNL     1      33.822 -15.664 -25.497  0.00  0.00    +0.004 C 
ATOM     11  C   UNL     1      35.507 -19.088 -22.982  0.00  0.00    +0.029 C 
ATOM     12  C   UNL     1      33.307 -13.251 -25.311  0.00  0.00    -0.047 C 
ATOM     13  C   UNL     1      32.924 -14.535 -26.001  0.00  0.00    +0.022 C 
ATOM     14  C   UNL     1      33.577 -11.852 -23.202  0.00  0.00    +0.007 C 
ATOM     15  C   UNL     1      33.387 -17.493 -21.398  0.00  0.00    +0.002 C 
ATOM     16  C   UNL     1      31.731 -13.497 -23.345  0.00  0.00    +0.004 C 
ATOM     17  C   UNL     1      34.759 -11.206 -23.918  0.00  0.00    +0.034 C 
ATOM     18  C   UNL     1      33.827 -12.230 -26.017  0.00  0.00    -0.006 C 
ATOM     19  C   UNL     1      34.442 -11.012 -25.401  0.00  0.00    +0.132 C 
ENDROOT
BRANCH   8  20
ATOM     20  O   UNL     1      35.728 -18.847 -20.570  0.00  0.00    -0.384 OA
ATOM     21  H   UNL     1      36.119 -18.306 -19.866  0.00  0.00    +0.210 HD
ENDBRANCH   8  20
BRANCH  19  22
ATOM     22  O   UNL     1      33.540  -9.925 -25.582  0.00  0.00    -0.380 OA
ATOM     23  H   UNL     1      33.014 -10.071 -26.384  0.00  0.00    +0.211 HD
ENDBRANCH  19  22
TORSDOF 2
ENDMDL
MODEL 7
REMARK VINA RESULT:      -6.4      6.431      9.112
REMARK  Name = 136297
REMARK  2 active torsions:
REMARK  status: ('A' for Active; 'I' for Inactive)
REMARK    1  A    between atoms: C_8  and  O_20
REMARK    2  A    between atoms: C_19  and  O_22
REMARK                            x       y       z     vdW  Elec       q    Type
REMARK                         _______ _______ _______ _____ _____    ______ ____
ROOT
ATOM      1  C   UNL     1      35.539 -20.954 -19.127  0.00  0.00    +0.002 C 
ATOM      2  C   UNL     1      35.720 -20.310 -20.504  0.00  0.00    +0.001 C 
ATOM      3  C   UNL     1      34.338 -21.919 -19.077  0.00  0.00    +0.025 C 
ATOM      4  C   UNL     1      34.424 -19.489 -20.847  0.00  0.00    +0.003 C 
ATOM      5  C   UNL     1      34.553 -18.746 -22.230  0.00  0.00    +0.015 C 
ATOM      6  C   UNL     1      33.066 -21.108 -19.353  0.00  0.00    +0.002 C 
ATOM      7  C   UNL     1      33.147 -20.358 -20.696  0.00  0.00    +0.000 C 
ATOM      8  C   UNL     1      34.481 -22.424 -17.629  0.00  0.00    +0.110 C 
ATOM      9  C   UNL     1      36.680 -21.777 -18.533  0.00  0.00    +0.003 C 
ATOM     10  C   UNL     1      36.979 -19.426 -20.554  0.00  0.00    +0.004 C 
ATOM     11  C   UNL     1      35.997 -22.638 -17.455  0.00  0.00    +0.029 C 
ATOM     12  C   UNL     1      35.836 -17.908 -22.139  0.00  0.00    -0.047 C 
ATOM     13  C   UNL     1      37.108 -18.673 -21.878  0.00  0.00    +0.022 C 
ATOM     14  C   UNL     1      33.325 -17.836 -22.549  0.00  0.00    +0.007 C 
ATOM     15  C   UNL     1      34.419 -23.106 -20.071  0.00  0.00    +0.002 C 
ATOM     16  C   UNL     1      34.647 -19.746 -23.410  0.00  0.00    +0.004 C 
ATOM     17  C   UNL     1      33.356 -16.503 -21.808  0.00  0.00    +0.034 C 
ATOM     18  C   UNL     1      35.845 -16.562 -22.159  0.00  0.00    -0.006 C 
ATOM     19  C   UNL     1      34.612 -15.715 -22.184  0.00  0.00    +0.132 C 
ENDROOT
BRANCH   8  20
ATOM     20  O   UNL     1      33.769 -23.617 -17.365  0.00  0.00    -0.384 OA
ATOM     21  H   UNL     1      33.000 -23.671 -17.952  0.00  0.00    +0.210 HD
ENDBRANCH   8  20
BRANCH  19  22
ATOM     22  O   UNL     1      34.484 -15.163 -23.491  0.00  0.00    -0.380 OA
ATOM     23  H   UNL     1      34.346 -14.205 -23.425  0.00  0.00    +0.211 HD
ENDBRANCH  19  22
TORSDOF 2
ENDMDL
MODEL 8
REMARK VINA RESULT:      -6.3     13.468     15.857
REMARK  Name = 136297
REMARK  2 active torsions:
REMARK  status: ('A' for Active; 'I' for Inactive)
REMARK    1  A    between atoms: C_8  and  O_20
REMARK    2  A    between atoms: C_19  and  O_22
REMARK                            x       y       z     vdW  Elec       q    Type
REMARK                         _______ _______ _______ _____ _____    ______ ____
ROOT
ATOM      1  C   UNL     1      32.780  -9.132 -22.136  0.00  0.00    +0.002 C 
ATOM      2  C   UNL     1      32.182 -10.541 -22.184  0.00  0.00    +0.001 C 
ATOM      3  C   UNL     1      33.254  -8.641 -23.518  0.00  0.00    +0.025 C 
ATOM      4  C   UNL     1      33.285 -11.535 -22.700  0.00  0.00    +0.003 C 
ATOM      5  C   UNL     1      32.766 -13.021 -22.727  0.00  0.00    +0.015 C 
ATOM      6  C   UNL     1      34.373  -9.576 -23.995  0.00  0.00    +0.002 C 
ATOM      7  C   UNL     1      33.912 -11.045 -24.033  0.00  0.00    +0.000 C 
ATOM      8  C   UNL     1      33.717  -7.223 -23.135  0.00  0.00    +0.110 C 
ATOM      9  C   UNL     1      31.923  -7.977 -21.624  0.00  0.00    +0.003 C 
ATOM     10  C   UNL     1      31.630 -10.970 -20.814  0.00  0.00    +0.004 C 
ATOM     11  C   UNL     1      32.627  -6.721 -22.169  0.00  0.00    +0.029 C 
ATOM     12  C   UNL     1      32.253 -13.313 -21.309  0.00  0.00    -0.047 C 
ATOM     13  C   UNL     1      31.147 -12.420 -20.810  0.00  0.00    +0.022 C 
ATOM     14  C   UNL     1      33.871 -14.047 -23.131  0.00  0.00    +0.007 C 
ATOM     15  C   UNL     1      32.144  -8.571 -24.597  0.00  0.00    +0.002 C 
ATOM     16  C   UNL     1      31.626 -13.211 -23.759  0.00  0.00    +0.004 C 
ATOM     17  C   UNL     1      34.828 -14.382 -21.990  0.00  0.00    +0.034 C 
ATOM     18  C   UNL     1      32.818 -14.217 -20.487  0.00  0.00    -0.006 C 
ATOM     19  C   UNL     1      34.060 -14.987 -20.814  0.00  0.00    +0.132 C 
ENDROOT
BRANCH   8  20
ATOM     20  O   UNL     1      33.856  -6.348 -24.237  0.00  0.00    -0.384 OA
ATOM     21  H   UNL     1      34.050  -6.863 -25.036  0.00  0.00    +0.210 HD
ENDBRANCH   8  20
BRANCH  19  22
ATOM     22  O   UNL     1      33.684 -16.329 -21.099  0.00  0.00    -0.380 OA
ATOM     23  H   UNL     1      33.297 -16.732 -20.306  0.00  0.00    +0.211 HD
ENDBRANCH  19  22
TORSDOF 2
ENDMDL
MODEL 9
REMARK VINA RESULT:      -6.3     12.053     14.819
REMARK  Name = 136297
REMARK  2 active torsions:
REMARK  status: ('A' for Active; 'I' for Inactive)
REMARK    1  A    between atoms: C_8  and  O_20
REMARK    2  A    between atoms: C_19  and  O_22
REMARK                            x       y       z     vdW  Elec       q    Type
REMARK                         _______ _______ _______ _____ _____    ______ ____
ROOT
ATOM      1  C   UNL     1      34.033 -14.030 -22.319  0.00  0.00    +0.002 C 
ATOM      2  C   UNL     1      33.007 -12.935 -22.624  0.00  0.00    +0.001 C 
ATOM      3  C   UNL     1      33.521 -15.051 -21.284  0.00  0.00    +0.025 C 
ATOM      4  C   UNL     1      32.693 -12.160 -21.294  0.00  0.00    +0.003 C 
ATOM      5  C   UNL     1      31.683 -10.975 -21.532  0.00  0.00    +0.015 C 
ATOM      6  C   UNL     1      33.271 -14.305 -19.967  0.00  0.00    +0.002 C 
ATOM      7  C   UNL     1      32.290 -13.132 -20.152  0.00  0.00    +0.000 C 
ATOM      8  C   UNL     1      34.725 -16.012 -21.263  0.00  0.00    +0.110 C 
ATOM      9  C   UNL     1      34.546 -14.908 -23.458  0.00  0.00    +0.003 C 
ATOM     10  C   UNL     1      33.503 -11.986 -23.729  0.00  0.00    +0.004 C 
ATOM     11  C   UNL     1      35.124 -16.144 -22.745  0.00  0.00    +0.029 C 
ATOM     12  C   UNL     1      32.300 -10.115 -22.644  0.00  0.00    -0.047 C 
ATOM     13  C   UNL     1      32.551 -10.812 -23.956  0.00  0.00    +0.022 C 
ATOM     14  C   UNL     1      31.434 -10.119 -20.251  0.00  0.00    +0.007 C 
ATOM     15  C   UNL     1      32.235 -15.808 -21.701  0.00  0.00    +0.002 C 
ATOM     16  C   UNL     1      30.287 -11.491 -21.965  0.00  0.00    +0.004 C 
ATOM     17  C   UNL     1      32.557  -9.127 -19.962  0.00  0.00    +0.034 C 
ATOM     18  C   UNL     1      32.720  -8.850 -22.457  0.00  0.00    -0.006 C 
ATOM     19  C   UNL     1      32.721  -8.154 -21.131  0.00  0.00    +0.132 C 
ENDROOT
BRANCH   8  20
ATOM     20  O   UNL     1      34.436 -17.279 -20.704  0.00  0.00    -0.384 OA
ATOM     21  H   UNL     1      34.878 -17.969 -21.223  0.00  0.00    +0.210 HD
ENDBRANCH   8  20
BRANCH  19  22
ATOM     22  O   UNL     1      31.668  -7.197 -21.136  0.00  0.00    -0.380 OA
ATOM     23  H   UNL     1      31.779  -6.597 -21.891  0.00  0.00    +0.211 HD
ENDBRANCH  19  22
TORSDOF 2
ENDMDL
