MODEL 1
REMARK VINA RESULT:      -9.6      0.000      0.000
REMARK  Name = 17754134
REMARK  5 active torsions:
REMARK  status: ('A' for Active; 'I' for Inactive)
REMARK    1  A    between atoms: C_3  and  C_15
REMARK    2  A    between atoms: C_15  and  CA_16
REMARK    3  A    between atoms: CA_16  and  N_17
REMARK    4  A    between atoms: CA_16  and  C_22
REMARK    5  A    between atoms: C_22  and  O_23
REMARK                            x       y       z     vdW  Elec       q    Type
REMARK                         _______ _______ _______ _____ _____    ______ ____
ROOT
ATOM      1  N   UNL     1      36.521 -23.198 -16.155  0.00  0.00    -0.408 NA
ATOM      2  N   UNL     1      36.487 -21.727 -18.461  0.00  0.00    -0.242 NA
ATOM      3  C   UNL     1      36.518 -23.928 -15.017  0.00  0.00    +0.107 C 
ATOM      4  C   UNL     1      35.351 -22.966 -16.786  0.00  0.00    +0.134 C 
ATOM      5  C   UNL     1      34.139 -23.476 -16.268  0.00  0.00    +0.098 C 
ATOM      6  C   UNL     1      35.333 -22.217 -17.961  0.00  0.00    +0.107 C 
ATOM      7  C   UNL     1      34.104 -21.978 -18.616  0.00  0.00    +0.020 C 
ATOM      8  C   UNL     1      35.383 -24.462 -14.445  0.00  0.00    +0.024 C 
ATOM      9  C   UNL     1      34.177 -24.228 -15.086  0.00  0.00    -0.013 C 
ATOM     10  C   UNL     1      32.928 -23.234 -16.924  0.00  0.00    -0.015 C 
ATOM     11  C   UNL     1      32.911 -22.488 -18.094  0.00  0.00    -0.002 C 
ATOM     12  C   UNL     1      34.108 -21.221 -19.795  0.00  0.00    +0.003 C 
ATOM     13  C   UNL     1      35.296 -20.722 -20.302  0.00  0.00    +0.021 C 
ATOM     14  C   UNL     1      36.450 -21.001 -19.602  0.00  0.00    +0.099 C 
ENDROOT
BRANCH   3  15
ATOM     15  C   UNL     1      37.841 -24.152 -14.364  0.00  0.00    +0.048 C 
BRANCH  15  16
ATOM     16  CA  UNL     1      38.500 -25.495 -14.749  0.00  0.00    +0.043 C 
BRANCH  16  17
ATOM     17  N   UNL     1      38.298 -26.483 -13.692  0.00  0.00    +0.389 N 
ATOM     18  H1  UNL     1      37.500 -27.073 -13.926  0.00  0.00    -0.088 HD
ATOM     19  H2  UNL     1      38.119 -26.004 -12.809  0.00  0.00    -0.088 HD
ATOM     20  H3  UNL     1      39.134 -27.061 -13.603  0.00  0.00    -0.088 HD
ENDBRANCH  16  17
BRANCH  16  22
ATOM     21  OXT UNL     1      40.753 -24.788 -14.153  0.00  0.00    -0.253 OA
ATOM     22  C   UNL     1      40.001 -25.357 -14.934  0.00  0.00    +0.293 C 
BRANCH  22  23
ATOM     23  O   UNL     1      40.442 -25.971 -16.064  0.00  0.00    -0.482 OA
ATOM     24  H   UNL     1      40.082 -25.735 -16.896  0.00  0.00    +0.295 HD
ENDBRANCH  22  23
ENDBRANCH  16  22
ENDBRANCH  15  16
ENDBRANCH   3  15
TORSDOF 5
ENDMDL
MODEL 2
REMARK VINA RESULT:      -9.4      3.248      4.649
REMARK  Name = 17754134
REMARK  5 active torsions:
REMARK  status: ('A' for Active; 'I' for Inactive)
REMARK    1  A    between atoms: C_3  and  C_15
REMARK    2  A    between atoms: C_15  and  CA_16
REMARK    3  A    between atoms: CA_16  and  N_17
REMARK    4  A    between atoms: CA_16  and  C_22
REMARK    5  A    between atoms: C_22  and  O_23
REMARK                            x       y       z     vdW  Elec       q    Type
REMARK                         _______ _______ _______ _____ _____    ______ ____
ROOT
ATOM      1  N   UNL     1      35.057 -23.479 -13.885  0.00  0.00    -0.408 NA
ATOM      2  N   UNL     1      32.367 -23.885 -13.603  0.00  0.00    -0.242 NA
ATOM      3  C   UNL     1      36.385 -23.275 -14.044  0.00  0.00    +0.107 C 
ATOM      4  C   UNL     1      34.246 -23.369 -14.957  0.00  0.00    +0.134 C 
ATOM      5  C   UNL     1      34.771 -23.044 -16.228  0.00  0.00    +0.098 C 
ATOM      6  C   UNL     1      32.875 -23.574 -14.814  0.00  0.00    +0.107 C 
ATOM      7  C   UNL     1      32.032 -23.456 -15.941  0.00  0.00    +0.020 C 
ATOM      8  C   UNL     1      36.978 -22.956 -15.246  0.00  0.00    +0.024 C 
ATOM      9  C   UNL     1      36.152 -22.840 -16.352  0.00  0.00    -0.013 C 
ATOM     10  C   UNL     1      33.928 -22.930 -17.337  0.00  0.00    -0.015 C 
ATOM     11  C   UNL     1      32.563 -23.135 -17.194  0.00  0.00    -0.002 C 
ATOM     12  C   UNL     1      30.657 -23.668 -15.777  0.00  0.00    +0.003 C 
ATOM     13  C   UNL     1      30.143 -23.986 -14.530  0.00  0.00    +0.021 C 
ATOM     14  C   UNL     1      31.034 -24.082 -13.483  0.00  0.00    +0.099 C 
ENDROOT
BRANCH   3  15
ATOM     15  C   UNL     1      37.231 -23.412 -12.822  0.00  0.00    +0.048 C 
BRANCH  15  16
ATOM     16  CA  UNL     1      37.004 -24.736 -12.059  0.00  0.00    +0.043 C 
BRANCH  16  17
ATOM     17  N   UNL     1      36.604 -25.794 -12.984  0.00  0.00    +0.389 N 
ATOM     18  H1  UNL     1      35.952 -26.425 -12.519  0.00  0.00    -0.088 HD
ATOM     19  H2  UNL     1      37.429 -26.316 -13.280  0.00  0.00    -0.088 HD
ATOM     20  H3  UNL     1      36.153 -25.380 -13.800  0.00  0.00    -0.088 HD
ENDBRANCH  16  17
BRANCH  16  22
ATOM     21  OXT UNL     1      36.037 -24.203  -9.888  0.00  0.00    -0.253 OA
ATOM     22  C   UNL     1      35.891 -24.614 -11.032  0.00  0.00    +0.293 C 
BRANCH  22  23
ATOM     23  O   UNL     1      34.683 -24.983 -11.533  0.00  0.00    -0.482 OA
ATOM     24  H   UNL     1      34.634 -25.624 -12.214  0.00  0.00    +0.295 HD
ENDBRANCH  22  23
ENDBRANCH  16  22
ENDBRANCH  15  16
ENDBRANCH   3  15
TORSDOF 5
ENDMDL
MODEL 3
REMARK VINA RESULT:      -9.3      1.476      1.553
REMARK  Name = 17754134
REMARK  5 active torsions:
REMARK  status: ('A' for Active; 'I' for Inactive)
REMARK    1  A    between atoms: C_3  and  C_15
REMARK    2  A    between atoms: C_15  and  CA_16
REMARK    3  A    between atoms: CA_16  and  N_17
REMARK    4  A    between atoms: CA_16  and  C_22
REMARK    5  A    between atoms: C_22  and  O_23
REMARK                            x       y       z     vdW  Elec       q    Type
REMARK                         _______ _______ _______ _____ _____    ______ ____
ROOT
ATOM      1  N   UNL     1      36.179 -23.252 -15.492  0.00  0.00    -0.408 NA
ATOM      2  N   UNL     1      36.292 -22.072 -17.957  0.00  0.00    -0.242 NA
ATOM      3  C   UNL     1      36.103 -23.838 -14.275  0.00  0.00    +0.107 C 
ATOM      4  C   UNL     1      35.049 -23.091 -16.211  0.00  0.00    +0.134 C 
ATOM      5  C   UNL     1      33.804 -23.527 -15.705  0.00  0.00    +0.098 C 
ATOM      6  C   UNL     1      35.106 -22.490 -17.468  0.00  0.00    +0.107 C 
ATOM      7  C   UNL     1      33.919 -22.325 -18.215  0.00  0.00    +0.020 C 
ATOM      8  C   UNL     1      34.931 -24.291 -13.708  0.00  0.00    +0.024 C 
ATOM      9  C   UNL     1      33.766 -24.129 -14.441  0.00  0.00    -0.013 C 
ATOM     10  C   UNL     1      32.634 -23.359 -16.454  0.00  0.00    -0.015 C 
ATOM     11  C   UNL     1      32.692 -22.760 -17.704  0.00  0.00    -0.002 C 
ATOM     12  C   UNL     1      33.997 -21.718 -19.476  0.00  0.00    +0.003 C 
ATOM     13  C   UNL     1      35.219 -21.292 -19.971  0.00  0.00    +0.021 C 
ATOM     14  C   UNL     1      36.328 -21.490 -19.178  0.00  0.00    +0.099 C 
ENDROOT
BRANCH   3  15
ATOM     15  C   UNL     1      37.385 -23.988 -13.527  0.00  0.00    +0.048 C 
BRANCH  15  16
ATOM     16  CA  UNL     1      38.365 -24.990 -14.177  0.00  0.00    +0.043 C 
BRANCH  16  17
ATOM     17  N   UNL     1      38.845 -24.474 -15.457  0.00  0.00    +0.389 N 
ATOM     18  H1  UNL     1      39.017 -23.472 -15.377  0.00  0.00    -0.088 HD
ATOM     19  H2  UNL     1      38.143 -24.642 -16.177  0.00  0.00    -0.088 HD
ATOM     20  H3  UNL     1      39.712 -24.948 -15.710  0.00  0.00    -0.088 HD
ENDBRANCH  16  17
BRANCH  16  22
ATOM     21  OXT UNL     1      37.300 -27.108 -13.616  0.00  0.00    -0.253 OA
ATOM     22  C   UNL     1      37.699 -26.324 -14.468  0.00  0.00    +0.293 C 
BRANCH  22  23
ATOM     23  O   UNL     1      37.559 -26.551 -15.801  0.00  0.00    -0.482 OA
ATOM     24  H   UNL     1      37.490 -25.830 -16.394  0.00  0.00    +0.295 HD
ENDBRANCH  22  23
ENDBRANCH  16  22
ENDBRANCH  15  16
ENDBRANCH   3  15
TORSDOF 5
ENDMDL
MODEL 4
REMARK VINA RESULT:      -9.2      5.718      8.790
REMARK  Name = 17754134
REMARK  5 active torsions:
REMARK  status: ('A' for Active; 'I' for Inactive)
REMARK    1  A    between atoms: C_3  and  C_15
REMARK    2  A    between atoms: C_15  and  CA_16
REMARK    3  A    between atoms: CA_16  and  N_17
REMARK    4  A    between atoms: CA_16  and  C_22
REMARK    5  A    between atoms: C_22  and  O_23
REMARK                            x       y       z     vdW  Elec       q    Type
REMARK                         _______ _______ _______ _____ _____    ______ ____
ROOT
ATOM      1  N   UNL     1      34.254 -17.888 -21.349  0.00  0.00    -0.408 NA
ATOM      2  N   UNL     1      33.141 -15.456 -20.777  0.00  0.00    -0.242 NA
ATOM      3  C   UNL     1      34.806 -19.085 -21.652  0.00  0.00    +0.107 C 
ATOM      4  C   UNL     1      34.093 -16.976 -22.330  0.00  0.00    +0.134 C 
ATOM      5  C   UNL     1      34.493 -17.263 -23.654  0.00  0.00    +0.098 C 
ATOM      6  C   UNL     1      33.526 -15.737 -22.039  0.00  0.00    +0.107 C 
ATOM      7  C   UNL     1      33.360 -14.787 -23.072  0.00  0.00    +0.020 C 
ATOM      8  C   UNL     1      35.224 -19.445 -22.915  0.00  0.00    +0.024 C 
ATOM      9  C   UNL     1      35.062 -18.514 -23.928  0.00  0.00    -0.013 C 
ATOM     10  C   UNL     1      34.325 -16.316 -24.669  0.00  0.00    -0.015 C 
ATOM     11  C   UNL     1      33.760 -15.082 -24.379  0.00  0.00    -0.002 C 
ATOM     12  C   UNL     1      32.787 -13.547 -22.758  0.00  0.00    +0.003 C 
ATOM     13  C   UNL     1      32.395 -13.267 -21.459  0.00  0.00    +0.021 C 
ATOM     14  C   UNL     1      32.592 -14.248 -20.513  0.00  0.00    +0.099 C 
ENDROOT
BRANCH   3  15
ATOM     15  C   UNL     1      34.959 -20.053 -20.526  0.00  0.00    +0.048 C 
BRANCH  15  16
ATOM     16  CA  UNL     1      33.748 -20.995 -20.354  0.00  0.00    +0.043 C 
BRANCH  16  17
ATOM     17  N   UNL     1      32.554 -20.230 -19.999  0.00  0.00    +0.389 N 
ATOM     18  H1  UNL     1      31.745 -20.850 -19.985  0.00  0.00    -0.088 HD
ATOM     19  H2  UNL     1      32.405 -19.492 -20.687  0.00  0.00    -0.088 HD
ATOM     20  H3  UNL     1      32.679 -19.815 -19.076  0.00  0.00    -0.088 HD
ENDBRANCH  16  17
BRANCH  16  22
ATOM     21  OXT UNL     1      35.061 -22.402 -18.862  0.00  0.00    -0.253 OA
ATOM     22  C   UNL     1      33.967 -22.002 -19.238  0.00  0.00    +0.293 C 
BRANCH  22  23
ATOM     23  O   UNL     1      32.801 -22.398 -18.663  0.00  0.00    -0.482 OA
ATOM     24  H   UNL     1      32.304 -21.794 -18.147  0.00  0.00    +0.295 HD
ENDBRANCH  22  23
ENDBRANCH  16  22
ENDBRANCH  15  16
ENDBRANCH   3  15
TORSDOF 5
ENDMDL
MODEL 5
REMARK VINA RESULT:      -9.0      1.457      2.364
REMARK  Name = 17754134
REMARK  5 active torsions:
REMARK  status: ('A' for Active; 'I' for Inactive)
REMARK    1  A    between atoms: C_3  and  C_15
REMARK    2  A    between atoms: C_15  and  CA_16
REMARK    3  A    between atoms: CA_16  and  N_17
REMARK    4  A    between atoms: CA_16  and  C_22
REMARK    5  A    between atoms: C_22  and  O_23
REMARK                            x       y       z     vdW  Elec       q    Type
REMARK                         _______ _______ _______ _____ _____    ______ ____
ROOT
ATOM      1  N   UNL     1      36.280 -23.926 -14.764  0.00  0.00    -0.408 NA
ATOM      2  N   UNL     1      35.142 -23.079 -17.102  0.00  0.00    -0.242 NA
ATOM      3  C   UNL     1      36.825 -24.346 -13.599  0.00  0.00    +0.107 C 
ATOM      4  C   UNL     1      34.943 -23.769 -14.841  0.00  0.00    +0.134 C 
ATOM      5  C   UNL     1      34.120 -24.039 -13.725  0.00  0.00    +0.098 C 
ATOM      6  C   UNL     1      34.362 -23.338 -16.032  0.00  0.00    +0.107 C 
ATOM      7  C   UNL     1      32.961 -23.176 -16.105  0.00  0.00    +0.020 C 
ATOM      8  C   UNL     1      36.096 -24.631 -12.464  0.00  0.00    +0.024 C 
ATOM      9  C   UNL     1      34.721 -24.472 -12.535  0.00  0.00    -0.013 C 
ATOM     10  C   UNL     1      32.733 -23.875 -13.807  0.00  0.00    -0.015 C 
ATOM     11  C   UNL     1      32.156 -23.445 -14.994  0.00  0.00    -0.002 C 
ATOM     12  C   UNL     1      32.397 -22.740 -17.312  0.00  0.00    +0.003 C 
ATOM     13  C   UNL     1      33.205 -22.477 -18.406  0.00  0.00    +0.021 C 
ATOM     14  C   UNL     1      34.561 -22.660 -18.250  0.00  0.00    +0.099 C 
ENDROOT
BRANCH   3  15
ATOM     15  C   UNL     1      38.309 -24.501 -13.574  0.00  0.00    +0.048 C 
BRANCH  15  16
ATOM     16  CA  UNL     1      38.840 -25.520 -14.607  0.00  0.00    +0.043 C 
BRANCH  16  17
ATOM     17  N   UNL     1      38.241 -26.833 -14.379  0.00  0.00    +0.389 N 
ATOM     18  H1  UNL     1      37.654 -27.082 -15.175  0.00  0.00    -0.088 HD
ATOM     19  H2  UNL     1      37.673 -26.806 -13.533  0.00  0.00    -0.088 HD
ATOM     20  H3  UNL     1      38.980 -27.529 -14.271  0.00  0.00    -0.088 HD
ENDBRANCH  16  17
BRANCH  16  22
ATOM     21  OXT UNL     1      40.931 -26.769 -14.643  0.00  0.00    -0.253 OA
ATOM     22  C   UNL     1      40.344 -25.703 -14.499  0.00  0.00    +0.293 C 
BRANCH  22  23
ATOM     23  O   UNL     1      40.991 -24.534 -14.255  0.00  0.00    -0.482 OA
ATOM     24  H   UNL     1      41.280 -24.000 -14.969  0.00  0.00    +0.295 HD
ENDBRANCH  22  23
ENDBRANCH  16  22
ENDBRANCH  15  16
ENDBRANCH   3  15
TORSDOF 5
ENDMDL
MODEL 6
REMARK VINA RESULT:      -8.9      5.200      6.888
REMARK  Name = 17754134
REMARK  5 active torsions:
REMARK  status: ('A' for Active; 'I' for Inactive)
REMARK    1  A    between atoms: C_3  and  C_15
REMARK    2  A    between atoms: C_15  and  CA_16
REMARK    3  A    between atoms: CA_16  and  N_17
REMARK    4  A    between atoms: CA_16  and  C_22
REMARK    5  A    between atoms: C_22  and  O_23
REMARK                            x       y       z     vdW  Elec       q    Type
REMARK                         _______ _______ _______ _____ _____    ______ ____
ROOT
ATOM      1  N   UNL     1      31.663 -23.398 -16.571  0.00  0.00    -0.408 NA
ATOM      2  N   UNL     1      32.958 -22.241 -18.685  0.00  0.00    -0.242 NA
ATOM      3  C   UNL     1      31.041 -23.971 -15.516  0.00  0.00    +0.107 C 
ATOM      4  C   UNL     1      33.001 -23.227 -16.527  0.00  0.00    +0.134 C 
ATOM      5  C   UNL     1      33.743 -23.639 -15.398  0.00  0.00    +0.098 C 
ATOM      6  C   UNL     1      33.661 -22.637 -17.603  0.00  0.00    +0.107 C 
ATOM      7  C   UNL     1      35.062 -22.462 -17.550  0.00  0.00    +0.020 C 
ATOM      8  C   UNL     1      31.689 -24.401 -14.378  0.00  0.00    +0.024 C 
ATOM      9  C   UNL     1      33.063 -24.229 -14.324  0.00  0.00    -0.013 C 
ATOM     10  C   UNL     1      35.130 -23.461 -15.355  0.00  0.00    -0.015 C 
ATOM     11  C   UNL     1      35.786 -22.874 -16.427  0.00  0.00    -0.002 C 
ATOM     12  C   UNL     1      35.706 -21.868 -18.643  0.00  0.00    +0.003 C 
ATOM     13  C   UNL     1      34.977 -21.464 -19.749  0.00  0.00    +0.021 C 
ATOM     14  C   UNL     1      33.616 -21.672 -19.721  0.00  0.00    +0.099 C 
ENDROOT
BRANCH   3  15
ATOM     15  C   UNL     1      29.561 -24.134 -15.623  0.00  0.00    +0.048 C 
BRANCH  15  16
ATOM     16  CA  UNL     1      28.860 -22.952 -16.328  0.00  0.00    +0.043 C 
BRANCH  16  17
ATOM     17  N   UNL     1      28.135 -22.137 -15.355  0.00  0.00    +0.389 N 
ATOM     18  H1  UNL     1      28.675 -21.298 -15.145  0.00  0.00    -0.088 HD
ATOM     19  H2  UNL     1      27.994 -22.674 -14.500  0.00  0.00    -0.088 HD
ATOM     20  H3  UNL     1      27.230 -21.871 -15.744  0.00  0.00    -0.088 HD
ENDBRANCH  16  17
BRANCH  16  22
ATOM     21  OXT UNL     1      27.133 -22.689 -18.025  0.00  0.00    -0.253 OA
ATOM     22  C   UNL     1      27.838 -23.425 -17.346  0.00  0.00    +0.293 C 
BRANCH  22  23
ATOM     23  O   UNL     1      27.806 -24.779 -17.455  0.00  0.00    -0.482 OA
ATOM     24  H   UNL     1      26.985 -25.226 -17.515  0.00  0.00    +0.295 HD
ENDBRANCH  22  23
ENDBRANCH  16  22
ENDBRANCH  15  16
ENDBRANCH   3  15
TORSDOF 5
ENDMDL
MODEL 7
REMARK VINA RESULT:      -8.9      4.380      7.275
REMARK  Name = 17754134
REMARK  5 active torsions:
REMARK  status: ('A' for Active; 'I' for Inactive)
REMARK    1  A    between atoms: C_3  and  C_15
REMARK    2  A    between atoms: C_15  and  CA_16
REMARK    3  A    between atoms: CA_16  and  N_17
REMARK    4  A    between atoms: CA_16  and  C_22
REMARK    5  A    between atoms: C_22  and  O_23
REMARK                            x       y       z     vdW  Elec       q    Type
REMARK                         _______ _______ _______ _____ _____    ______ ____
ROOT
ATOM      1  N   UNL     1      35.910 -20.772 -19.303  0.00  0.00    -0.408 NA
ATOM      2  N   UNL     1      37.081 -22.005 -17.160  0.00  0.00    -0.242 NA
ATOM      3  C   UNL     1      35.313 -20.172 -20.358  0.00  0.00    +0.107 C 
ATOM      4  C   UNL     1      35.188 -21.616 -18.537  0.00  0.00    +0.134 C 
ATOM      5  C   UNL     1      33.829 -21.871 -18.829  0.00  0.00    +0.098 C 
ATOM      6  C   UNL     1      35.784 -22.244 -17.445  0.00  0.00    +0.107 C 
ATOM      7  C   UNL     1      35.021 -23.126 -16.647  0.00  0.00    +0.020 C 
ATOM      8  C   UNL     1      33.995 -20.365 -20.712  0.00  0.00    +0.024 C 
ATOM      9  C   UNL     1      33.247 -21.230 -19.931  0.00  0.00    -0.013 C 
ATOM     10  C   UNL     1      33.083 -22.746 -18.033  0.00  0.00    -0.015 C 
ATOM     11  C   UNL     1      33.677 -23.372 -16.947  0.00  0.00    -0.002 C 
ATOM     12  C   UNL     1      35.639 -23.748 -15.554  0.00  0.00    +0.003 C 
ATOM     13  C   UNL     1      36.972 -23.497 -15.269  0.00  0.00    +0.021 C 
ATOM     14  C   UNL     1      37.643 -22.624 -16.096  0.00  0.00    +0.099 C 
ENDROOT
BRANCH   3  15
ATOM     15  C   UNL     1      36.163 -19.249 -21.168  0.00  0.00    +0.048 C 
BRANCH  15  16
ATOM     16  CA  UNL     1      35.353 -18.352 -22.130  0.00  0.00    +0.043 C 
BRANCH  16  17
ATOM     17  N   UNL     1      36.072 -18.180 -23.391  0.00  0.00    +0.389 N 
ATOM     18  H1  UNL     1      36.100 -19.068 -23.890  0.00  0.00    -0.088 HD
ATOM     19  H2  UNL     1      37.024 -17.867 -23.200  0.00  0.00    -0.088 HD
ATOM     20  H3  UNL     1      35.593 -17.484 -23.962  0.00  0.00    -0.088 HD
ENDBRANCH  16  17
BRANCH  16  22
ATOM     21  OXT UNL     1      35.213 -16.672 -20.372  0.00  0.00    -0.253 OA
ATOM     22  C   UNL     1      35.136 -16.961 -21.560  0.00  0.00    +0.293 C 
BRANCH  22  23
ATOM     23  O   UNL     1      34.875 -16.042 -22.525  0.00  0.00    -0.482 OA
ATOM     24  H   UNL     1      35.569 -15.523 -22.879  0.00  0.00    +0.295 HD
ENDBRANCH  22  23
ENDBRANCH  16  22
ENDBRANCH  15  16
ENDBRANCH   3  15
TORSDOF 5
ENDMDL
MODEL 8
REMARK VINA RESULT:      -8.9      1.614      1.805
REMARK  Name = 17754134
REMARK  5 active torsions:
REMARK  status: ('A' for Active; 'I' for Inactive)
REMARK    1  A    between atoms: C_3  and  C_15
REMARK    2  A    between atoms: C_15  and  CA_16
REMARK    3  A    between atoms: CA_16  and  N_17
REMARK    4  A    between atoms: CA_16  and  C_22
REMARK    5  A    between atoms: C_22  and  O_23
REMARK                            x       y       z     vdW  Elec       q    Type
REMARK                         _______ _______ _______ _____ _____    ______ ____
ROOT
ATOM      1  N   UNL     1      36.426 -22.991 -16.078  0.00  0.00    -0.408 NA
ATOM      2  N   UNL     1      36.608 -21.613 -18.433  0.00  0.00    -0.242 NA
ATOM      3  C   UNL     1      36.316 -23.675 -14.916  0.00  0.00    +0.107 C 
ATOM      4  C   UNL     1      35.323 -22.803 -16.832  0.00  0.00    +0.134 C 
ATOM      5  C   UNL     1      34.072 -23.312 -16.419  0.00  0.00    +0.098 C 
ATOM      6  C   UNL     1      35.416 -22.102 -18.033  0.00  0.00    +0.107 C 
ATOM      7  C   UNL     1      34.257 -21.909 -18.818  0.00  0.00    +0.020 C 
ATOM      8  C   UNL     1      35.136 -24.204 -14.440  0.00  0.00    +0.024 C 
ATOM      9  C   UNL     1      33.999 -24.016 -15.210  0.00  0.00    -0.013 C 
ATOM     10  C   UNL     1      32.931 -23.116 -17.204  0.00  0.00    -0.015 C 
ATOM     11  C   UNL     1      33.023 -22.417 -18.398  0.00  0.00    -0.002 C 
ATOM     12  C   UNL     1      34.371 -21.200 -20.021  0.00  0.00    +0.003 C 
ATOM     13  C   UNL     1      35.599 -20.702 -20.425  0.00  0.00    +0.021 C 
ATOM     14  C   UNL     1      36.678 -20.933 -19.601  0.00  0.00    +0.099 C 
ENDROOT
BRANCH   3  15
ATOM     15  C   UNL     1      37.569 -23.850 -14.124  0.00  0.00    +0.048 C 
BRANCH  15  16
ATOM     16  CA  UNL     1      37.323 -24.350 -12.684  0.00  0.00    +0.043 C 
BRANCH  16  17
ATOM     17  N   UNL     1      38.204 -23.656 -11.747  0.00  0.00    +0.389 N 
ATOM     18  H1  UNL     1      37.664 -22.978 -11.210  0.00  0.00    -0.088 HD
ATOM     19  H2  UNL     1      38.938 -23.173 -12.264  0.00  0.00    -0.088 HD
ATOM     20  H3  UNL     1      38.626 -24.335 -11.112  0.00  0.00    -0.088 HD
ENDBRANCH  16  17
BRANCH  16  22
ATOM     21  OXT UNL     1      37.020 -26.597 -11.794  0.00  0.00    -0.253 OA
ATOM     22  C   UNL     1      37.619 -25.833 -12.541  0.00  0.00    +0.293 C 
BRANCH  22  23
ATOM     23  O   UNL     1      38.614 -26.244 -13.370  0.00  0.00    -0.482 OA
ATOM     24  H   UNL     1      38.412 -26.758 -14.126  0.00  0.00    +0.295 HD
ENDBRANCH  22  23
ENDBRANCH  16  22
ENDBRANCH  15  16
ENDBRANCH   3  15
TORSDOF 5
ENDMDL
MODEL 9
REMARK VINA RESULT:      -8.8      5.068      6.310
REMARK  Name = 17754134
REMARK  5 active torsions:
REMARK  status: ('A' for Active; 'I' for Inactive)
REMARK    1  A    between atoms: C_3  and  C_15
REMARK    2  A    between atoms: C_15  and  CA_16
REMARK    3  A    between atoms: CA_16  and  N_17
REMARK    4  A    between atoms: CA_16  and  C_22
REMARK    5  A    between atoms: C_22  and  O_23
REMARK                            x       y       z     vdW  Elec       q    Type
REMARK                         _______ _______ _______ _____ _____    ______ ____
ROOT
ATOM      1  N   UNL     1      32.540 -22.516 -17.964  0.00  0.00    -0.408 NA
ATOM      2  N   UNL     1      32.732 -20.873 -20.142  0.00  0.00    -0.242 NA
ATOM      3  C   UNL     1      32.466 -23.327 -16.885  0.00  0.00    +0.107 C 
ATOM      4  C   UNL     1      33.749 -22.070 -18.364  0.00  0.00    +0.134 C 
ATOM      5  C   UNL     1      34.922 -22.443 -17.669  0.00  0.00    +0.098 C 
ATOM      6  C   UNL     1      33.847 -21.233 -19.474  0.00  0.00    +0.107 C 
ATOM      7  C   UNL     1      35.117 -20.770 -19.887  0.00  0.00    +0.020 C 
ATOM      8  C   UNL     1      33.558 -23.738 -16.151  0.00  0.00    +0.024 C 
ATOM      9  C   UNL     1      34.803 -23.285 -16.555  0.00  0.00    -0.013 C 
ATOM     10  C   UNL     1      36.173 -21.980 -18.086  0.00  0.00    -0.015 C 
ATOM     11  C   UNL     1      36.270 -21.146 -19.192  0.00  0.00    -0.002 C 
ATOM     12  C   UNL     1      35.194 -19.930 -21.006  0.00  0.00    +0.003 C 
ATOM     13  C   UNL     1      34.044 -19.565 -21.686  0.00  0.00    +0.021 C 
ATOM     14  C   UNL     1      32.847 -20.060 -21.218  0.00  0.00    +0.099 C 
ENDROOT
BRANCH   3  15
ATOM     15  C   UNL     1      31.102 -23.788 -16.490  0.00  0.00    +0.048 C 
BRANCH  15  16
ATOM     16  CA  UNL     1      30.324 -22.757 -15.643  0.00  0.00    +0.043 C 
BRANCH  16  17
ATOM     17  N   UNL     1      30.429 -23.081 -14.222  0.00  0.00    +0.389 N 
ATOM     18  H1  UNL     1      30.571 -24.085 -14.112  0.00  0.00    -0.088 HD
ATOM     19  H2  UNL     1      29.571 -22.805 -13.746  0.00  0.00    -0.088 HD
ATOM     20  H3  UNL     1      31.220 -22.580 -13.817  0.00  0.00    -0.088 HD
ENDBRANCH  16  17
BRANCH  16  22
ATOM     21  OXT UNL     1      27.980 -23.353 -15.352  0.00  0.00    -0.253 OA
ATOM     22  C   UNL     1      28.843 -22.750 -15.979  0.00  0.00    +0.293 C 
BRANCH  22  23
ATOM     23  O   UNL     1      28.559 -21.964 -17.050  0.00  0.00    -0.482 OA
ATOM     24  H   UNL     1      28.416 -21.046 -16.933  0.00  0.00    +0.295 HD
ENDBRANCH  22  23
ENDBRANCH  16  22
ENDBRANCH  15  16
ENDBRANCH   3  15
TORSDOF 5
ENDMDL
