MODEL 1
REMARK VINA RESULT:      -4.2      0.000      0.000
REMARK  Name = 8987
REMARK  4 active torsions:
REMARK  status: ('A' for Active; 'I' for Inactive)
REMARK    1  A    between atoms: N_1  and  C_3
REMARK    2  A    between atoms: N_1  and  C_6
REMARK    3  A    between atoms: N_1  and  C_8
REMARK    4  A    between atoms: C_3  and  S_4
REMARK                            x       y       z     vdW  Elec       q    Type
REMARK                         _______ _______ _______ _____ _____    ______ ____
ROOT
ATOM      1  N   UNL     1      35.176 -19.772 -20.827  0.00  0.00    -0.298 N 
ENDROOT
BRANCH   1   3
ATOM      2  S   UNL     1      34.860 -19.014 -23.465  0.00  0.00    -0.028 S 
ATOM      3  C   UNL     1      35.010 -18.771 -21.802  0.00  0.00    +0.107 C 
BRANCH   3   4
ATOM      4  S   UNL     1      34.933 -17.098 -21.215  0.00  0.00    -0.120 S 
ATOM      5  H   UNL     1      34.830 -17.096 -19.860  0.00  0.00    +0.109 HD
ENDBRANCH   3   4
ENDBRANCH   1   3
BRANCH   1   6
ATOM      6  C   UNL     1      36.488 -20.139 -20.285  0.00  0.00    +0.092 C 
ATOM      7  C   UNL     1      36.377 -21.310 -19.324  0.00  0.00    +0.023 C 
ENDBRANCH   1   6
BRANCH   1   8
ATOM      8  C   UNL     1      34.074 -20.573 -20.288  0.00  0.00    +0.092 C 
ATOM      9  C   UNL     1      32.731 -19.916 -20.562  0.00  0.00    +0.023 C 
ENDBRANCH   1   8
TORSDOF 4
ENDMDL
MODEL 2
REMARK VINA RESULT:      -4.2      0.067      2.387
REMARK  Name = 8987
REMARK  4 active torsions:
REMARK  status: ('A' for Active; 'I' for Inactive)
REMARK    1  A    between atoms: N_1  and  C_3
REMARK    2  A    between atoms: N_1  and  C_6
REMARK    3  A    between atoms: N_1  and  C_8
REMARK    4  A    between atoms: C_3  and  S_4
REMARK                            x       y       z     vdW  Elec       q    Type
REMARK                         _______ _______ _______ _____ _____    ______ ____
ROOT
ATOM      1  N   UNL     1      35.231 -19.811 -20.813  0.00  0.00    -0.298 N 
ENDROOT
BRANCH   1   3
ATOM      2  S   UNL     1      34.851 -19.059 -23.445  0.00  0.00    -0.028 S 
ATOM      3  C   UNL     1      35.037 -18.812 -21.786  0.00  0.00    +0.107 C 
BRANCH   3   4
ATOM      4  S   UNL     1      34.962 -17.139 -21.200  0.00  0.00    -0.120 S 
ATOM      5  H   UNL     1      34.372 -17.112 -19.975  0.00  0.00    +0.109 HD
ENDBRANCH   3   4
ENDBRANCH   1   3
BRANCH   1   6
ATOM      6  C   UNL     1      34.130 -20.612 -20.271  0.00  0.00    +0.092 C 
ATOM      7  C   UNL     1      32.789 -19.946 -20.526  0.00  0.00    +0.023 C 
ENDBRANCH   1   6
BRANCH   1   8
ATOM      8  C   UNL     1      36.533 -20.122 -20.217  0.00  0.00    +0.092 C 
ATOM      9  C   UNL     1      36.439 -21.314 -19.280  0.00  0.00    +0.023 C 
ENDBRANCH   1   8
TORSDOF 4
ENDMDL
MODEL 3
REMARK VINA RESULT:      -4.1      2.477      3.768
REMARK  Name = 8987
REMARK  4 active torsions:
REMARK  status: ('A' for Active; 'I' for Inactive)
REMARK    1  A    between atoms: N_1  and  C_3
REMARK    2  A    between atoms: N_1  and  C_6
REMARK    3  A    between atoms: N_1  and  C_8
REMARK    4  A    between atoms: C_3  and  S_4
REMARK                            x       y       z     vdW  Elec       q    Type
REMARK                         _______ _______ _______ _____ _____    ______ ____
ROOT
ATOM      1  N   UNL     1      34.916 -18.939 -22.179  0.00  0.00    -0.298 N 
ENDROOT
BRANCH   1   3
ATOM      2  S   UNL     1      32.939 -20.075 -20.619  0.00  0.00    -0.028 S 
ATOM      3  C   UNL     1      34.522 -19.782 -21.122  0.00  0.00    +0.107 C 
BRANCH   3   4
ATOM      4  S   UNL     1      35.821 -20.626 -20.256  0.00  0.00    -0.120 S 
ATOM      5  H   UNL     1      35.840 -20.221 -18.959  0.00  0.00    +0.109 HD
ENDBRANCH   3   4
ENDBRANCH   1   3
BRANCH   1   6
ATOM      6  C   UNL     1      34.750 -19.307 -23.588  0.00  0.00    +0.092 C 
ATOM      7  C   UNL     1      34.776 -18.079 -24.483  0.00  0.00    +0.023 C 
ENDBRANCH   1   6
BRANCH   1   8
ATOM      8  C   UNL     1      35.564 -17.639 -21.984  0.00  0.00    +0.092 C 
ATOM      9  C   UNL     1      34.808 -16.794 -20.973  0.00  0.00    +0.023 C 
ENDBRANCH   1   8
TORSDOF 4
ENDMDL
MODEL 4
REMARK VINA RESULT:      -4.0      2.440      3.744
REMARK  Name = 8987
REMARK  4 active torsions:
REMARK  status: ('A' for Active; 'I' for Inactive)
REMARK    1  A    between atoms: N_1  and  C_3
REMARK    2  A    between atoms: N_1  and  C_6
REMARK    3  A    between atoms: N_1  and  C_8
REMARK    4  A    between atoms: C_3  and  S_4
REMARK                            x       y       z     vdW  Elec       q    Type
REMARK                         _______ _______ _______ _____ _____    ______ ____
ROOT
ATOM      1  N   UNL     1      35.097 -18.358 -21.572  0.00  0.00    -0.298 N 
ENDROOT
BRANCH   1   3
ATOM      2  S   UNL     1      32.990 -19.916 -20.696  0.00  0.00    -0.028 S 
ATOM      3  C   UNL     1      34.611 -19.506 -20.918  0.00  0.00    +0.107 C 
BRANCH   3   4
ATOM      4  S   UNL     1      35.829 -20.634 -20.288  0.00  0.00    -0.120 S 
ATOM      5  H   UNL     1      35.550 -21.892 -20.721  0.00  0.00    +0.109 HD
ENDBRANCH   3   4
ENDBRANCH   1   3
BRANCH   1   6
ATOM      6  C   UNL     1      34.967 -17.012 -21.008  0.00  0.00    +0.092 C 
ATOM      7  C   UNL     1      34.094 -16.130 -21.885  0.00  0.00    +0.023 C 
ENDBRANCH   1   6
BRANCH   1   8
ATOM      8  C   UNL     1      35.738 -18.383 -22.890  0.00  0.00    +0.092 C 
ATOM      9  C   UNL     1      34.896 -19.148 -23.897  0.00  0.00    +0.023 C 
ENDBRANCH   1   8
TORSDOF 4
ENDMDL
MODEL 5
REMARK VINA RESULT:      -4.0      2.258      3.204
REMARK  Name = 8987
REMARK  4 active torsions:
REMARK  status: ('A' for Active; 'I' for Inactive)
REMARK    1  A    between atoms: N_1  and  C_3
REMARK    2  A    between atoms: N_1  and  C_6
REMARK    3  A    between atoms: N_1  and  C_8
REMARK    4  A    between atoms: C_3  and  S_4
REMARK                            x       y       z     vdW  Elec       q    Type
REMARK                         _______ _______ _______ _____ _____    ______ ____
ROOT
ATOM      1  N   UNL     1      34.703 -17.706 -22.373  0.00  0.00    -0.298 N 
ENDROOT
BRANCH   1   3
ATOM      2  S   UNL     1      34.249 -15.294 -23.641  0.00  0.00    -0.028 S 
ATOM      3  C   UNL     1      34.500 -16.314 -22.321  0.00  0.00    +0.107 C 
BRANCH   3   4
ATOM      4  S   UNL     1      34.488 -15.575 -20.707  0.00  0.00    -0.120 S 
ATOM      5  H   UNL     1      33.260 -15.051 -20.457  0.00  0.00    +0.109 HD
ENDBRANCH   3   4
ENDBRANCH   1   3
BRANCH   1   6
ATOM      6  C   UNL     1      34.197 -18.619 -21.343  0.00  0.00    +0.092 C 
ATOM      7  C   UNL     1      35.267 -19.608 -20.912  0.00  0.00    +0.023 C 
ENDBRANCH   1   6
BRANCH   1   8
ATOM      8  C   UNL     1      35.469 -18.377 -23.427  0.00  0.00    +0.092 C 
ATOM      9  C   UNL     1      34.552 -18.946 -24.496  0.00  0.00    +0.023 C 
ENDBRANCH   1   8
TORSDOF 4
ENDMDL
MODEL 6
REMARK VINA RESULT:      -4.0      2.464      3.837
REMARK  Name = 8987
REMARK  4 active torsions:
REMARK  status: ('A' for Active; 'I' for Inactive)
REMARK    1  A    between atoms: N_1  and  C_3
REMARK    2  A    between atoms: N_1  and  C_6
REMARK    3  A    between atoms: N_1  and  C_8
REMARK    4  A    between atoms: C_3  and  S_4
REMARK                            x       y       z     vdW  Elec       q    Type
REMARK                         _______ _______ _______ _____ _____    ______ ____
ROOT
ATOM      1  N   UNL     1      34.919 -18.834 -22.405  0.00  0.00    -0.298 N 
ENDROOT
BRANCH   1   3
ATOM      2  S   UNL     1      35.921 -20.432 -20.387  0.00  0.00    -0.028 S 
ATOM      3  C   UNL     1      34.717 -19.680 -21.299  0.00  0.00    +0.107 C 
BRANCH   3   4
ATOM      4  S   UNL     1      33.033 -19.960 -20.812  0.00  0.00    -0.120 S 
ATOM      5  H   UNL     1      32.201 -19.588 -21.821  0.00  0.00    +0.109 HD
ENDBRANCH   3   4
ENDBRANCH   1   3
BRANCH   1   6
ATOM      6  C   UNL     1      34.752 -19.287 -23.789  0.00  0.00    +0.092 C 
ATOM      7  C   UNL     1      34.623 -18.110 -24.741  0.00  0.00    +0.023 C 
ENDBRANCH   1   6
BRANCH   1   8
ATOM      8  C   UNL     1      35.352 -17.438 -22.293  0.00  0.00    +0.092 C 
ATOM      9  C   UNL     1      34.917 -16.832 -20.970  0.00  0.00    +0.023 C 
ENDBRANCH   1   8
TORSDOF 4
ENDMDL
MODEL 7
REMARK VINA RESULT:      -3.9      2.551      3.871
REMARK  Name = 8987
REMARK  4 active torsions:
REMARK  status: ('A' for Active; 'I' for Inactive)
REMARK    1  A    between atoms: N_1  and  C_3
REMARK    2  A    between atoms: N_1  and  C_6
REMARK    3  A    between atoms: N_1  and  C_8
REMARK    4  A    between atoms: C_3  and  S_4
REMARK                            x       y       z     vdW  Elec       q    Type
REMARK                         _______ _______ _______ _____ _____    ______ ____
ROOT
ATOM      1  N   UNL     1      34.864 -17.440 -22.525  0.00  0.00    -0.298 N 
ENDROOT
BRANCH   1   3
ATOM      2  S   UNL     1      34.434 -15.405 -20.707  0.00  0.00    -0.028 S 
ATOM      3  C   UNL     1      34.493 -16.113 -22.237  0.00  0.00    +0.107 C 
BRANCH   3   4
ATOM      4  S   UNL     1      34.069 -15.090 -23.624  0.00  0.00    -0.120 S 
ATOM      5  H   UNL     1      35.105 -15.065 -24.503  0.00  0.00    +0.109 HD
ENDBRANCH   3   4
ENDBRANCH   1   3
BRANCH   1   6
ATOM      6  C   UNL     1      35.344 -17.859 -23.845  0.00  0.00    +0.092 C 
ATOM      7  C   UNL     1      34.523 -19.017 -24.387  0.00  0.00    +0.023 C 
ENDBRANCH   1   6
BRANCH   1   8
ATOM      8  C   UNL     1      34.769 -18.538 -21.559  0.00  0.00    +0.092 C 
ATOM      9  C   UNL     1      36.142 -18.947 -21.054  0.00  0.00    +0.023 C 
ENDBRANCH   1   8
TORSDOF 4
ENDMDL
MODEL 8
REMARK VINA RESULT:      -3.9      3.067      4.109
REMARK  Name = 8987
REMARK  4 active torsions:
REMARK  status: ('A' for Active; 'I' for Inactive)
REMARK    1  A    between atoms: N_1  and  C_3
REMARK    2  A    between atoms: N_1  and  C_6
REMARK    3  A    between atoms: N_1  and  C_8
REMARK    4  A    between atoms: C_3  and  S_4
REMARK                            x       y       z     vdW  Elec       q    Type
REMARK                         _______ _______ _______ _____ _____    ______ ____
ROOT
ATOM      1  N   UNL     1      34.412 -16.559 -22.488  0.00  0.00    -0.298 N 
ENDROOT
BRANCH   1   3
ATOM      2  S   UNL     1      33.558 -14.514 -24.138  0.00  0.00    -0.028 S 
ATOM      3  C   UNL     1      34.184 -16.038 -23.775  0.00  0.00    +0.107 C 
BRANCH   3   4
ATOM      4  S   UNL     1      34.617 -17.086 -25.141  0.00  0.00    -0.120 S 
ATOM      5  H   UNL     1      35.509 -18.024 -24.729  0.00  0.00    +0.109 HD
ENDBRANCH   3   4
ENDBRANCH   1   3
BRANCH   1   6
ATOM      6  C   UNL     1      35.400 -17.608 -22.222  0.00  0.00    +0.092 C 
ATOM      7  C   UNL     1      34.763 -18.800 -21.527  0.00  0.00    +0.023 C 
ENDBRANCH   1   6
BRANCH   1   8
ATOM      8  C   UNL     1      33.666 -16.140 -21.298  0.00  0.00    +0.092 C 
ATOM      9  C   UNL     1      34.477 -15.175 -20.451  0.00  0.00    +0.023 C 
ENDBRANCH   1   8
TORSDOF 4
ENDMDL
MODEL 9
REMARK VINA RESULT:      -3.9      3.020      4.095
REMARK  Name = 8987
REMARK  4 active torsions:
REMARK  status: ('A' for Active; 'I' for Inactive)
REMARK    1  A    between atoms: N_1  and  C_3
REMARK    2  A    between atoms: N_1  and  C_6
REMARK    3  A    between atoms: N_1  and  C_8
REMARK    4  A    between atoms: C_3  and  S_4
REMARK                            x       y       z     vdW  Elec       q    Type
REMARK                         _______ _______ _______ _____ _____    ______ ____
ROOT
ATOM      1  N   UNL     1      34.392 -16.615 -22.447  0.00  0.00    -0.298 N 
ENDROOT
BRANCH   1   3
ATOM      2  S   UNL     1      34.650 -17.214 -25.132  0.00  0.00    -0.028 S 
ATOM      3  C   UNL     1      34.253 -16.256 -23.801  0.00  0.00    +0.107 C 
BRANCH   3   4
ATOM      4  S   UNL     1      33.577 -14.648 -24.129  0.00  0.00    -0.120 S 
ATOM      5  H   UNL     1      33.741 -14.346 -25.444  0.00  0.00    +0.109 HD
ENDBRANCH   3   4
ENDBRANCH   1   3
BRANCH   1   6
ATOM      6  C   UNL     1      33.608 -15.989 -21.378  0.00  0.00    +0.092 C 
ATOM      7  C   UNL     1      34.499 -15.200 -20.434  0.00  0.00    +0.023 C 
ENDBRANCH   1   6
BRANCH   1   8
ATOM      8  C   UNL     1      35.352 -17.611 -21.964  0.00  0.00    +0.092 C 
ATOM      9  C   UNL     1      34.651 -18.885 -21.526  0.00  0.00    +0.023 C 
ENDBRANCH   1   8
TORSDOF 4
ENDMDL
