MODEL 1
REMARK VINA RESULT:      -7.5      0.000      0.000
REMARK  Name = 8612
REMARK  8 active torsions:
REMARK  status: ('A' for Active; 'I' for Inactive)
REMARK    1  A    between atoms: C_2  and  C_4
REMARK    2  A    between atoms: C_2  and  O_13
REMARK    3  A    between atoms: C_7  and  N_10
REMARK    4  A    between atoms: O_13  and  C_14
REMARK    5  A    between atoms: C_14  and  C_15
REMARK    6  A    between atoms: C_15  and  N_16
REMARK    7  A    between atoms: N_16  and  C_18
REMARK    8  A    between atoms: N_16  and  C_20
REMARK                            x       y       z     vdW  Elec       q    Type
REMARK                         _______ _______ _______ _____ _____    ______ ____
ROOT
ATOM      1  O   UNL     1      35.338 -18.518 -23.246  0.00  0.00    -0.245 OA
ATOM      2  C   UNL     1      35.110 -18.354 -22.058  0.00  0.00    +0.342 C 
ENDROOT
BRANCH   2   4
ATOM      3 CL   UNL     1      37.181 -19.977 -20.465  0.00  0.00    -0.082 Cl
ATOM      4  C   UNL     1      34.602 -19.430 -21.169  0.00  0.00    +0.086 C 
ATOM      5  C   UNL     1      35.469 -20.202 -20.422  0.00  0.00    +0.065 C 
ATOM      6  C   UNL     1      33.233 -19.618 -21.129  0.00  0.00    +0.009 C 
ATOM      7  C   UNL     1      33.570 -21.409 -19.543  0.00  0.00    +0.042 C 
ATOM      8  C   UNL     1      34.948 -21.202 -19.601  0.00  0.00    +0.026 C 
ATOM      9  C   UNL     1      32.713 -20.618 -20.307  0.00  0.00    +0.014 C 
BRANCH   7  10
ATOM     10  N   UNL     1      33.043 -22.421 -18.713  0.00  0.00    -0.357 N 
ATOM     11  H   UNL     1      32.071 -22.570 -18.673  0.00  0.00    +0.142 HD
ATOM     12  H   UNL     1      33.648 -22.978 -18.172  0.00  0.00    +0.142 HD
ENDBRANCH   7  10
ENDBRANCH   2   4
BRANCH   2  13
ATOM     13  O   UNL     1      35.272 -17.192 -21.365  0.00  0.00    -0.448 OA
BRANCH  13  14
ATOM     14  C   UNL     1      34.233 -16.232 -21.506  0.00  0.00    +0.186 C 
BRANCH  14  15
ATOM     15  C   UNL     1      34.599 -15.280 -22.635  0.00  0.00    -0.029 C 
BRANCH  15  16
ATOM     16  N   UNL     1      33.509 -15.190 -23.606  0.00  0.00    +0.389 N 
ATOM     17  H   UNL     1      32.701 -15.691 -23.234  0.00  0.00    -0.080 HD
BRANCH  16  18
ATOM     18  C   UNL     1      33.898 -15.812 -24.871  0.00  0.00    -0.077 C 
ATOM     19  C   UNL     1      33.158 -15.200 -26.042  0.00  0.00    -0.025 C 
ENDBRANCH  16  18
BRANCH  16  20
ATOM     20  C   UNL     1      33.128 -13.794 -23.819  0.00  0.00    -0.077 C 
ATOM     21  C   UNL     1      32.329 -13.252 -22.653  0.00  0.00    -0.025 C 
ENDBRANCH  16  20
ENDBRANCH  15  16
ENDBRANCH  14  15
ENDBRANCH  13  14
ENDBRANCH   2  13
TORSDOF 8
ENDMDL
MODEL 2
REMARK VINA RESULT:      -7.5      0.865      1.879
REMARK  Name = 8612
REMARK  8 active torsions:
REMARK  status: ('A' for Active; 'I' for Inactive)
REMARK    1  A    between atoms: C_2  and  C_4
REMARK    2  A    between atoms: C_2  and  O_13
REMARK    3  A    between atoms: C_7  and  N_10
REMARK    4  A    between atoms: O_13  and  C_14
REMARK    5  A    between atoms: C_14  and  C_15
REMARK    6  A    between atoms: C_15  and  N_16
REMARK    7  A    between atoms: N_16  and  C_18
REMARK    8  A    between atoms: N_16  and  C_20
REMARK                            x       y       z     vdW  Elec       q    Type
REMARK                         _______ _______ _______ _____ _____    ______ ____
ROOT
ATOM      1  O   UNL     1      35.134 -17.001 -20.715  0.00  0.00    -0.245 OA
ATOM      2  C   UNL     1      34.822 -17.974 -21.384  0.00  0.00    +0.342 C 
ENDROOT
BRANCH   2   4
ATOM      3 CL   UNL     1      37.226 -19.702 -20.550  0.00  0.00    -0.082 Cl
ATOM      4  C   UNL     1      34.538 -19.309 -20.798  0.00  0.00    +0.086 C 
ATOM      5  C   UNL     1      35.563 -20.143 -20.399  0.00  0.00    +0.065 C 
ATOM      6  C   UNL     1      33.209 -19.670 -20.674  0.00  0.00    +0.009 C 
ATOM      7  C   UNL     1      33.915 -21.774 -19.719  0.00  0.00    +0.042 C 
ATOM      8  C   UNL     1      35.249 -21.388 -19.855  0.00  0.00    +0.026 C 
ATOM      9  C   UNL     1      32.896 -20.916 -20.128  0.00  0.00    +0.014 C 
BRANCH   7  10
ATOM     10  N   UNL     1      33.598 -23.033 -19.168  0.00  0.00    -0.357 N 
ATOM     11  H   UNL     1      34.170 -23.423 -18.467  0.00  0.00    +0.142 HD
ATOM     12  H   UNL     1      32.805 -23.523 -19.485  0.00  0.00    +0.142 HD
ENDBRANCH   7  10
ENDBRANCH   2   4
BRANCH   2  13
ATOM     13  O   UNL     1      34.687 -18.003 -22.739  0.00  0.00    -0.448 OA
BRANCH  13  14
ATOM     14  C   UNL     1      35.197 -16.876 -23.441  0.00  0.00    +0.186 C 
BRANCH  14  15
ATOM     15  C   UNL     1      34.062 -16.236 -24.225  0.00  0.00    -0.029 C 
BRANCH  15  16
ATOM     16  N   UNL     1      34.141 -14.777 -24.149  0.00  0.00    +0.389 N 
ATOM     17  H   UNL     1      35.017 -14.478 -24.580  0.00  0.00    -0.080 HD
BRANCH  16  18
ATOM     18  C   UNL     1      34.137 -14.337 -22.754  0.00  0.00    -0.077 C 
ATOM     19  C   UNL     1      32.738 -14.339 -22.175  0.00  0.00    -0.025 C 
ENDBRANCH  16  18
BRANCH  16  20
ATOM     20  C   UNL     1      33.033 -14.165 -24.880  0.00  0.00    -0.077 C 
ATOM     21  C   UNL     1      32.947 -14.690 -26.298  0.00  0.00    -0.025 C 
ENDBRANCH  16  20
ENDBRANCH  15  16
ENDBRANCH  14  15
ENDBRANCH  13  14
ENDBRANCH   2  13
TORSDOF 8
ENDMDL
MODEL 3
REMARK VINA RESULT:      -7.4      4.046      8.473
REMARK  Name = 8612
REMARK  8 active torsions:
REMARK  status: ('A' for Active; 'I' for Inactive)
REMARK    1  A    between atoms: C_2  and  C_4
REMARK    2  A    between atoms: C_2  and  O_13
REMARK    3  A    between atoms: C_7  and  N_10
REMARK    4  A    between atoms: O_13  and  C_14
REMARK    5  A    between atoms: C_14  and  C_15
REMARK    6  A    between atoms: C_15  and  N_16
REMARK    7  A    between atoms: N_16  and  C_18
REMARK    8  A    between atoms: N_16  and  C_20
REMARK                            x       y       z     vdW  Elec       q    Type
REMARK                         _______ _______ _______ _____ _____    ______ ____
ROOT
ATOM      1  O   UNL     1      33.922 -23.809 -19.608  0.00  0.00    -0.245 OA
ATOM      2  C   UNL     1      34.225 -22.762 -19.058  0.00  0.00    +0.342 C 
ENDROOT
BRANCH   2   4
ATOM      3 CL   UNL     1      36.961 -21.556 -19.779  0.00  0.00    -0.082 Cl
ATOM      4  C   UNL     1      34.235 -21.449 -19.753  0.00  0.00    +0.086 C 
ATOM      5  C   UNL     1      35.423 -20.843 -20.110  0.00  0.00    +0.065 C 
ATOM      6  C   UNL     1      33.008 -20.871 -20.022  0.00  0.00    +0.009 C 
ATOM      7  C   UNL     1      34.158 -19.009 -21.044  0.00  0.00    +0.042 C 
ATOM      8  C   UNL     1      35.385 -19.611 -20.762  0.00  0.00    +0.026 C 
ATOM      9  C   UNL     1      32.971 -19.638 -20.674  0.00  0.00    +0.014 C 
BRANCH   7  10
ATOM     10  N   UNL     1      34.120 -17.762 -21.703  0.00  0.00    -0.357 N 
ATOM     11  H   UNL     1      34.924 -17.195 -21.734  0.00  0.00    +0.142 HD
ATOM     12  H   UNL     1      33.288 -17.458 -22.132  0.00  0.00    +0.142 HD
ENDBRANCH   7  10
ENDBRANCH   2   4
BRANCH   2  13
ATOM     13  O   UNL     1      34.595 -22.620 -17.755  0.00  0.00    -0.448 OA
BRANCH  13  14
ATOM     14  C   UNL     1      33.771 -23.273 -16.798  0.00  0.00    +0.186 C 
BRANCH  14  15
ATOM     15  C   UNL     1      34.514 -23.328 -15.472  0.00  0.00    -0.029 C 
BRANCH  15  16
ATOM     16  N   UNL     1      35.786 -24.036 -15.622  0.00  0.00    +0.389 N 
ATOM     17  H   UNL     1      35.961 -24.177 -16.617  0.00  0.00    -0.080 HD
BRANCH  16  18
ATOM     18  C   UNL     1      35.723 -25.344 -14.972  0.00  0.00    -0.077 C 
ATOM     19  C   UNL     1      37.096 -25.970 -14.849  0.00  0.00    -0.025 C 
ENDBRANCH  16  18
BRANCH  16  20
ATOM     20  C   UNL     1      36.881 -23.242 -15.067  0.00  0.00    -0.077 C 
ATOM     21  C   UNL     1      37.593 -22.449 -16.144  0.00  0.00    -0.025 C 
ENDBRANCH  16  20
ENDBRANCH  15  16
ENDBRANCH  14  15
ENDBRANCH  13  14
ENDBRANCH   2  13
TORSDOF 8
ENDMDL
MODEL 4
REMARK VINA RESULT:      -7.4      0.850      1.758
REMARK  Name = 8612
REMARK  8 active torsions:
REMARK  status: ('A' for Active; 'I' for Inactive)
REMARK    1  A    between atoms: C_2  and  C_4
REMARK    2  A    between atoms: C_2  and  O_13
REMARK    3  A    between atoms: C_7  and  N_10
REMARK    4  A    between atoms: O_13  and  C_14
REMARK    5  A    between atoms: C_14  and  C_15
REMARK    6  A    between atoms: C_15  and  N_16
REMARK    7  A    between atoms: N_16  and  C_18
REMARK    8  A    between atoms: N_16  and  C_20
REMARK                            x       y       z     vdW  Elec       q    Type
REMARK                         _______ _______ _______ _____ _____    ______ ____
ROOT
ATOM      1  O   UNL     1      35.360 -17.917 -22.884  0.00  0.00    -0.245 OA
ATOM      2  C   UNL     1      35.059 -17.935 -21.700  0.00  0.00    +0.342 C 
ENDROOT
BRANCH   2   4
ATOM      3 CL   UNL     1      37.212 -19.745 -20.457  0.00  0.00    -0.082 Cl
ATOM      4  C   UNL     1      34.603 -19.159 -20.994  0.00  0.00    +0.086 C 
ATOM      5  C   UNL     1      35.508 -20.022 -20.409  0.00  0.00    +0.065 C 
ATOM      6  C   UNL     1      33.240 -19.389 -20.951  0.00  0.00    +0.009 C 
ATOM      7  C   UNL     1      33.664 -21.412 -19.700  0.00  0.00    +0.042 C 
ATOM      8  C   UNL     1      35.035 -21.159 -19.757  0.00  0.00    +0.026 C 
ATOM      9  C   UNL     1      32.767 -20.527 -20.297  0.00  0.00    +0.014 C 
BRANCH   7  10
ATOM     10  N   UNL     1      33.185 -22.563 -19.040  0.00  0.00    -0.357 N 
ATOM     11  H   UNL     1      33.813 -23.268 -18.762  0.00  0.00    +0.142 HD
ATOM     12  H   UNL     1      32.223 -22.660 -18.857  0.00  0.00    +0.142 HD
ENDBRANCH   7  10
ENDBRANCH   2   4
BRANCH   2  13
ATOM     13  O   UNL     1      35.086 -16.870 -20.852  0.00  0.00    -0.448 OA
BRANCH  13  14
ATOM     14  C   UNL     1      34.029 -15.930 -20.997  0.00  0.00    +0.186 C 
BRANCH  14  15
ATOM     15  C   UNL     1      34.606 -14.624 -21.521  0.00  0.00    -0.029 C 
BRANCH  15  16
ATOM     16  N   UNL     1      33.734 -14.048 -22.545  0.00  0.00    +0.389 N 
ATOM     17  H   UNL     1      34.053 -13.100 -22.745  0.00  0.00    -0.080 HD
BRANCH  16  18
ATOM     18  C   UNL     1      32.355 -13.981 -22.063  0.00  0.00    -0.077 C 
ATOM     19  C   UNL     1      31.990 -12.581 -21.618  0.00  0.00    -0.025 C 
ENDBRANCH  16  18
BRANCH  16  20
ATOM     20  C   UNL     1      33.807 -14.831 -23.778  0.00  0.00    -0.077 C 
ATOM     21  C   UNL     1      33.052 -14.161 -24.906  0.00  0.00    -0.025 C 
ENDBRANCH  16  20
ENDBRANCH  15  16
ENDBRANCH  14  15
ENDBRANCH  13  14
ENDBRANCH   2  13
TORSDOF 8
ENDMDL
MODEL 5
REMARK VINA RESULT:      -7.4      4.046      8.263
REMARK  Name = 8612
REMARK  8 active torsions:
REMARK  status: ('A' for Active; 'I' for Inactive)
REMARK    1  A    between atoms: C_2  and  C_4
REMARK    2  A    between atoms: C_2  and  O_13
REMARK    3  A    between atoms: C_7  and  N_10
REMARK    4  A    between atoms: O_13  and  C_14
REMARK    5  A    between atoms: C_14  and  C_15
REMARK    6  A    between atoms: C_15  and  N_16
REMARK    7  A    between atoms: N_16  and  C_18
REMARK    8  A    between atoms: N_16  and  C_20
REMARK                            x       y       z     vdW  Elec       q    Type
REMARK                         _______ _______ _______ _____ _____    ______ ____
ROOT
ATOM      1  O   UNL     1      33.908 -23.782 -19.508  0.00  0.00    -0.245 OA
ATOM      2  C   UNL     1      34.004 -22.696 -18.958  0.00  0.00    +0.342 C 
ENDROOT
BRANCH   2   4
ATOM      3 CL   UNL     1      36.828 -21.650 -19.584  0.00  0.00    -0.082 Cl
ATOM      4  C   UNL     1      34.113 -21.414 -19.700  0.00  0.00    +0.086 C 
ATOM      5  C   UNL     1      35.345 -20.879 -20.019  0.00  0.00    +0.065 C 
ATOM      6  C   UNL     1      32.930 -20.789 -20.051  0.00  0.00    +0.009 C 
ATOM      7  C   UNL     1      34.220 -19.025 -21.082  0.00  0.00    +0.042 C 
ATOM      8  C   UNL     1      35.400 -19.673 -20.716  0.00  0.00    +0.026 C 
ATOM      9  C   UNL     1      32.986 -19.583 -20.749  0.00  0.00    +0.014 C 
BRANCH   7  10
ATOM     10  N   UNL     1      34.275 -17.804 -21.787  0.00  0.00    -0.357 N 
ATOM     11  H   UNL     1      35.075 -17.234 -21.723  0.00  0.00    +0.142 HD
ATOM     12  H   UNL     1      33.513 -17.523 -22.343  0.00  0.00    +0.142 HD
ENDBRANCH   7  10
ENDBRANCH   2   4
BRANCH   2  13
ATOM     13  O   UNL     1      34.030 -22.480 -17.614  0.00  0.00    -0.448 OA
BRANCH  13  14
ATOM     14  C   UNL     1      33.431 -23.487 -16.808  0.00  0.00    +0.186 C 
BRANCH  14  15
ATOM     15  C   UNL     1      31.953 -23.167 -16.646  0.00  0.00    -0.029 C 
BRANCH  15  16
ATOM     16  N   UNL     1      31.623 -22.952 -15.237  0.00  0.00    +0.389 N 
ATOM     17  H   UNL     1      31.847 -21.986 -14.997  0.00  0.00    -0.080 HD
BRANCH  16  18
ATOM     18  C   UNL     1      32.417 -23.837 -14.386  0.00  0.00    -0.077 C 
ATOM     19  C   UNL     1      31.583 -24.976 -13.839  0.00  0.00    -0.025 C 
ENDBRANCH  16  18
BRANCH  16  20
ATOM     20  C   UNL     1      30.195 -23.167 -15.008  0.00  0.00    -0.077 C 
ATOM     21  C   UNL     1      29.374 -22.782 -16.220  0.00  0.00    -0.025 C 
ENDBRANCH  16  20
ENDBRANCH  15  16
ENDBRANCH  14  15
ENDBRANCH  13  14
ENDBRANCH   2  13
TORSDOF 8
ENDMDL
MODEL 6
REMARK VINA RESULT:      -7.1      8.076     11.174
REMARK  Name = 8612
REMARK  8 active torsions:
REMARK  status: ('A' for Active; 'I' for Inactive)
REMARK    1  A    between atoms: C_2  and  C_4
REMARK    2  A    between atoms: C_2  and  O_13
REMARK    3  A    between atoms: C_7  and  N_10
REMARK    4  A    between atoms: O_13  and  C_14
REMARK    5  A    between atoms: C_14  and  C_15
REMARK    6  A    between atoms: C_15  and  N_16
REMARK    7  A    between atoms: N_16  and  C_18
REMARK    8  A    between atoms: N_16  and  C_20
REMARK                            x       y       z     vdW  Elec       q    Type
REMARK                         _______ _______ _______ _____ _____    ______ ____
ROOT
ATOM      1  O   UNL     1      36.496 -22.928 -14.817  0.00  0.00    -0.245 OA
ATOM      2  C   UNL     1      35.795 -23.747 -15.391  0.00  0.00    +0.342 C 
ENDROOT
BRANCH   2   4
ATOM      3 CL   UNL     1      33.726 -24.050 -13.135  0.00  0.00    -0.082 Cl
ATOM      4  C   UNL     1      34.370 -23.504 -15.730  0.00  0.00    +0.086 C 
ATOM      5  C   UNL     1      33.382 -23.620 -14.772  0.00  0.00    +0.065 C 
ATOM      6  C   UNL     1      34.085 -23.159 -17.038  0.00  0.00    +0.009 C 
ATOM      7  C   UNL     1      31.745 -23.033 -16.449  0.00  0.00    +0.042 C 
ATOM      8  C   UNL     1      32.056 -23.383 -15.135  0.00  0.00    +0.026 C 
ATOM      9  C   UNL     1      32.758 -22.921 -17.400  0.00  0.00    +0.014 C 
BRANCH   7  10
ATOM     10  N   UNL     1      30.404 -22.793 -16.816  0.00  0.00    -0.357 N 
ATOM     11  H   UNL     1      29.738 -22.564 -16.128  0.00  0.00    +0.142 HD
ATOM     12  H   UNL     1      30.134 -22.855 -17.761  0.00  0.00    +0.142 HD
ENDBRANCH   7  10
ENDBRANCH   2   4
BRANCH   2  13
ATOM     13  O   UNL     1      36.185 -24.984 -15.805  0.00  0.00    -0.448 OA
BRANCH  13  14
ATOM     14  C   UNL     1      36.257 -25.985 -14.797  0.00  0.00    +0.186 C 
BRANCH  14  15
ATOM     15  C   UNL     1      37.675 -26.532 -14.753  0.00  0.00    -0.029 C 
BRANCH  15  16
ATOM     16  N   UNL     1      38.302 -26.237 -13.464  0.00  0.00    +0.389 N 
ATOM     17  H   UNL     1      38.685 -27.104 -13.085  0.00  0.00    -0.080 HD
BRANCH  16  18
ATOM     18  C   UNL     1      37.312 -25.718 -12.521  0.00  0.00    -0.077 C 
ATOM     19  C   UNL     1      37.767 -24.413 -11.901  0.00  0.00    -0.025 C 
ENDBRANCH  16  18
BRANCH  16  20
ATOM     20  C   UNL     1      39.396 -25.283 -13.633  0.00  0.00    -0.077 C 
ATOM     21  C   UNL     1      40.228 -25.603 -14.857  0.00  0.00    -0.025 C 
ENDBRANCH  16  20
ENDBRANCH  15  16
ENDBRANCH  14  15
ENDBRANCH  13  14
ENDBRANCH   2  13
TORSDOF 8
ENDMDL
MODEL 7
REMARK VINA RESULT:      -7.1      3.743      5.216
REMARK  Name = 8612
REMARK  8 active torsions:
REMARK  status: ('A' for Active; 'I' for Inactive)
REMARK    1  A    between atoms: C_2  and  C_4
REMARK    2  A    between atoms: C_2  and  O_13
REMARK    3  A    between atoms: C_7  and  N_10
REMARK    4  A    between atoms: O_13  and  C_14
REMARK    5  A    between atoms: C_14  and  C_15
REMARK    6  A    between atoms: C_15  and  N_16
REMARK    7  A    between atoms: N_16  and  C_18
REMARK    8  A    between atoms: N_16  and  C_20
REMARK                            x       y       z     vdW  Elec       q    Type
REMARK                         _______ _______ _______ _____ _____    ______ ____
ROOT
ATOM      1  O   UNL     1      32.977 -14.736 -24.898  0.00  0.00    -0.245 OA
ATOM      2  C   UNL     1      33.732 -14.528 -23.961  0.00  0.00    +0.342 C 
ENDROOT
BRANCH   2   4
ATOM      3 CL   UNL     1      34.891 -16.985 -25.404  0.00  0.00    -0.082 Cl
ATOM      4  C   UNL     1      34.305 -15.610 -23.121  0.00  0.00    +0.086 C 
ATOM      5  C   UNL     1      34.845 -16.745 -23.694  0.00  0.00    +0.065 C 
ATOM      6  C   UNL     1      34.272 -15.427 -21.751  0.00  0.00    +0.009 C 
ATOM      7  C   UNL     1      35.350 -17.572 -21.482  0.00  0.00    +0.042 C 
ATOM      8  C   UNL     1      35.372 -17.736 -22.867  0.00  0.00    +0.026 C 
ATOM      9  C   UNL     1      34.801 -16.418 -20.924  0.00  0.00    +0.014 C 
BRANCH   7  10
ATOM     10  N   UNL     1      35.884 -18.575 -20.644  0.00  0.00    -0.357 N 
ATOM     11  H   UNL     1      36.275 -18.334 -19.774  0.00  0.00    +0.142 HD
ATOM     12  H   UNL     1      35.865 -19.516 -20.932  0.00  0.00    +0.142 HD
ENDBRANCH   7  10
ENDBRANCH   2   4
BRANCH   2  13
ATOM     13  O   UNL     1      34.163 -13.308 -23.536  0.00  0.00    -0.448 OA
BRANCH  13  14
ATOM     14  C   UNL     1      33.188 -12.273 -23.518  0.00  0.00    +0.186 C 
BRANCH  14  15
ATOM     15  C   UNL     1      33.680 -11.124 -24.384  0.00  0.00    -0.029 C 
BRANCH  15  16
ATOM     16  N   UNL     1      33.757  -9.888 -23.605  0.00  0.00    +0.389 N 
ATOM     17  H   UNL     1      33.995 -10.127 -22.641  0.00  0.00    -0.080 HD
BRANCH  16  18
ATOM     18  C   UNL     1      32.465  -9.202 -23.606  0.00  0.00    -0.077 C 
ATOM     19  C   UNL     1      31.819  -9.234 -22.236  0.00  0.00    -0.025 C 
ENDBRANCH  16  18
BRANCH  16  20
ATOM     20  C   UNL     1      34.800  -9.012 -24.136  0.00  0.00    -0.077 C 
ATOM     21  C   UNL     1      34.763  -7.646 -23.485  0.00  0.00    -0.025 C 
ENDBRANCH  16  20
ENDBRANCH  15  16
ENDBRANCH  14  15
ENDBRANCH  13  14
ENDBRANCH   2  13
TORSDOF 8
ENDMDL
MODEL 8
REMARK VINA RESULT:      -7.0      2.977      4.277
REMARK  Name = 8612
REMARK  8 active torsions:
REMARK  status: ('A' for Active; 'I' for Inactive)
REMARK    1  A    between atoms: C_2  and  C_4
REMARK    2  A    between atoms: C_2  and  O_13
REMARK    3  A    between atoms: C_7  and  N_10
REMARK    4  A    between atoms: O_13  and  C_14
REMARK    5  A    between atoms: C_14  and  C_15
REMARK    6  A    between atoms: C_15  and  N_16
REMARK    7  A    between atoms: N_16  and  C_18
REMARK    8  A    between atoms: N_16  and  C_20
REMARK                            x       y       z     vdW  Elec       q    Type
REMARK                         _______ _______ _______ _____ _____    ______ ____
ROOT
ATOM      1  O   UNL     1      34.516 -16.138 -25.863  0.00  0.00    -0.245 OA
ATOM      2  C   UNL     1      34.126 -16.013 -24.713  0.00  0.00    +0.342 C 
ENDROOT
BRANCH   2   4
ATOM      3 CL   UNL     1      34.330 -19.029 -25.282  0.00  0.00    -0.082 Cl
ATOM      4  C   UNL     1      34.570 -16.892 -23.602  0.00  0.00    +0.086 C 
ATOM      5  C   UNL     1      34.686 -18.257 -23.778  0.00  0.00    +0.065 C 
ATOM      6  C   UNL     1      34.858 -16.283 -22.394  0.00  0.00    +0.009 C 
ATOM      7  C   UNL     1      35.403 -18.451 -21.479  0.00  0.00    +0.042 C 
ATOM      8  C   UNL     1      35.106 -19.044 -22.707  0.00  0.00    +0.026 C 
ATOM      9  C   UNL     1      35.278 -17.072 -21.323  0.00  0.00    +0.014 C 
BRANCH   7  10
ATOM     10  N   UNL     1      35.828 -19.249 -20.395  0.00  0.00    -0.357 N 
ATOM     11  H   UNL     1      35.715 -20.226 -20.428  0.00  0.00    +0.142 HD
ATOM     12  H   UNL     1      36.237 -18.827 -19.606  0.00  0.00    +0.142 HD
ENDBRANCH   7  10
ENDBRANCH   2   4
BRANCH   2  13
ATOM     13  O   UNL     1      33.245 -15.076 -24.265  0.00  0.00    -0.448 OA
BRANCH  13  14
ATOM     14  C   UNL     1      33.408 -13.765 -24.788  0.00  0.00    +0.186 C 
BRANCH  14  15
ATOM     15  C   UNL     1      33.547 -12.791 -23.628  0.00  0.00    -0.029 C 
BRANCH  15  16
ATOM     16  N   UNL     1      34.127 -11.527 -24.083  0.00  0.00    +0.389 N 
ATOM     17  H   UNL     1      35.062 -11.437 -23.682  0.00  0.00    -0.080 HD
BRANCH  16  18
ATOM     18  C   UNL     1      33.317 -10.399 -23.626  0.00  0.00    -0.077 C 
ATOM     19  C   UNL     1      32.222 -10.849 -22.681  0.00  0.00    -0.025 C 
ENDBRANCH  16  18
BRANCH  16  20
ATOM     20  C   UNL     1      34.246 -11.513 -25.540  0.00  0.00    -0.077 C 
ATOM     21  C   UNL     1      35.336 -10.569 -26.000  0.00  0.00    -0.025 C 
ENDBRANCH  16  20
ENDBRANCH  15  16
ENDBRANCH  14  15
ENDBRANCH  13  14
ENDBRANCH   2  13
TORSDOF 8
ENDMDL
MODEL 9
REMARK VINA RESULT:      -7.0      1.902      6.948
REMARK  Name = 8612
REMARK  8 active torsions:
REMARK  status: ('A' for Active; 'I' for Inactive)
REMARK    1  A    between atoms: C_2  and  C_4
REMARK    2  A    between atoms: C_2  and  O_13
REMARK    3  A    between atoms: C_7  and  N_10
REMARK    4  A    between atoms: O_13  and  C_14
REMARK    5  A    between atoms: C_14  and  C_15
REMARK    6  A    between atoms: C_15  and  N_16
REMARK    7  A    between atoms: N_16  and  C_18
REMARK    8  A    between atoms: N_16  and  C_20
REMARK                            x       y       z     vdW  Elec       q    Type
REMARK                         _______ _______ _______ _____ _____    ______ ____
ROOT
ATOM      1  O   UNL     1      35.771 -17.911 -20.776  0.00  0.00    -0.245 OA
ATOM      2  C   UNL     1      34.618 -17.674 -21.099  0.00  0.00    +0.342 C 
ENDROOT
BRANCH   2   4
ATOM      3 CL   UNL     1      35.059 -17.168 -24.100  0.00  0.00    -0.082 Cl
ATOM      4  C   UNL     1      34.177 -16.366 -21.646  0.00  0.00    +0.086 C 
ATOM      5  C   UNL     1      34.341 -16.063 -22.984  0.00  0.00    +0.065 C 
ATOM      6  C   UNL     1      33.601 -15.475 -20.759  0.00  0.00    +0.009 C 
ATOM      7  C   UNL     1      33.328 -13.908 -22.578  0.00  0.00    +0.042 C 
ATOM      8  C   UNL     1      33.912 -14.823 -23.454  0.00  0.00    +0.026 C 
ATOM      9  C   UNL     1      33.172 -14.234 -21.231  0.00  0.00    +0.014 C 
BRANCH   7  10
ATOM     10  N   UNL     1      32.894 -12.653 -23.054  0.00  0.00    -0.357 N 
ATOM     11  H   UNL     1      32.068 -12.251 -22.702  0.00  0.00    +0.142 HD
ATOM     12  H   UNL     1      33.419 -12.179 -23.739  0.00  0.00    +0.142 HD
ENDBRANCH   7  10
ENDBRANCH   2   4
BRANCH   2  13
ATOM     13  O   UNL     1      33.569 -18.539 -21.013  0.00  0.00    -0.448 OA
BRANCH  13  14
ATOM     14  C   UNL     1      33.886 -19.918 -21.145  0.00  0.00    +0.186 C 
BRANCH  14  15
ATOM     15  C   UNL     1      33.194 -20.687 -20.030  0.00  0.00    -0.029 C 
BRANCH  15  16
ATOM     16  N   UNL     1      34.173 -21.411 -19.218  0.00  0.00    +0.389 N 
ATOM     17  H   UNL     1      34.207 -20.981 -18.293  0.00  0.00    -0.080 HD
BRANCH  16  18
ATOM     18  C   UNL     1      35.503 -21.321 -19.820  0.00  0.00    -0.077 C 
ATOM     19  C   UNL     1      36.593 -21.448 -18.777  0.00  0.00    -0.025 C 
ENDBRANCH  16  18
BRANCH  16  20
ATOM     20  C   UNL     1      33.775 -22.809 -19.063  0.00  0.00    -0.077 C 
ATOM     21  C   UNL     1      33.326 -23.106 -17.648  0.00  0.00    -0.025 C 
ENDBRANCH  16  20
ENDBRANCH  15  16
ENDBRANCH  14  15
ENDBRANCH  13  14
ENDBRANCH   2  13
TORSDOF 8
ENDMDL
