MODEL 1
REMARK VINA RESULT:     -10.0      0.000      0.000
REMARK  Name = 9826528
REMARK  9 active torsions:
REMARK  status: ('A' for Active; 'I' for Inactive)
REMARK    1  A    between atoms: C_3  and  N_21
REMARK    2  A    between atoms: C_4  and  C_11
REMARK    3  A    between atoms: N_10  and  O_13
REMARK    4  A    between atoms: O_13  and  C_14
REMARK    5  A    between atoms: C_14  and  C_15
REMARK    6  A    between atoms: C_15  and  O_16
REMARK    7  A    between atoms: C_15  and  C_18
REMARK    8  A    between atoms: C_18  and  O_19
REMARK    9  A    between atoms: N_21  and  C_25
REMARK                            x       y       z     vdW  Elec       q    Type
REMARK                         _______ _______ _______ _____ _____    ______ ____
ROOT
ATOM      1  F   UNL     1      31.423 -22.489 -17.233  0.00  0.00    -0.200 F 
ATOM      2  F   UNL     1      30.274 -22.523 -14.763  0.00  0.00    -0.202 F 
ATOM      3  C   UNL     1      33.428 -23.405 -16.348  0.00  0.00    +0.083 C 
ATOM      4  C   UNL     1      34.117 -23.869 -15.246  0.00  0.00    +0.071 C 
ATOM      5  C   UNL     1      32.121 -22.947 -16.184  0.00  0.00    +0.181 C 
ATOM      6  C   UNL     1      33.553 -23.894 -13.986  0.00  0.00    +0.008 C 
ATOM      7  C   UNL     1      31.530 -22.963 -14.921  0.00  0.00    +0.169 C 
ATOM      8  C   UNL     1      32.245 -23.437 -13.822  0.00  0.00    +0.032 C 
ENDROOT
BRANCH   4  11
ATOM      9  O   UNL     1      36.385 -23.605 -15.799  0.00  0.00    -0.268 OA
ATOM     10  N   UNL     1      35.716 -25.680 -15.046  0.00  0.00    -0.190 N 
ATOM     11  C   UNL     1      35.512 -24.365 -15.385  0.00  0.00    +0.269 C 
ATOM     12  H   UNL     1      34.988 -26.265 -14.730  0.00  0.00    +0.183 HD
BRANCH  10  13
ATOM     13  O   UNL     1      37.042 -26.128 -15.185  0.00  0.00    -0.263 OA
BRANCH  13  14
ATOM     14  C   UNL     1      37.576 -26.355 -13.885  0.00  0.00    +0.203 C 
BRANCH  14  15
ATOM     15  C   UNL     1      38.709 -25.370 -13.612  0.00  0.00    +0.172 C 
BRANCH  15  16
ATOM     16  O   UNL     1      38.145 -24.085 -13.346  0.00  0.00    -0.379 OA
ATOM     17  H   UNL     1      38.458 -23.449 -14.010  0.00  0.00    +0.211 HD
ENDBRANCH  15  16
BRANCH  15  18
ATOM     18  C   UNL     1      39.633 -25.238 -14.816  0.00  0.00    +0.169 C 
BRANCH  18  19
ATOM     19  O   UNL     1      39.206 -24.134 -15.608  0.00  0.00    -0.379 OA
ATOM     20  H   UNL     1      38.665 -23.539 -15.067  0.00  0.00    +0.211 HD
ENDBRANCH  18  19
ENDBRANCH  15  18
ENDBRANCH  14  15
ENDBRANCH  13  14
ENDBRANCH  10  13
ENDBRANCH   4  11
BRANCH   3  21
ATOM     21  N   UNL     1      34.012 -23.381 -17.635  0.00  0.00    -0.309 N 
ATOM     22  H   UNL     1      34.321 -24.262 -17.945  0.00  0.00    +0.152 HD
BRANCH  21  25
ATOM     23  I   UNL     1      35.005 -18.751 -21.757  0.00  0.00    -0.042 I 
ATOM     24  F   UNL     1      36.566 -22.380 -18.103  0.00  0.00    -0.203 F 
ATOM     25  C   UNL     1      34.236 -22.344 -18.558  0.00  0.00    +0.076 C 
ATOM     26  C   UNL     1      35.529 -21.860 -18.773  0.00  0.00    +0.154 C 
ATOM     27  C   UNL     1      33.165 -21.792 -19.263  0.00  0.00    +0.017 C 
ATOM     28  C   UNL     1      35.749 -20.832 -19.689  0.00  0.00    +0.037 C 
ATOM     29  C   UNL     1      33.384 -20.764 -20.180  0.00  0.00    +0.007 C 
ATOM     30  C   UNL     1      34.677 -20.284 -20.393  0.00  0.00    +0.032 C 
ENDBRANCH  21  25
ENDBRANCH   3  21
TORSDOF 9
ENDMDL
MODEL 2
REMARK VINA RESULT:      -9.9      1.653      2.158
REMARK  Name = 9826528
REMARK  9 active torsions:
REMARK  status: ('A' for Active; 'I' for Inactive)
REMARK    1  A    between atoms: C_3  and  N_21
REMARK    2  A    between atoms: C_4  and  C_11
REMARK    3  A    between atoms: N_10  and  O_13
REMARK    4  A    between atoms: O_13  and  C_14
REMARK    5  A    between atoms: C_14  and  C_15
REMARK    6  A    between atoms: C_15  and  O_16
REMARK    7  A    between atoms: C_15  and  C_18
REMARK    8  A    between atoms: C_18  and  O_19
REMARK    9  A    between atoms: N_21  and  C_25
REMARK                            x       y       z     vdW  Elec       q    Type
REMARK                         _______ _______ _______ _____ _____    ______ ____
ROOT
ATOM      1  F   UNL     1      30.923 -22.726 -17.457  0.00  0.00    -0.200 F 
ATOM      2  F   UNL     1      29.579 -22.606 -15.090  0.00  0.00    -0.202 F 
ATOM      3  C   UNL     1      32.940 -23.260 -16.321  0.00  0.00    +0.083 C 
ATOM      4  C   UNL     1      33.582 -23.493 -15.122  0.00  0.00    +0.071 C 
ATOM      5  C   UNL     1      31.579 -22.958 -16.310  0.00  0.00    +0.181 C 
ATOM      6  C   UNL     1      32.920 -23.437 -13.911  0.00  0.00    +0.008 C 
ATOM      7  C   UNL     1      30.888 -22.897 -15.101  0.00  0.00    +0.169 C 
ATOM      8  C   UNL     1      31.558 -23.136 -13.901  0.00  0.00    +0.032 C 
ENDROOT
BRANCH   4  11
ATOM      9  O   UNL     1      35.445 -24.794 -15.719  0.00  0.00    -0.268 OA
ATOM     10  N   UNL     1      35.820 -22.983 -14.341  0.00  0.00    -0.190 N 
ATOM     11  C   UNL     1      35.033 -23.818 -15.097  0.00  0.00    +0.269 C 
ATOM     12  H   UNL     1      35.454 -22.216 -13.843  0.00  0.00    +0.183 HD
BRANCH  10  13
ATOM     13  O   UNL     1      37.189 -23.309 -14.331  0.00  0.00    -0.263 OA
BRANCH  13  14
ATOM     14  C   UNL     1      37.502 -23.885 -13.067  0.00  0.00    +0.203 C 
BRANCH  14  15
ATOM     15  C   UNL     1      36.637 -23.252 -11.982  0.00  0.00    +0.172 C 
BRANCH  15  16
ATOM     16  O   UNL     1      37.479 -22.512 -11.097  0.00  0.00    -0.379 OA
ATOM     17  H   UNL     1      38.156 -23.100 -10.725  0.00  0.00    +0.211 HD
ENDBRANCH  15  16
BRANCH  15  18
ATOM     18  C   UNL     1      35.909 -24.311 -11.163  0.00  0.00    +0.169 C 
BRANCH  18  19
ATOM     19  O   UNL     1      36.208 -24.115  -9.785  0.00  0.00    -0.379 OA
ATOM     20  H   UNL     1      36.629 -23.250  -9.665  0.00  0.00    +0.211 HD
ENDBRANCH  18  19
ENDBRANCH  15  18
ENDBRANCH  14  15
ENDBRANCH  13  14
ENDBRANCH  10  13
ENDBRANCH   4  11
BRANCH   3  21
ATOM     21  N   UNL     1      33.625 -23.318 -17.555  0.00  0.00    -0.309 N 
ATOM     22  H   UNL     1      33.861 -24.233 -17.834  0.00  0.00    +0.152 HD
BRANCH  21  25
ATOM     23  I   UNL     1      35.446 -18.886 -21.610  0.00  0.00    -0.042 I 
ATOM     24  F   UNL     1      36.289 -22.536 -17.747  0.00  0.00    -0.203 F 
ATOM     25  C   UNL     1      34.035 -22.326 -18.463  0.00  0.00    +0.076 C 
ATOM     26  C   UNL     1      35.379 -21.952 -18.538  0.00  0.00    +0.154 C 
ATOM     27  C   UNL     1      33.097 -21.708 -19.294  0.00  0.00    +0.017 C 
ATOM     28  C   UNL     1      35.783 -20.967 -19.439  0.00  0.00    +0.037 C 
ATOM     29  C   UNL     1      33.501 -20.723 -20.196  0.00  0.00    +0.007 C 
ATOM     30  C   UNL     1      34.844 -20.353 -20.268  0.00  0.00    +0.032 C 
ENDBRANCH  21  25
ENDBRANCH   3  21
TORSDOF 9
ENDMDL
MODEL 3
REMARK VINA RESULT:      -9.3      3.360      5.951
REMARK  Name = 9826528
REMARK  9 active torsions:
REMARK  status: ('A' for Active; 'I' for Inactive)
REMARK    1  A    between atoms: C_3  and  N_21
REMARK    2  A    between atoms: C_4  and  C_11
REMARK    3  A    between atoms: N_10  and  O_13
REMARK    4  A    between atoms: O_13  and  C_14
REMARK    5  A    between atoms: C_14  and  C_15
REMARK    6  A    between atoms: C_15  and  O_16
REMARK    7  A    between atoms: C_15  and  C_18
REMARK    8  A    between atoms: C_18  and  O_19
REMARK    9  A    between atoms: N_21  and  C_25
REMARK                            x       y       z     vdW  Elec       q    Type
REMARK                         _______ _______ _______ _____ _____    ______ ____
ROOT
ATOM      1  F   UNL     1      32.976 -23.265 -12.739  0.00  0.00    -0.200 F 
ATOM      2  F   UNL     1      30.409 -24.175 -12.830  0.00  0.00    -0.202 F 
ATOM      3  C   UNL     1      33.064 -23.181 -15.111  0.00  0.00    +0.083 C 
ATOM      4  C   UNL     1      32.420 -23.384 -16.315  0.00  0.00    +0.071 C 
ATOM      5  C   UNL     1      32.381 -23.451 -13.926  0.00  0.00    +0.181 C 
ATOM      6  C   UNL     1      31.120 -23.844 -16.383  0.00  0.00    +0.008 C 
ATOM      7  C   UNL     1      31.067 -23.916 -13.969  0.00  0.00    +0.169 C 
ATOM      8  C   UNL     1      30.436 -24.113 -15.198  0.00  0.00    +0.032 C 
ENDROOT
BRANCH   4  11
ATOM      9  O   UNL     1      34.203 -23.640 -17.823  0.00  0.00    -0.268 OA
ATOM     10  N   UNL     1      32.486 -22.233 -18.447  0.00  0.00    -0.190 N 
ATOM     11  C   UNL     1      33.120 -23.106 -17.598  0.00  0.00    +0.269 C 
ATOM     12  H   UNL     1      31.623 -21.811 -18.228  0.00  0.00    +0.183 HD
BRANCH  10  13
ATOM     13  O   UNL     1      33.165 -21.984 -19.655  0.00  0.00    -0.263 OA
BRANCH  13  14
ATOM     14  C   UNL     1      33.033 -20.600 -19.964  0.00  0.00    +0.203 C 
BRANCH  14  15
ATOM     15  C   UNL     1      34.366 -20.053 -20.465  0.00  0.00    +0.172 C 
BRANCH  15  16
ATOM     16  O   UNL     1      34.240 -19.735 -21.852  0.00  0.00    -0.379 OA
ATOM     17  H   UNL     1      34.925 -19.096 -22.102  0.00  0.00    +0.211 HD
ENDBRANCH  15  16
BRANCH  15  18
ATOM     18  C   UNL     1      35.480 -21.082 -20.317  0.00  0.00    +0.169 C 
BRANCH  18  19
ATOM     19  O   UNL     1      35.698 -21.331 -18.933  0.00  0.00    -0.379 OA
ATOM     20  H   UNL     1      35.259 -22.158 -18.680  0.00  0.00    +0.211 HD
ENDBRANCH  18  19
ENDBRANCH  15  18
ENDBRANCH  14  15
ENDBRANCH  13  14
ENDBRANCH  10  13
ENDBRANCH   4  11
BRANCH   3  21
ATOM     21  N   UNL     1      34.395 -22.710 -15.049  0.00  0.00    -0.309 N 
ATOM     22  H   UNL     1      34.470 -21.729 -15.085  0.00  0.00    +0.152 HD
BRANCH  21  25
ATOM     23  I   UNL     1      39.917 -25.659 -14.582  0.00  0.00    -0.042 I 
ATOM     24  F   UNL     1      36.721 -21.607 -16.106  0.00  0.00    -0.203 F 
ATOM     25  C   UNL     1      35.633 -23.369 -14.945  0.00  0.00    +0.076 C 
ATOM     26  C   UNL     1      36.785 -22.792 -15.485  0.00  0.00    +0.154 C 
ATOM     27  C   UNL     1      35.715 -24.606 -14.301  0.00  0.00    +0.017 C 
ATOM     28  C   UNL     1      38.011 -23.448 -15.381  0.00  0.00    +0.037 C 
ATOM     29  C   UNL     1      36.942 -25.261 -14.196  0.00  0.00    +0.007 C 
ATOM     30  C   UNL     1      38.090 -24.682 -14.736  0.00  0.00    +0.032 C 
ENDBRANCH  21  25
ENDBRANCH   3  21
TORSDOF 9
ENDMDL
MODEL 4
REMARK VINA RESULT:      -9.2      3.466      6.021
REMARK  Name = 9826528
REMARK  9 active torsions:
REMARK  status: ('A' for Active; 'I' for Inactive)
REMARK    1  A    between atoms: C_3  and  N_21
REMARK    2  A    between atoms: C_4  and  C_11
REMARK    3  A    between atoms: N_10  and  O_13
REMARK    4  A    between atoms: O_13  and  C_14
REMARK    5  A    between atoms: C_14  and  C_15
REMARK    6  A    between atoms: C_15  and  O_16
REMARK    7  A    between atoms: C_15  and  C_18
REMARK    8  A    between atoms: C_18  and  O_19
REMARK    9  A    between atoms: N_21  and  C_25
REMARK                            x       y       z     vdW  Elec       q    Type
REMARK                         _______ _______ _______ _____ _____    ______ ____
ROOT
ATOM      1  F   UNL     1      37.398 -22.244 -17.385  0.00  0.00    -0.200 F 
ATOM      2  F   UNL     1      37.705 -22.573 -14.698  0.00  0.00    -0.202 F 
ATOM      3  C   UNL     1      35.080 -22.736 -17.212  0.00  0.00    +0.083 C 
ATOM      4  C   UNL     1      34.010 -23.069 -16.406  0.00  0.00    +0.071 C 
ATOM      5  C   UNL     1      36.337 -22.568 -16.632  0.00  0.00    +0.181 C 
ATOM      6  C   UNL     1      34.144 -23.240 -15.043  0.00  0.00    +0.008 C 
ATOM      7  C   UNL     1      36.497 -22.735 -15.256  0.00  0.00    +0.169 C 
ATOM      8  C   UNL     1      35.402 -23.071 -14.462  0.00  0.00    +0.032 C 
ENDROOT
BRANCH   4  11
ATOM      9  O   UNL     1      32.539 -23.841 -18.066  0.00  0.00    -0.268 OA
ATOM     10  N   UNL     1      31.614 -22.725 -16.271  0.00  0.00    -0.190 N 
ATOM     11  C   UNL     1      32.656 -23.255 -16.992  0.00  0.00    +0.269 C 
ATOM     12  H   UNL     1      31.747 -22.249 -15.419  0.00  0.00    +0.183 HD
BRANCH  10  13
ATOM     13  O   UNL     1      30.343 -22.913 -16.844  0.00  0.00    -0.263 OA
BRANCH  13  14
ATOM     14  C   UNL     1      29.678 -23.949 -16.128  0.00  0.00    +0.203 C 
BRANCH  14  15
ATOM     15  C   UNL     1      28.168 -23.787 -16.266  0.00  0.00    +0.172 C 
BRANCH  15  16
ATOM     16  O   UNL     1      27.800 -24.048 -17.621  0.00  0.00    -0.379 OA
ATOM     17  H   UNL     1      28.036 -23.286 -18.174  0.00  0.00    +0.211 HD
ENDBRANCH  15  16
BRANCH  15  18
ATOM     18  C   UNL     1      27.728 -22.370 -15.923  0.00  0.00    +0.169 C 
BRANCH  18  19
ATOM     19  O   UNL     1      27.533 -21.642 -17.131  0.00  0.00    -0.379 OA
ATOM     20  H   UNL     1      26.583 -21.510 -17.279  0.00  0.00    +0.211 HD
ENDBRANCH  18  19
ENDBRANCH  15  18
ENDBRANCH  14  15
ENDBRANCH  13  14
ENDBRANCH  10  13
ENDBRANCH   4  11
BRANCH   3  21
ATOM     21  N   UNL     1      34.935 -22.562 -18.607  0.00  0.00    -0.309 N 
ATOM     22  H   UNL     1      34.763 -23.400 -19.095  0.00  0.00    +0.152 HD
BRANCH  21  25
ATOM     23  I   UNL     1      35.183 -17.494 -22.302  0.00  0.00    -0.042 I 
ATOM     24  F   UNL     1      32.618 -21.313 -19.511  0.00  0.00    -0.203 F 
ATOM     25  C   UNL     1      34.989 -21.427 -19.435  0.00  0.00    +0.076 C 
ATOM     26  C   UNL     1      33.809 -20.819 -19.875  0.00  0.00    +0.154 C 
ATOM     27  C   UNL     1      36.223 -20.901 -19.822  0.00  0.00    +0.017 C 
ATOM     28  C   UNL     1      33.865 -19.694 -20.695  0.00  0.00    +0.037 C 
ATOM     29  C   UNL     1      36.279 -19.775 -20.642  0.00  0.00    +0.007 C 
ATOM     30  C   UNL     1      35.100 -19.171 -21.079  0.00  0.00    +0.032 C 
ENDBRANCH  21  25
ENDBRANCH   3  21
TORSDOF 9
ENDMDL
MODEL 5
REMARK VINA RESULT:      -8.9     10.055     12.944
REMARK  Name = 9826528
REMARK  9 active torsions:
REMARK  status: ('A' for Active; 'I' for Inactive)
REMARK    1  A    between atoms: C_3  and  N_21
REMARK    2  A    between atoms: C_4  and  C_11
REMARK    3  A    between atoms: N_10  and  O_13
REMARK    4  A    between atoms: O_13  and  C_14
REMARK    5  A    between atoms: C_14  and  C_15
REMARK    6  A    between atoms: C_15  and  O_16
REMARK    7  A    between atoms: C_15  and  C_18
REMARK    8  A    between atoms: C_18  and  O_19
REMARK    9  A    between atoms: N_21  and  C_25
REMARK                            x       y       z     vdW  Elec       q    Type
REMARK                         _______ _______ _______ _____ _____    ______ ____
ROOT
ATOM      1  F   UNL     1      33.640 -11.406 -26.253  0.00  0.00    -0.200 F 
ATOM      2  F   UNL     1      33.065 -13.388 -28.032  0.00  0.00    -0.202 F 
ATOM      3  C   UNL     1      33.744 -12.984 -24.480  0.00  0.00    +0.083 C 
ATOM      4  C   UNL     1      33.642 -14.300 -24.077  0.00  0.00    +0.071 C 
ATOM      5  C   UNL     1      33.548 -12.674 -25.826  0.00  0.00    +0.181 C 
ATOM      6  C   UNL     1      33.352 -15.319 -24.962  0.00  0.00    +0.008 C 
ATOM      7  C   UNL     1      33.254 -13.686 -26.739  0.00  0.00    +0.169 C 
ATOM      8  C   UNL     1      33.156 -15.008 -26.308  0.00  0.00    +0.032 C 
ENDROOT
BRANCH   4  11
ATOM      9  O   UNL     1      33.257 -14.036 -21.774  0.00  0.00    -0.268 OA
ATOM     10  N   UNL     1      34.718 -15.702 -22.417  0.00  0.00    -0.190 N 
ATOM     11  C   UNL     1      33.846 -14.666 -22.650  0.00  0.00    +0.269 C 
ATOM     12  H   UNL     1      35.184 -16.177 -23.144  0.00  0.00    +0.183 HD
BRANCH  10  13
ATOM     13  O   UNL     1      34.896 -16.032 -21.061  0.00  0.00    -0.263 OA
BRANCH  13  14
ATOM     14  C   UNL     1      35.295 -17.396 -20.981  0.00  0.00    +0.203 C 
BRANCH  14  15
ATOM     15  C   UNL     1      34.299 -18.271 -21.736  0.00  0.00    +0.172 C 
BRANCH  15  16
ATOM     16  O   UNL     1      33.830 -19.296 -20.858  0.00  0.00    -0.379 OA
ATOM     17  H   UNL     1      34.413 -19.350 -20.084  0.00  0.00    +0.211 HD
ENDBRANCH  15  16
BRANCH  15  18
ATOM     18  C   UNL     1      34.949 -18.942 -22.939  0.00  0.00    +0.169 C 
BRANCH  18  19
ATOM     19  O   UNL     1      36.056 -18.155 -23.366  0.00  0.00    -0.379 OA
ATOM     20  H   UNL     1      35.896 -17.225 -23.142  0.00  0.00    +0.211 HD
ENDBRANCH  18  19
ENDBRANCH  15  18
ENDBRANCH  14  15
ENDBRANCH  13  14
ENDBRANCH  10  13
ENDBRANCH   4  11
BRANCH   3  21
ATOM     21  N   UNL     1      34.041 -11.947 -23.569  0.00  0.00    -0.309 N 
ATOM     22  H   UNL     1      34.759 -12.171 -22.934  0.00  0.00    +0.152 HD
BRANCH  21  25
ATOM     23  I   UNL     1      31.668  -6.190 -22.772  0.00  0.00    -0.042 I 
ATOM     24  F   UNL     1      35.453  -9.677 -24.345  0.00  0.00    -0.203 F 
ATOM     25  C   UNL     1      33.511 -10.656 -23.391  0.00  0.00    +0.076 C 
ATOM     26  C   UNL     1      34.242  -9.534 -23.790  0.00  0.00    +0.154 C 
ATOM     27  C   UNL     1      32.250 -10.492 -22.813  0.00  0.00    +0.017 C 
ATOM     28  C   UNL     1      33.714  -8.255 -23.612  0.00  0.00    +0.037 C 
ATOM     29  C   UNL     1      31.722  -9.213 -22.636  0.00  0.00    +0.007 C 
ATOM     30  C   UNL     1      32.454  -8.095 -23.036  0.00  0.00    +0.032 C 
ENDBRANCH  21  25
ENDBRANCH   3  21
TORSDOF 9
ENDMDL
MODEL 6
REMARK VINA RESULT:      -8.7      7.472     11.139
REMARK  Name = 9826528
REMARK  9 active torsions:
REMARK  status: ('A' for Active; 'I' for Inactive)
REMARK    1  A    between atoms: C_3  and  N_21
REMARK    2  A    between atoms: C_4  and  C_11
REMARK    3  A    between atoms: N_10  and  O_13
REMARK    4  A    between atoms: O_13  and  C_14
REMARK    5  A    between atoms: C_14  and  C_15
REMARK    6  A    between atoms: C_15  and  O_16
REMARK    7  A    between atoms: C_15  and  C_18
REMARK    8  A    between atoms: C_18  and  O_19
REMARK    9  A    between atoms: N_21  and  C_25
REMARK                            x       y       z     vdW  Elec       q    Type
REMARK                         _______ _______ _______ _____ _____    ______ ____
ROOT
ATOM      1  F   UNL     1      35.646 -18.978 -23.918  0.00  0.00    -0.200 F 
ATOM      2  F   UNL     1      34.850 -17.866 -26.275  0.00  0.00    -0.202 F 
ATOM      3  C   UNL     1      34.808 -17.107 -22.717  0.00  0.00    +0.083 C 
ATOM      4  C   UNL     1      34.178 -15.880 -22.752  0.00  0.00    +0.071 C 
ATOM      5  C   UNL     1      35.037 -17.783 -23.915  0.00  0.00    +0.181 C 
ATOM      6  C   UNL     1      33.767 -15.299 -23.935  0.00  0.00    +0.008 C 
ATOM      7  C   UNL     1      34.631 -17.217 -25.123  0.00  0.00    +0.169 C 
ATOM      8  C   UNL     1      33.996 -15.976 -25.133  0.00  0.00    +0.032 C 
ENDROOT
BRANCH   4  11
ATOM      9  O   UNL     1      34.796 -15.070 -20.635  0.00  0.00    -0.268 OA
ATOM     10  N   UNL     1      32.671 -14.568 -21.379  0.00  0.00    -0.190 N 
ATOM     11  C   UNL     1      33.918 -15.132 -21.493  0.00  0.00    +0.269 C 
ATOM     12  H   UNL     1      31.985 -14.650 -22.082  0.00  0.00    +0.183 HD
BRANCH  10  13
ATOM     13  O   UNL     1      32.446 -13.866 -20.180  0.00  0.00    -0.263 OA
BRANCH  13  14
ATOM     14  C   UNL     1      32.336 -12.480 -20.488  0.00  0.00    +0.203 C 
BRANCH  14  15
ATOM     15  C   UNL     1      31.679 -12.304 -21.853  0.00  0.00    +0.172 C 
BRANCH  15  16
ATOM     16  O   UNL     1      32.701 -12.118 -22.834  0.00  0.00    -0.379 OA
ATOM     17  H   UNL     1      33.501 -11.773 -22.406  0.00  0.00    +0.211 HD
ENDBRANCH  15  16
BRANCH  15  18
ATOM     18  C   UNL     1      30.773 -11.081 -21.880  0.00  0.00    +0.169 C 
BRANCH  18  19
ATOM     19  O   UNL     1      31.478  -9.996 -22.475  0.00  0.00    -0.379 OA
ATOM     20  H   UNL     1      32.353  -9.915 -22.064  0.00  0.00    +0.211 HD
ENDBRANCH  18  19
ENDBRANCH  15  18
ENDBRANCH  14  15
ENDBRANCH  13  14
ENDBRANCH  10  13
ENDBRANCH   4  11
BRANCH   3  21
ATOM     21  N   UNL     1      35.226 -17.695 -21.502  0.00  0.00    -0.309 N 
ATOM     22  H   UNL     1      35.862 -17.142 -20.992  0.00  0.00    +0.152 HD
BRANCH  21  25
ATOM     23  I   UNL     1      33.816 -23.144 -18.722  0.00  0.00    -0.042 I 
ATOM     24  F   UNL     1      37.216 -19.406 -20.574  0.00  0.00    -0.203 F 
ATOM     25  C   UNL     1      34.912 -18.916 -20.878  0.00  0.00    +0.076 C 
ATOM     26  C   UNL     1      35.931 -19.756 -20.422  0.00  0.00    +0.154 C 
ATOM     27  C   UNL     1      33.578 -19.294 -20.714  0.00  0.00    +0.017 C 
ATOM     28  C   UNL     1      35.617 -20.966 -19.805  0.00  0.00    +0.037 C 
ATOM     29  C   UNL     1      33.264 -20.504 -20.096  0.00  0.00    +0.007 C 
ATOM     30  C   UNL     1      34.283 -21.340 -19.641  0.00  0.00    +0.032 C 
ENDBRANCH  21  25
ENDBRANCH   3  21
TORSDOF 9
ENDMDL
MODEL 7
REMARK VINA RESULT:      -8.5     13.080     15.256
REMARK  Name = 9826528
REMARK  9 active torsions:
REMARK  status: ('A' for Active; 'I' for Inactive)
REMARK    1  A    between atoms: C_3  and  N_21
REMARK    2  A    between atoms: C_4  and  C_11
REMARK    3  A    between atoms: N_10  and  O_13
REMARK    4  A    between atoms: O_13  and  C_14
REMARK    5  A    between atoms: C_14  and  C_15
REMARK    6  A    between atoms: C_15  and  O_16
REMARK    7  A    between atoms: C_15  and  C_18
REMARK    8  A    between atoms: C_18  and  O_19
REMARK    9  A    between atoms: N_21  and  C_25
REMARK                            x       y       z     vdW  Elec       q    Type
REMARK                         _______ _______ _______ _____ _____    ______ ____
ROOT
ATOM      1  F   UNL     1      34.305 -10.795 -26.148  0.00  0.00    -0.200 F 
ATOM      2  F   UNL     1      33.926 -13.107 -27.539  0.00  0.00    -0.202 F 
ATOM      3  C   UNL     1      33.419 -11.794 -24.183  0.00  0.00    +0.083 C 
ATOM      4  C   UNL     1      32.877 -12.911 -23.580  0.00  0.00    +0.071 C 
ATOM      5  C   UNL     1      33.776 -11.860 -25.530  0.00  0.00    +0.181 C 
ATOM      6  C   UNL     1      32.676 -14.092 -24.267  0.00  0.00    +0.008 C 
ATOM      7  C   UNL     1      33.584 -13.042 -26.245  0.00  0.00    +0.169 C 
ATOM      8  C   UNL     1      33.034 -14.158 -25.613  0.00  0.00    +0.032 C 
ENDROOT
BRANCH   4  11
ATOM      9  O   UNL     1      33.035 -13.634 -21.350  0.00  0.00    -0.268 OA
ATOM     10  N   UNL     1      31.497 -11.979 -21.818  0.00  0.00    -0.190 N 
ATOM     11  C   UNL     1      32.486 -12.875 -22.145  0.00  0.00    +0.269 C 
ATOM     12  H   UNL     1      31.069 -11.394 -22.485  0.00  0.00    +0.183 HD
BRANCH  10  13
ATOM     13  O   UNL     1      31.143 -11.961 -20.456  0.00  0.00    -0.263 OA
BRANCH  13  14
ATOM     14  C   UNL     1      30.893 -10.612 -20.076  0.00  0.00    +0.203 C 
BRANCH  14  15
ATOM     15  C   UNL     1      32.212  -9.852 -19.972  0.00  0.00    +0.172 C 
BRANCH  15  16
ATOM     16  O   UNL     1      32.696  -9.955 -18.632  0.00  0.00    -0.379 OA
ATOM     17  H   UNL     1      33.636  -9.718 -18.608  0.00  0.00    +0.211 HD
ENDBRANCH  15  16
BRANCH  15  18
ATOM     18  C   UNL     1      32.029  -8.375 -20.294  0.00  0.00    +0.169 C 
BRANCH  18  19
ATOM     19  O   UNL     1      32.974  -7.618 -19.545  0.00  0.00    -0.379 OA
ATOM     20  H   UNL     1      33.193  -6.805 -20.028  0.00  0.00    +0.211 HD
ENDBRANCH  18  19
ENDBRANCH  15  18
ENDBRANCH  14  15
ENDBRANCH  13  14
ENDBRANCH  10  13
ENDBRANCH   4  11
BRANCH   3  21
ATOM     21  N   UNL     1      33.621 -10.589 -23.474  0.00  0.00    -0.309 N 
ATOM     22  H   UNL     1      34.198 -10.687 -22.682  0.00  0.00    +0.152 HD
BRANCH  21  25
ATOM     23  I   UNL     1      31.549  -4.734 -24.385  0.00  0.00    -0.042 I 
ATOM     24  F   UNL     1      35.385  -8.471 -23.861  0.00  0.00    -0.203 F 
ATOM     25  C   UNL     1      33.159  -9.276 -23.679  0.00  0.00    +0.076 C 
ATOM     26  C   UNL     1      34.067  -8.232 -23.870  0.00  0.00    +0.154 C 
ATOM     27  C   UNL     1      31.787  -9.012 -23.689  0.00  0.00    +0.017 C 
ATOM     28  C   UNL     1      33.605  -6.931 -24.072  0.00  0.00    +0.037 C 
ATOM     29  C   UNL     1      31.326  -7.712 -23.893  0.00  0.00    +0.007 C 
ATOM     30  C   UNL     1      32.235  -6.671 -24.084  0.00  0.00    +0.032 C 
ENDBRANCH  21  25
ENDBRANCH   3  21
TORSDOF 9
ENDMDL
MODEL 8
REMARK VINA RESULT:      -8.4      2.655      4.780
REMARK  Name = 9826528
REMARK  9 active torsions:
REMARK  status: ('A' for Active; 'I' for Inactive)
REMARK    1  A    between atoms: C_3  and  N_21
REMARK    2  A    between atoms: C_4  and  C_11
REMARK    3  A    between atoms: N_10  and  O_13
REMARK    4  A    between atoms: O_13  and  C_14
REMARK    5  A    between atoms: C_14  and  C_15
REMARK    6  A    between atoms: C_15  and  O_16
REMARK    7  A    between atoms: C_15  and  C_18
REMARK    8  A    between atoms: C_18  and  O_19
REMARK    9  A    between atoms: N_21  and  C_25
REMARK                            x       y       z     vdW  Elec       q    Type
REMARK                         _______ _______ _______ _____ _____    ______ ____
ROOT
ATOM      1  F   UNL     1      33.393 -22.515 -19.339  0.00  0.00    -0.200 F 
ATOM      2  F   UNL     1      35.152 -20.940 -20.699  0.00  0.00    -0.202 F 
ATOM      3  C   UNL     1      34.921 -22.714 -17.531  0.00  0.00    +0.083 C 
ATOM      4  C   UNL     1      36.152 -22.391 -16.997  0.00  0.00    +0.071 C 
ATOM      5  C   UNL     1      34.581 -22.221 -18.790  0.00  0.00    +0.181 C 
ATOM      6  C   UNL     1      37.058 -21.594 -17.670  0.00  0.00    +0.008 C 
ATOM      7  C   UNL     1      35.478 -21.414 -19.489  0.00  0.00    +0.169 C 
ATOM      8  C   UNL     1      36.716 -21.100 -18.929  0.00  0.00    +0.032 C 
ENDROOT
BRANCH   4  11
ATOM      9  O   UNL     1      35.787 -22.744 -14.703  0.00  0.00    -0.268 OA
ATOM     10  N   UNL     1      37.778 -23.506 -15.586  0.00  0.00    -0.190 N 
ATOM     11  C   UNL     1      36.547 -22.899 -15.656  0.00  0.00    +0.269 C 
ATOM     12  H   UNL     1      38.368 -23.601 -16.368  0.00  0.00    +0.183 HD
BRANCH  10  13
ATOM     13  O   UNL     1      38.132 -23.979 -14.308  0.00  0.00    -0.263 OA
BRANCH  13  14
ATOM     14  C   UNL     1      38.980 -25.111 -14.471  0.00  0.00    +0.203 C 
BRANCH  14  15
ATOM     15  C   UNL     1      38.143 -26.386 -14.493  0.00  0.00    +0.172 C 
BRANCH  15  16
ATOM     16  O   UNL     1      37.420 -26.438 -15.724  0.00  0.00    -0.379 OA
ATOM     17  H   UNL     1      36.630 -26.990 -15.612  0.00  0.00    +0.211 HD
ENDBRANCH  15  16
BRANCH  15  18
ATOM     18  C   UNL     1      37.134 -26.408 -13.353  0.00  0.00    +0.169 C 
BRANCH  18  19
ATOM     19  O   UNL     1      35.994 -25.642 -13.729  0.00  0.00    -0.379 OA
ATOM     20  H   UNL     1      36.271 -24.741 -13.954  0.00  0.00    +0.211 HD
ENDBRANCH  18  19
ENDBRANCH  15  18
ENDBRANCH  14  15
ENDBRANCH  13  14
ENDBRANCH  10  13
ENDBRANCH   4  11
BRANCH   3  21
ATOM     21  N   UNL     1      34.000 -23.530 -16.837  0.00  0.00    -0.309 N 
ATOM     22  H   UNL     1      34.353 -24.421 -16.610  0.00  0.00    +0.152 HD
BRANCH  21  25
ATOM     23  I   UNL     1      28.096 -22.582 -14.926  0.00  0.00    -0.042 I 
ATOM     24  F   UNL     1      33.161 -24.288 -14.294  0.00  0.00    -0.203 F 
ATOM     25  C   UNL     1      32.678 -23.318 -16.407  0.00  0.00    +0.076 C 
ATOM     26  C   UNL     1      32.283 -23.709 -15.125  0.00  0.00    +0.154 C 
ATOM     27  C   UNL     1      31.753 -22.717 -17.262  0.00  0.00    +0.017 C 
ATOM     28  C   UNL     1      30.972 -23.499 -14.701  0.00  0.00    +0.037 C 
ATOM     29  C   UNL     1      30.441 -22.505 -16.838  0.00  0.00    +0.007 C 
ATOM     30  C   UNL     1      30.050 -22.896 -15.558  0.00  0.00    +0.032 C 
ENDBRANCH  21  25
ENDBRANCH   3  21
TORSDOF 9
ENDMDL
MODEL 9
REMARK VINA RESULT:      -8.3      3.713      5.066
REMARK  Name = 9826528
REMARK  9 active torsions:
REMARK  status: ('A' for Active; 'I' for Inactive)
REMARK    1  A    between atoms: C_3  and  N_21
REMARK    2  A    between atoms: C_4  and  C_11
REMARK    3  A    between atoms: N_10  and  O_13
REMARK    4  A    between atoms: O_13  and  C_14
REMARK    5  A    between atoms: C_14  and  C_15
REMARK    6  A    between atoms: C_15  and  O_16
REMARK    7  A    between atoms: C_15  and  C_18
REMARK    8  A    between atoms: C_18  and  O_19
REMARK    9  A    between atoms: N_21  and  C_25
REMARK                            x       y       z     vdW  Elec       q    Type
REMARK                         _______ _______ _______ _____ _____    ______ ____
ROOT
ATOM      1  F   UNL     1      37.244 -22.145 -17.851  0.00  0.00    -0.200 F 
ATOM      2  F   UNL     1      37.770 -22.513 -15.203  0.00  0.00    -0.202 F 
ATOM      3  C   UNL     1      34.944 -22.621 -17.494  0.00  0.00    +0.083 C 
ATOM      4  C   UNL     1      33.942 -22.956 -16.606  0.00  0.00    +0.071 C 
ATOM      5  C   UNL     1      36.246 -22.471 -17.017  0.00  0.00    +0.181 C 
ATOM      6  C   UNL     1      34.187 -23.148 -15.261  0.00  0.00    +0.008 C 
ATOM      7  C   UNL     1      36.518 -22.658 -15.662  0.00  0.00    +0.169 C 
ATOM      8  C   UNL     1      35.489 -22.996 -14.784  0.00  0.00    +0.032 C 
ENDROOT
BRANCH   4  11
ATOM      9  O   UNL     1      32.320 -23.213 -18.286  0.00  0.00    -0.268 OA
ATOM     10  N   UNL     1      31.579 -23.150 -16.102  0.00  0.00    -0.190 N 
ATOM     11  C   UNL     1      32.543 -23.124 -17.080  0.00  0.00    +0.269 C 
ATOM     12  H   UNL     1      31.792 -23.062 -15.145  0.00  0.00    +0.183 HD
BRANCH  10  13
ATOM     13  O   UNL     1      30.262 -23.309 -16.573  0.00  0.00    -0.263 OA
BRANCH  13  14
ATOM     14  C   UNL     1      29.516 -24.013 -15.585  0.00  0.00    +0.203 C 
BRANCH  14  15
ATOM     15  C   UNL     1      30.463 -24.803 -14.687  0.00  0.00    +0.172 C 
BRANCH  15  16
ATOM     16  O   UNL     1      30.057 -26.172 -14.685  0.00  0.00    -0.379 OA
ATOM     17  H   UNL     1      30.444 -26.626 -15.451  0.00  0.00    +0.211 HD
ENDBRANCH  15  16
BRANCH  15  18
ATOM     18  C   UNL     1      30.420 -24.297 -13.252  0.00  0.00    +0.169 C 
BRANCH  18  19
ATOM     19  O   UNL     1      31.489 -23.377 -13.053  0.00  0.00    -0.379 OA
ATOM     20  H   UNL     1      32.087 -23.408 -13.816  0.00  0.00    +0.211 HD
ENDBRANCH  18  19
ENDBRANCH  15  18
ENDBRANCH  14  15
ENDBRANCH  13  14
ENDBRANCH  10  13
ENDBRANCH   4  11
BRANCH   3  21
ATOM     21  N   UNL     1      34.686 -22.427 -18.869  0.00  0.00    -0.309 N 
ATOM     22  H   UNL     1      34.470 -23.258 -19.352  0.00  0.00    +0.152 HD
BRANCH  21  25
ATOM     23  I   UNL     1      34.639 -17.306 -22.499  0.00  0.00    -0.042 I 
ATOM     24  F   UNL     1      37.022 -21.445 -20.019  0.00  0.00    -0.203 F 
ATOM     25  C   UNL     1      34.678 -21.280 -19.683  0.00  0.00    +0.076 C 
ATOM     26  C   UNL     1      35.865 -20.808 -20.248  0.00  0.00    +0.154 C 
ATOM     27  C   UNL     1      33.479 -20.606 -19.929  0.00  0.00    +0.017 C 
ATOM     28  C   UNL     1      35.854 -19.671 -21.053  0.00  0.00    +0.037 C 
ATOM     29  C   UNL     1      33.468 -19.469 -20.736  0.00  0.00    +0.007 C 
ATOM     30  C   UNL     1      34.655 -19.001 -21.298  0.00  0.00    +0.032 C 
ENDBRANCH  21  25
ENDBRANCH   3  21
TORSDOF 9
ENDMDL
