MODEL 1
REMARK VINA RESULT:      -5.2      0.000      0.000
REMARK  Name = 194762
REMARK  3 active torsions:
REMARK  status: ('A' for Active; 'I' for Inactive)
REMARK    1  A    between atoms: C_1  and  N_4
REMARK    2  A    between atoms: C_1  and  P_8
REMARK    3  A    between atoms: P_8  and  O_11
REMARK                            x       y       z     vdW  Elec       q    Type
REMARK                         _______ _______ _______ _____ _____    ______ ____
ROOT
ATOM      1  C   UNL     1      29.339 -23.919 -15.399  0.00  0.00    +0.050 C 
ATOM      2  C   UNL     1      30.786 -23.864 -15.797  0.00  0.00    -0.010 C 
ATOM      3  C   UNL     1      30.268 -22.955 -14.722  0.00  0.00    -0.010 C 
ENDROOT
BRANCH   1   4
ATOM      4  N   UNL     1      28.818 -25.075 -14.671  0.00  0.00    +0.390 N 
ATOM      5  H   UNL     1      29.369 -25.901 -14.904  0.00  0.00    -0.088 HD
ATOM      6  H   UNL     1      27.845 -25.231 -14.931  0.00  0.00    -0.088 HD
ATOM      7  H   UNL     1      28.877 -24.900 -13.667  0.00  0.00    -0.088 HD
ENDBRANCH   1   4
BRANCH   1   8
ATOM      8  P   UNL     1      28.160 -23.177 -16.595  0.00  0.00    +0.348 P 
ATOM      9  O   UNL     1      27.820 -24.374 -17.446  0.00  0.00    -0.142 OA
ATOM     10  O   UNL     1      28.939 -21.970 -17.055  0.00  0.00    -0.258 OA
BRANCH   8  11
ATOM     11  O   UNL     1      26.942 -22.771 -15.598  0.00  0.00    -0.323 OA
ATOM     12  H   UNL     1      26.208 -23.395 -15.714  0.00  0.00    +0.220 HD
ENDBRANCH   8  11
ENDBRANCH   1   8
TORSDOF 3
ENDMDL
MODEL 2
REMARK VINA RESULT:      -4.9     14.809     15.499
REMARK  Name = 194762
REMARK  3 active torsions:
REMARK  status: ('A' for Active; 'I' for Inactive)
REMARK    1  A    between atoms: C_1  and  N_4
REMARK    2  A    between atoms: C_1  and  P_8
REMARK    3  A    between atoms: P_8  and  O_11
REMARK                            x       y       z     vdW  Elec       q    Type
REMARK                         _______ _______ _______ _____ _____    ______ ____
ROOT
ATOM      1  C   UNL     1      41.437 -14.888 -16.905  0.00  0.00    +0.050 C 
ATOM      2  C   UNL     1      42.171 -13.609 -17.191  0.00  0.00    -0.010 C 
ATOM      3  C   UNL     1      41.002 -14.010 -18.042  0.00  0.00    -0.010 C 
ENDROOT
BRANCH   1   4
ATOM      4  N   UNL     1      40.606 -15.008 -15.708  0.00  0.00    +0.390 N 
ATOM      5  H   UNL     1      40.059 -14.157 -15.587  0.00  0.00    -0.088 HD
ATOM      6  H   UNL     1      41.202 -15.149 -14.893  0.00  0.00    -0.088 HD
ATOM      7  H   UNL     1      39.977 -15.805 -15.810  0.00  0.00    -0.088 HD
ENDBRANCH   1   4
BRANCH   1   8
ATOM      8  P   UNL     1      42.315 -16.429 -17.383  0.00  0.00    +0.348 P 
ATOM      9  O   UNL     1      43.568 -16.316 -16.553  0.00  0.00    -0.142 OA
ATOM     10  O   UNL     1      42.252 -16.340 -18.888  0.00  0.00    -0.258 OA
BRANCH   8  11
ATOM     11  O   UNL     1      41.291 -17.547 -16.796  0.00  0.00    -0.323 OA
ATOM     12  H   UNL     1      41.292 -18.324 -17.378  0.00  0.00    +0.220 HD
ENDBRANCH   8  11
ENDBRANCH   1   8
TORSDOF 3
ENDMDL
MODEL 3
REMARK VINA RESULT:      -4.9      1.177      2.200
REMARK  Name = 194762
REMARK  3 active torsions:
REMARK  status: ('A' for Active; 'I' for Inactive)
REMARK    1  A    between atoms: C_1  and  N_4
REMARK    2  A    between atoms: C_1  and  P_8
REMARK    3  A    between atoms: P_8  and  O_11
REMARK                            x       y       z     vdW  Elec       q    Type
REMARK                         _______ _______ _______ _____ _____    ______ ____
ROOT
ATOM      1  C   UNL     1      29.342 -23.812 -15.346  0.00  0.00    +0.050 C 
ATOM      2  C   UNL     1      28.906 -25.091 -14.692  0.00  0.00    -0.010 C 
ATOM      3  C   UNL     1      29.964 -25.116 -15.755  0.00  0.00    -0.010 C 
ENDROOT
BRANCH   1   4
ATOM      4  N   UNL     1      30.121 -22.829 -14.595  0.00  0.00    +0.390 N 
ATOM      5  H   UNL     1      29.686 -21.911 -14.683  0.00  0.00    -0.088 HD
ATOM      6  H   UNL     1      31.071 -22.792 -14.966  0.00  0.00    -0.088 HD
ATOM      7  H   UNL     1      30.151 -23.098 -13.611  0.00  0.00    -0.088 HD
ENDBRANCH   1   4
BRANCH   1   8
ATOM      8  P   UNL     1      28.154 -23.090 -16.546  0.00  0.00    +0.348 P 
ATOM      9  O   UNL     1      29.038 -22.106 -17.269  0.00  0.00    -0.142 OA
ATOM     10  O   UNL     1      27.008 -22.729 -15.633  0.00  0.00    -0.258 OA
BRANCH   8  11
ATOM     11  O   UNL     1      27.820 -24.395 -17.455  0.00  0.00    -0.323 OA
ATOM     12  H   UNL     1      26.875 -24.605 -17.384  0.00  0.00    +0.220 HD
ENDBRANCH   8  11
ENDBRANCH   1   8
TORSDOF 3
ENDMDL
MODEL 4
REMARK VINA RESULT:      -4.8     15.329     15.976
REMARK  Name = 194762
REMARK  3 active torsions:
REMARK  status: ('A' for Active; 'I' for Inactive)
REMARK    1  A    between atoms: C_1  and  N_4
REMARK    2  A    between atoms: C_1  and  P_8
REMARK    3  A    between atoms: P_8  and  O_11
REMARK                            x       y       z     vdW  Elec       q    Type
REMARK                         _______ _______ _______ _____ _____    ______ ____
ROOT
ATOM      1  C   UNL     1      41.954 -13.765 -16.056  0.00  0.00    +0.050 C 
ATOM      2  C   UNL     1      43.300 -13.197 -16.402  0.00  0.00    -0.010 C 
ATOM      3  C   UNL     1      42.092 -12.802 -17.200  0.00  0.00    -0.010 C 
ENDROOT
BRANCH   1   4
ATOM      4  N   UNL     1      41.275 -13.356 -14.827  0.00  0.00    +0.390 N 
ATOM      5  H   UNL     1      40.574 -12.648 -15.045  0.00  0.00    -0.088 HD
ATOM      6  H   UNL     1      41.957 -12.970 -14.174  0.00  0.00    -0.088 HD
ATOM      7  H   UNL     1      40.821 -14.166 -14.404  0.00  0.00    -0.088 HD
ENDBRANCH   1   4
BRANCH   1   8
ATOM      8  P   UNL     1      41.690 -15.521 -16.526  0.00  0.00    +0.348 P 
ATOM      9  O   UNL     1      42.962 -16.150 -16.015  0.00  0.00    -0.142 OA
ATOM     10  O   UNL     1      41.308 -15.375 -17.978  0.00  0.00    -0.258 OA
BRANCH   8  11
ATOM     11  O   UNL     1      40.410 -15.888 -15.594  0.00  0.00    -0.323 OA
ATOM     12  H   UNL     1      39.669 -15.302 -15.817  0.00  0.00    +0.220 HD
ENDBRANCH   8  11
ENDBRANCH   1   8
TORSDOF 3
ENDMDL
MODEL 5
REMARK VINA RESULT:      -4.8      8.686      9.043
REMARK  Name = 194762
REMARK  3 active torsions:
REMARK  status: ('A' for Active; 'I' for Inactive)
REMARK    1  A    between atoms: C_1  and  N_4
REMARK    2  A    between atoms: C_1  and  P_8
REMARK    3  A    between atoms: P_8  and  O_11
REMARK                            x       y       z     vdW  Elec       q    Type
REMARK                         _______ _______ _______ _____ _____    ______ ____
ROOT
ATOM      1  C   UNL     1      37.127 -24.746 -14.677  0.00  0.00    +0.050 C 
ATOM      2  C   UNL     1      35.718 -24.255 -14.521  0.00  0.00    -0.010 C 
ATOM      3  C   UNL     1      36.677 -24.158 -13.372  0.00  0.00    -0.010 C 
ENDROOT
BRANCH   1   4
ATOM      4  N   UNL     1      38.071 -24.018 -15.526  0.00  0.00    +0.390 N 
ATOM      5  H   UNL     1      38.017 -24.375 -16.479  0.00  0.00    -0.088 HD
ATOM      6  H   UNL     1      39.018 -24.146 -15.168  0.00  0.00    -0.088 HD
ATOM      7  H   UNL     1      37.838 -23.025 -15.520  0.00  0.00    -0.088 HD
ENDBRANCH   1   4
BRANCH   1   8
ATOM      8  P   UNL     1      37.334 -26.571 -14.697  0.00  0.00    +0.348 P 
ATOM      9  O   UNL     1      38.836 -26.689 -14.762  0.00  0.00    -0.142 OA
ATOM     10  O   UNL     1      36.378 -26.956 -15.798  0.00  0.00    -0.258 OA
BRANCH   8  11
ATOM     11  O   UNL     1      36.755 -26.950 -13.226  0.00  0.00    -0.323 OA
ATOM     12  H   UNL     1      37.452 -26.828 -12.563  0.00  0.00    +0.220 HD
ENDBRANCH   8  11
ENDBRANCH   1   8
TORSDOF 3
ENDMDL
MODEL 6
REMARK VINA RESULT:      -4.8      9.193      9.629
REMARK  Name = 194762
REMARK  3 active torsions:
REMARK  status: ('A' for Active; 'I' for Inactive)
REMARK    1  A    between atoms: C_1  and  N_4
REMARK    2  A    between atoms: C_1  and  P_8
REMARK    3  A    between atoms: P_8  and  O_11
REMARK                            x       y       z     vdW  Elec       q    Type
REMARK                         _______ _______ _______ _____ _____    ______ ____
ROOT
ATOM      1  C   UNL     1      37.767 -25.124 -13.076  0.00  0.00    +0.050 C 
ATOM      2  C   UNL     1      38.256 -24.769 -14.450  0.00  0.00    -0.010 C 
ATOM      3  C   UNL     1      39.224 -25.257 -13.413  0.00  0.00    -0.010 C 
ENDROOT
BRANCH   1   4
ATOM      4  N   UNL     1      36.947 -26.317 -12.871  0.00  0.00    +0.390 N 
ATOM      5  H   UNL     1      37.178 -26.739 -11.973  0.00  0.00    -0.088 HD
ATOM      6  H   UNL     1      37.127 -26.987 -13.619  0.00  0.00    -0.088 HD
ATOM      7  H   UNL     1      35.960 -26.057 -12.880  0.00  0.00    -0.088 HD
ENDBRANCH   1   4
BRANCH   1   8
ATOM      8  P   UNL     1      37.330 -23.702 -11.998  0.00  0.00    +0.348 P 
ATOM      9  O   UNL     1      36.246 -23.045 -12.814  0.00  0.00    -0.142 OA
ATOM     10  O   UNL     1      38.694 -23.119 -11.725  0.00  0.00    -0.258 OA
BRANCH   8  11
ATOM     11  O   UNL     1      36.732 -24.484 -10.705  0.00  0.00    -0.323 OA
ATOM     12  H   UNL     1      35.801 -24.707 -10.864  0.00  0.00    +0.220 HD
ENDBRANCH   8  11
ENDBRANCH   1   8
TORSDOF 3
ENDMDL
MODEL 7
REMARK VINA RESULT:      -4.7      8.996      9.641
REMARK  Name = 194762
REMARK  3 active torsions:
REMARK  status: ('A' for Active; 'I' for Inactive)
REMARK    1  A    between atoms: C_1  and  N_4
REMARK    2  A    between atoms: C_1  and  P_8
REMARK    3  A    between atoms: P_8  and  O_11
REMARK                            x       y       z     vdW  Elec       q    Type
REMARK                         _______ _______ _______ _____ _____    ______ ____
ROOT
ATOM      1  C   UNL     1      38.167 -25.727 -13.940  0.00  0.00    +0.050 C 
ATOM      2  C   UNL     1      37.250 -26.180 -12.841  0.00  0.00    -0.010 C 
ATOM      3  C   UNL     1      37.225 -26.872 -14.171  0.00  0.00    -0.010 C 
ENDROOT
BRANCH   1   4
ATOM      4  N   UNL     1      39.607 -25.966 -13.843  0.00  0.00    +0.390 N 
ATOM      5  H   UNL     1      40.106 -25.083 -13.944  0.00  0.00    -0.088 HD
ATOM      6  H   UNL     1      39.896 -26.606 -14.583  0.00  0.00    -0.088 HD
ATOM      7  H   UNL     1      39.824 -26.378 -12.935  0.00  0.00    -0.088 HD
ENDBRANCH   1   4
BRANCH   1   8
ATOM      8  P   UNL     1      37.709 -24.146 -14.754  0.00  0.00    +0.348 P 
ATOM      9  O   UNL     1      37.683 -23.211 -13.571  0.00  0.00    -0.142 OA
ATOM     10  O   UNL     1      36.506 -24.575 -15.557  0.00  0.00    -0.258 OA
BRANCH   8  11
ATOM     11  O   UNL     1      39.014 -23.907 -15.693  0.00  0.00    -0.323 OA
ATOM     12  H   UNL     1      39.735 -24.485 -15.398  0.00  0.00    +0.220 HD
ENDBRANCH   8  11
ENDBRANCH   1   8
TORSDOF 3
ENDMDL
MODEL 8
REMARK VINA RESULT:      -4.7     14.977     15.481
REMARK  Name = 194762
REMARK  3 active torsions:
REMARK  status: ('A' for Active; 'I' for Inactive)
REMARK    1  A    between atoms: C_1  and  N_4
REMARK    2  A    between atoms: C_1  and  P_8
REMARK    3  A    between atoms: P_8  and  O_11
REMARK                            x       y       z     vdW  Elec       q    Type
REMARK                         _______ _______ _______ _____ _____    ______ ____
ROOT
ATOM      1  C   UNL     1      41.951 -15.377 -18.039  0.00  0.00    +0.050 C 
ATOM      2  C   UNL     1      41.114 -14.131 -18.052  0.00  0.00    -0.010 C 
ATOM      3  C   UNL     1      42.602 -14.033 -17.888  0.00  0.00    -0.010 C 
ENDROOT
BRANCH   1   4
ATOM      4  N   UNL     1      42.138 -16.153 -19.264  0.00  0.00    +0.390 N 
ATOM      5  H   UNL     1      41.286 -16.673 -19.471  0.00  0.00    -0.088 HD
ATOM      6  H   UNL     1      42.913 -16.804 -19.140  0.00  0.00    -0.088 HD
ATOM      7  H   UNL     1      42.347 -15.521 -20.038  0.00  0.00    -0.088 HD
ENDBRANCH   1   4
BRANCH   1   8
ATOM      8  P   UNL     1      41.849 -16.384 -16.506  0.00  0.00    +0.348 P 
ATOM      9  O   UNL     1      40.704 -15.709 -15.794  0.00  0.00    -0.142 OA
ATOM     10  O   UNL     1      43.289 -16.370 -16.057  0.00  0.00    -0.258 OA
BRANCH   8  11
ATOM     11  O   UNL     1      41.418 -17.824 -17.126  0.00  0.00    -0.323 OA
ATOM     12  H   UNL     1      40.455 -17.855 -17.234  0.00  0.00    +0.220 HD
ENDBRANCH   8  11
ENDBRANCH   1   8
TORSDOF 3
ENDMDL
MODEL 9
REMARK VINA RESULT:      -4.7      1.864      2.525
REMARK  Name = 194762
REMARK  3 active torsions:
REMARK  status: ('A' for Active; 'I' for Inactive)
REMARK    1  A    between atoms: C_1  and  N_4
REMARK    2  A    between atoms: C_1  and  P_8
REMARK    3  A    between atoms: P_8  and  O_11
REMARK                            x       y       z     vdW  Elec       q    Type
REMARK                         _______ _______ _______ _____ _____    ______ ____
ROOT
ATOM      1  C   UNL     1      30.324 -23.069 -16.003  0.00  0.00    +0.050 C 
ATOM      2  C   UNL     1      30.900 -22.778 -14.647  0.00  0.00    -0.010 C 
ATOM      3  C   UNL     1      31.032 -24.150 -15.240  0.00  0.00    -0.010 C 
ENDROOT
BRANCH   1   4
ATOM      4  N   UNL     1      30.933 -22.493 -17.201  0.00  0.00    +0.390 N 
ATOM      5  H   UNL     1      30.202 -22.231 -17.862  0.00  0.00    -0.088 HD
ATOM      6  H   UNL     1      31.550 -23.181 -17.632  0.00  0.00    -0.088 HD
ATOM      7  H   UNL     1      31.473 -21.667 -16.945  0.00  0.00    -0.088 HD
ENDBRANCH   1   4
BRANCH   1   8
ATOM      8  P   UNL     1      28.494 -23.215 -16.072  0.00  0.00    +0.348 P 
ATOM      9  O   UNL     1      28.078 -21.848 -15.590  0.00  0.00    -0.142 OA
ATOM     10  O   UNL     1      28.281 -24.508 -15.324  0.00  0.00    -0.258 OA
BRANCH   8  11
ATOM     11  O   UNL     1      28.271 -23.393 -17.672  0.00  0.00    -0.323 OA
ATOM     12  H   UNL     1      27.566 -22.796 -17.968  0.00  0.00    +0.220 HD
ENDBRANCH   8  11
ENDBRANCH   1   8
TORSDOF 3
ENDMDL
