MODEL 1
REMARK VINA RESULT:     -10.2      0.000      0.000
REMARK  Name = 447960
REMARK  3 active torsions:
REMARK  status: ('A' for Active; 'I' for Inactive)
REMARK    1  A    between atoms: N_1  and  C_18
REMARK    2  A    between atoms: C_4  and  C_12
REMARK    3  A    between atoms: C_23  and  O_24
REMARK                            x       y       z     vdW  Elec       q    Type
REMARK                         _______ _______ _______ _____ _____    ______ ____
ROOT
ATOM      1  N   UNL     1      32.631 -22.052 -18.381  0.00  0.00    -0.247 N 
ATOM      2  N   UNL     1      34.211 -23.029 -16.948  0.00  0.00    -0.341 NA
ATOM      3  N   UNL     1      31.851 -23.336 -16.579  0.00  0.00    -0.170 NA
ATOM      4  C   UNL     1      34.443 -23.790 -15.859  0.00  0.00    +0.140 C 
ATOM      5  C   UNL     1      32.911 -22.843 -17.250  0.00  0.00    +0.148 C 
ATOM      6  C   UNL     1      33.445 -24.352 -15.089  0.00  0.00    +0.051 C 
ATOM      7  C   UNL     1      32.154 -24.089 -15.502  0.00  0.00    +0.114 C 
ATOM      8  H   UNL     1      31.668 -21.945 -18.560  0.00  0.00    +0.165 HD
ENDROOT
BRANCH   4  12
ATOM      9  S   UNL     1      36.346 -25.455 -14.821  0.00  0.00    -0.054 S 
ATOM     10  N   UNL     1      38.142 -23.660 -15.303  0.00  0.00    -0.388 NA
ATOM     11  N   UNL     1      38.948 -25.646 -14.308  0.00  0.00    -0.302 N 
ATOM     12  C   UNL     1      35.834 -23.984 -15.544  0.00  0.00    +0.156 C 
ATOM     13  C   UNL     1      36.924 -23.157 -15.722  0.00  0.00    +0.106 C 
ATOM     14  C   UNL     1      37.956 -24.865 -14.811  0.00  0.00    +0.207 C 
ATOM     15  C   UNL     1      36.905 -21.803 -16.314  0.00  0.00    +0.063 C 
ATOM     16  C   UNL     1      40.354 -25.261 -14.242  0.00  0.00    +0.111 C 
ATOM     17  H   UNL     1      38.700 -26.534 -13.962  0.00  0.00    +0.150 HD
ENDBRANCH   4  12
BRANCH   1  18
ATOM     18  C   UNL     1      33.458 -21.384 -19.308  0.00  0.00    +0.058 C 
ATOM     19  C   UNL     1      34.816 -21.697 -19.383  0.00  0.00    +0.018 C 
ATOM     20  C   UNL     1      32.919 -20.410 -20.148  0.00  0.00    +0.018 C 
ATOM     21  C   UNL     1      35.634 -21.035 -20.298  0.00  0.00    +0.038 C 
ATOM     22  C   UNL     1      33.737 -19.749 -21.064  0.00  0.00    +0.038 C 
ATOM     23  C   UNL     1      35.094 -20.061 -21.140  0.00  0.00    +0.134 C 
BRANCH  23  24
ATOM     24  O   UNL     1      35.892 -19.417 -22.034  0.00  0.00    -0.506 OA
ATOM     25  H   UNL     1      36.815 -19.362 -21.884  0.00  0.00    +0.292 HD
ENDBRANCH  23  24
ENDBRANCH   1  18
TORSDOF 3
ENDMDL
MODEL 2
REMARK VINA RESULT:      -9.6      3.445      5.769
REMARK  Name = 447960
REMARK  3 active torsions:
REMARK  status: ('A' for Active; 'I' for Inactive)
REMARK    1  A    between atoms: N_1  and  C_18
REMARK    2  A    between atoms: C_4  and  C_12
REMARK    3  A    between atoms: C_23  and  O_24
REMARK                            x       y       z     vdW  Elec       q    Type
REMARK                         _______ _______ _______ _____ _____    ______ ____
ROOT
ATOM      1  N   UNL     1      31.333 -24.281 -13.916  0.00  0.00    -0.247 N 
ATOM      2  N   UNL     1      33.238 -23.584 -15.094  0.00  0.00    -0.341 NA
ATOM      3  N   UNL     1      33.419 -24.473 -12.862  0.00  0.00    -0.170 NA
ATOM      4  C   UNL     1      34.578 -23.428 -15.101  0.00  0.00    +0.140 C 
ATOM      5  C   UNL     1      32.729 -24.105 -13.959  0.00  0.00    +0.148 C 
ATOM      6  C   UNL     1      35.395 -23.766 -14.042  0.00  0.00    +0.051 C 
ATOM      7  C   UNL     1      34.754 -24.290 -12.937  0.00  0.00    +0.114 C 
ATOM      8  H   UNL     1      31.008 -24.664 -13.068  0.00  0.00    +0.165 HD
ENDROOT
BRANCH   4  12
ATOM      9  S   UNL     1      34.100 -22.688 -17.688  0.00  0.00    -0.054 S 
ATOM     10  N   UNL     1      36.564 -21.937 -17.900  0.00  0.00    -0.388 NA
ATOM     11  N   UNL     1      35.253 -21.643 -19.845  0.00  0.00    -0.302 N 
ATOM     12  C   UNL     1      35.114 -22.872 -16.315  0.00  0.00    +0.156 C 
ATOM     13  C   UNL     1      36.383 -22.419 -16.618  0.00  0.00    +0.106 C 
ATOM     14  C   UNL     1      35.427 -22.030 -18.553  0.00  0.00    +0.207 C 
ATOM     15  C   UNL     1      37.546 -22.406 -15.705  0.00  0.00    +0.063 C 
ATOM     16  C   UNL     1      36.299 -21.071 -20.686  0.00  0.00    +0.111 C 
ATOM     17  H   UNL     1      34.359 -21.758 -20.240  0.00  0.00    +0.150 HD
ENDBRANCH   4  12
BRANCH   1  18
ATOM     18  C   UNL     1      30.307 -24.019 -14.848  0.00  0.00    +0.058 C 
ATOM     19  C   UNL     1      29.777 -25.059 -15.613  0.00  0.00    +0.018 C 
ATOM     20  C   UNL     1      29.823 -22.720 -15.006  0.00  0.00    +0.018 C 
ATOM     21  C   UNL     1      28.764 -24.799 -16.536  0.00  0.00    +0.038 C 
ATOM     22  C   UNL     1      28.810 -22.461 -15.929  0.00  0.00    +0.038 C 
ATOM     23  C   UNL     1      28.280 -23.500 -16.693  0.00  0.00    +0.134 C 
BRANCH  23  24
ATOM     24  O   UNL     1      27.290 -23.247 -17.592  0.00  0.00    -0.506 OA
ATOM     25  H   UNL     1      26.431 -23.595 -17.454  0.00  0.00    +0.292 HD
ENDBRANCH  23  24
ENDBRANCH   1  18
TORSDOF 3
ENDMDL
MODEL 3
REMARK VINA RESULT:      -9.4      7.183     10.188
REMARK  Name = 447960
REMARK  3 active torsions:
REMARK  status: ('A' for Active; 'I' for Inactive)
REMARK    1  A    between atoms: N_1  and  C_18
REMARK    2  A    between atoms: C_4  and  C_12
REMARK    3  A    between atoms: C_23  and  O_24
REMARK                            x       y       z     vdW  Elec       q    Type
REMARK                         _______ _______ _______ _____ _____    ______ ____
ROOT
ATOM      1  N   UNL     1      32.381 -12.984 -23.729  0.00  0.00    -0.247 N 
ATOM      2  N   UNL     1      33.475 -15.005 -23.254  0.00  0.00    -0.341 NA
ATOM      3  N   UNL     1      33.072 -14.321 -25.529  0.00  0.00    -0.170 NA
ATOM      4  C   UNL     1      34.065 -16.119 -23.732  0.00  0.00    +0.140 C 
ATOM      5  C   UNL     1      33.005 -14.158 -24.192  0.00  0.00    +0.148 C 
ATOM      6  C   UNL     1      34.196 -16.402 -25.077  0.00  0.00    +0.051 C 
ATOM      7  C   UNL     1      33.675 -15.456 -25.938  0.00  0.00    +0.114 C 
ATOM      8  H   UNL     1      32.055 -12.398 -24.451  0.00  0.00    +0.165 HD
ENDROOT
BRANCH   4  12
ATOM      9  S   UNL     1      34.877 -18.658 -23.125  0.00  0.00    -0.054 S 
ATOM     10  N   UNL     1      35.335 -17.901 -20.697  0.00  0.00    -0.388 NA
ATOM     11  N   UNL     1      35.796 -20.176 -21.145  0.00  0.00    -0.302 N 
ATOM     12  C   UNL     1      34.564 -17.017 -22.725  0.00  0.00    +0.156 C 
ATOM     13  C   UNL     1      34.867 -16.805 -21.395  0.00  0.00    +0.106 C 
ATOM     14  C   UNL     1      35.381 -18.934 -21.509  0.00  0.00    +0.207 C 
ATOM     15  C   UNL     1      34.737 -15.526 -20.664  0.00  0.00    +0.063 C 
ATOM     16  C   UNL     1      36.249 -20.539 -19.807  0.00  0.00    +0.111 C 
ATOM     17  H   UNL     1      35.790 -20.880 -21.833  0.00  0.00    +0.150 HD
ENDBRANCH   4  12
BRANCH   1  18
ATOM     18  C   UNL     1      32.132 -12.481 -22.435  0.00  0.00    +0.058 C 
ATOM     19  C   UNL     1      31.756 -11.148 -22.266  0.00  0.00    +0.018 C 
ATOM     20  C   UNL     1      32.262 -13.316 -21.325  0.00  0.00    +0.018 C 
ATOM     21  C   UNL     1      31.512 -10.651 -20.986  0.00  0.00    +0.038 C 
ATOM     22  C   UNL     1      32.017 -12.818 -20.046  0.00  0.00    +0.038 C 
ATOM     23  C   UNL     1      31.641 -11.486 -19.876  0.00  0.00    +0.134 C 
BRANCH  23  24
ATOM     24  O   UNL     1      31.400 -11.001 -18.627  0.00  0.00    -0.506 OA
ATOM     25  H   UNL     1      31.092 -11.574 -17.953  0.00  0.00    +0.292 HD
ENDBRANCH  23  24
ENDBRANCH   1  18
TORSDOF 3
ENDMDL
MODEL 4
REMARK VINA RESULT:      -9.4      7.184     10.148
REMARK  Name = 447960
REMARK  3 active torsions:
REMARK  status: ('A' for Active; 'I' for Inactive)
REMARK    1  A    between atoms: N_1  and  C_18
REMARK    2  A    between atoms: C_4  and  C_12
REMARK    3  A    between atoms: C_23  and  O_24
REMARK                            x       y       z     vdW  Elec       q    Type
REMARK                         _______ _______ _______ _____ _____    ______ ____
ROOT
ATOM      1  N   UNL     1      32.383 -12.984 -23.731  0.00  0.00    -0.247 N 
ATOM      2  N   UNL     1      33.476 -15.004 -23.255  0.00  0.00    -0.341 NA
ATOM      3  N   UNL     1      33.072 -14.322 -25.530  0.00  0.00    -0.170 NA
ATOM      4  C   UNL     1      34.066 -16.119 -23.733  0.00  0.00    +0.140 C 
ATOM      5  C   UNL     1      33.007 -14.158 -24.194  0.00  0.00    +0.148 C 
ATOM      6  C   UNL     1      34.196 -16.403 -25.077  0.00  0.00    +0.051 C 
ATOM      7  C   UNL     1      33.676 -15.458 -25.939  0.00  0.00    +0.114 C 
ATOM      8  H   UNL     1      32.056 -12.399 -24.453  0.00  0.00    +0.165 HD
ENDROOT
BRANCH   4  12
ATOM      9  S   UNL     1      34.877 -18.658 -23.125  0.00  0.00    -0.054 S 
ATOM     10  N   UNL     1      35.338 -17.900 -20.697  0.00  0.00    -0.388 NA
ATOM     11  N   UNL     1      35.798 -20.175 -21.144  0.00  0.00    -0.302 N 
ATOM     12  C   UNL     1      34.566 -17.017 -22.726  0.00  0.00    +0.156 C 
ATOM     13  C   UNL     1      34.870 -16.803 -21.396  0.00  0.00    +0.106 C 
ATOM     14  C   UNL     1      35.383 -18.933 -21.509  0.00  0.00    +0.207 C 
ATOM     15  C   UNL     1      34.741 -15.524 -20.666  0.00  0.00    +0.063 C 
ATOM     16  C   UNL     1      36.251 -20.538 -19.806  0.00  0.00    +0.111 C 
ATOM     17  H   UNL     1      35.791 -20.879 -21.832  0.00  0.00    +0.150 HD
ENDBRANCH   4  12
BRANCH   1  18
ATOM     18  C   UNL     1      32.134 -12.480 -22.437  0.00  0.00    +0.058 C 
ATOM     19  C   UNL     1      32.262 -13.316 -21.327  0.00  0.00    +0.018 C 
ATOM     20  C   UNL     1      31.759 -11.148 -22.267  0.00  0.00    +0.018 C 
ATOM     21  C   UNL     1      32.015 -12.819 -20.048  0.00  0.00    +0.038 C 
ATOM     22  C   UNL     1      31.512 -10.650 -20.987  0.00  0.00    +0.038 C 
ATOM     23  C   UNL     1      31.641 -11.485 -19.878  0.00  0.00    +0.134 C 
BRANCH  23  24
ATOM     24  O   UNL     1      31.402 -11.000 -18.630  0.00  0.00    -0.506 OA
ATOM     25  H   UNL     1      32.027 -11.135 -17.945  0.00  0.00    +0.292 HD
ENDBRANCH  23  24
ENDBRANCH   1  18
TORSDOF 3
ENDMDL
MODEL 5
REMARK VINA RESULT:      -9.2      3.405      6.220
REMARK  Name = 447960
REMARK  3 active torsions:
REMARK  status: ('A' for Active; 'I' for Inactive)
REMARK    1  A    between atoms: N_1  and  C_18
REMARK    2  A    between atoms: C_4  and  C_12
REMARK    3  A    between atoms: C_23  and  O_24
REMARK                            x       y       z     vdW  Elec       q    Type
REMARK                         _______ _______ _______ _____ _____    ______ ____
ROOT
ATOM      1  N   UNL     1      32.614 -24.552 -13.747  0.00  0.00    -0.247 N 
ATOM      2  N   UNL     1      34.043 -23.582 -15.335  0.00  0.00    -0.341 NA
ATOM      3  N   UNL     1      34.929 -24.714 -13.402  0.00  0.00    -0.170 NA
ATOM      4  C   UNL     1      35.310 -23.327 -15.720  0.00  0.00    +0.140 C 
ATOM      5  C   UNL     1      33.923 -24.270 -14.182  0.00  0.00    +0.148 C 
ATOM      6  C   UNL     1      36.424 -23.728 -15.011  0.00  0.00    +0.051 C 
ATOM      7  C   UNL     1      36.169 -24.426 -13.847  0.00  0.00    +0.114 C 
ATOM      8  H   UNL     1      32.578 -25.056 -12.901  0.00  0.00    +0.165 HD
ENDROOT
BRANCH   4  12
ATOM      9  S   UNL     1      36.868 -21.713 -17.283  0.00  0.00    -0.054 S 
ATOM     10  N   UNL     1      34.986 -21.657 -19.054  0.00  0.00    -0.388 NA
ATOM     11  N   UNL     1      36.920 -20.416 -19.604  0.00  0.00    -0.302 N 
ATOM     12  C   UNL     1      35.430 -22.593 -16.952  0.00  0.00    +0.156 C 
ATOM     13  C   UNL     1      34.550 -22.444 -18.005  0.00  0.00    +0.106 C 
ATOM     14  C   UNL     1      36.195 -21.219 -18.782  0.00  0.00    +0.207 C 
ATOM     15  C   UNL     1      33.202 -23.044 -18.106  0.00  0.00    +0.063 C 
ATOM     16  C   UNL     1      36.463 -19.928 -20.900  0.00  0.00    +0.111 C 
ATOM     17  H   UNL     1      37.817 -20.144 -19.302  0.00  0.00    +0.150 HD
ENDBRANCH   4  12
BRANCH   1  18
ATOM     18  C   UNL     1      31.344 -24.257 -14.286  0.00  0.00    +0.058 C 
ATOM     19  C   UNL     1      30.989 -22.933 -14.547  0.00  0.00    +0.018 C 
ATOM     20  C   UNL     1      30.444 -25.288 -14.556  0.00  0.00    +0.018 C 
ATOM     21  C   UNL     1      29.732 -22.641 -15.078  0.00  0.00    +0.038 C 
ATOM     22  C   UNL     1      29.188 -24.995 -15.087  0.00  0.00    +0.038 C 
ATOM     23  C   UNL     1      28.833 -23.673 -15.349  0.00  0.00    +0.134 C 
BRANCH  23  24
ATOM     24  O   UNL     1      27.607 -23.387 -15.868  0.00  0.00    -0.506 OA
ATOM     25  H   UNL     1      26.835 -23.531 -15.357  0.00  0.00    +0.292 HD
ENDBRANCH  23  24
ENDBRANCH   1  18
TORSDOF 3
ENDMDL
MODEL 6
REMARK VINA RESULT:      -9.1      3.271      6.683
REMARK  Name = 447960
REMARK  3 active torsions:
REMARK  status: ('A' for Active; 'I' for Inactive)
REMARK    1  A    between atoms: N_1  and  C_18
REMARK    2  A    between atoms: C_4  and  C_12
REMARK    3  A    between atoms: C_23  and  O_24
REMARK                            x       y       z     vdW  Elec       q    Type
REMARK                         _______ _______ _______ _____ _____    ______ ____
ROOT
ATOM      1  N   UNL     1      35.487 -25.321 -13.906  0.00  0.00    -0.247 N 
ATOM      2  N   UNL     1      35.028 -23.893 -15.710  0.00  0.00    -0.341 NA
ATOM      3  N   UNL     1      33.252 -24.737 -14.317  0.00  0.00    -0.170 NA
ATOM      4  C   UNL     1      34.098 -23.233 -16.431  0.00  0.00    +0.140 C 
ATOM      5  C   UNL     1      34.545 -24.617 -14.680  0.00  0.00    +0.148 C 
ATOM      6  C   UNL     1      32.746 -23.275 -16.161  0.00  0.00    +0.051 C 
ATOM      7  C   UNL     1      32.377 -24.050 -15.080  0.00  0.00    +0.114 C 
ATOM      8  H   UNL     1      35.087 -25.834 -13.166  0.00  0.00    +0.165 HD
ENDROOT
BRANCH   4  12
ATOM      9  S   UNL     1      33.594 -22.040 -18.838  0.00  0.00    -0.054 S 
ATOM     10  N   UNL     1      36.053 -21.246 -18.928  0.00  0.00    -0.388 NA
ATOM     11  N   UNL     1      34.723 -20.613 -20.777  0.00  0.00    -0.302 N 
ATOM     12  C   UNL     1      34.621 -22.463 -17.528  0.00  0.00    +0.156 C 
ATOM     13  C   UNL     1      35.884 -21.954 -17.753  0.00  0.00    +0.106 C 
ATOM     14  C   UNL     1      34.910 -21.227 -19.579  0.00  0.00    +0.207 C 
ATOM     15  C   UNL     1      37.055 -22.098 -16.862  0.00  0.00    +0.063 C 
ATOM     16  C   UNL     1      35.758 -19.891 -21.509  0.00  0.00    +0.111 C 
ATOM     17  H   UNL     1      33.826 -20.661 -21.180  0.00  0.00    +0.150 HD
ENDBRANCH   4  12
BRANCH   1  18
ATOM     18  C   UNL     1      36.891 -25.434 -13.980  0.00  0.00    +0.058 C 
ATOM     19  C   UNL     1      37.696 -24.722 -13.089  0.00  0.00    +0.018 C 
ATOM     20  C   UNL     1      37.474 -26.257 -14.943  0.00  0.00    +0.018 C 
ATOM     21  C   UNL     1      39.084 -24.834 -13.164  0.00  0.00    +0.038 C 
ATOM     22  C   UNL     1      38.863 -26.368 -15.016  0.00  0.00    +0.038 C 
ATOM     23  C   UNL     1      39.667 -25.657 -14.127  0.00  0.00    +0.134 C 
BRANCH  23  24
ATOM     24  O   UNL     1      41.022 -25.767 -14.198  0.00  0.00    -0.506 OA
ATOM     25  H   UNL     1      41.489 -26.246 -13.541  0.00  0.00    +0.292 HD
ENDBRANCH  23  24
ENDBRANCH   1  18
TORSDOF 3
ENDMDL
MODEL 7
REMARK VINA RESULT:      -9.1      2.125      5.210
REMARK  Name = 447960
REMARK  3 active torsions:
REMARK  status: ('A' for Active; 'I' for Inactive)
REMARK    1  A    between atoms: N_1  and  C_18
REMARK    2  A    between atoms: C_4  and  C_12
REMARK    3  A    between atoms: C_23  and  O_24
REMARK                            x       y       z     vdW  Elec       q    Type
REMARK                         _______ _______ _______ _____ _____    ______ ____
ROOT
ATOM      1  N   UNL     1      36.628 -21.989 -17.940  0.00  0.00    -0.247 N 
ATOM      2  N   UNL     1      34.699 -22.750 -16.843  0.00  0.00    -0.341 NA
ATOM      3  N   UNL     1      36.893 -23.308 -16.018  0.00  0.00    -0.170 NA
ATOM      4  C   UNL     1      34.176 -23.456 -15.819  0.00  0.00    +0.140 C 
ATOM      5  C   UNL     1      36.046 -22.716 -16.884  0.00  0.00    +0.148 C 
ATOM      6  C   UNL     1      34.935 -24.107 -14.868  0.00  0.00    +0.051 C 
ATOM      7  C   UNL     1      36.303 -23.996 -15.019  0.00  0.00    +0.114 C 
ATOM      8  H   UNL     1      37.613 -21.994 -17.928  0.00  0.00    +0.165 HD
ENDROOT
BRANCH   4  12
ATOM      9  S   UNL     1      31.835 -22.701 -17.013  0.00  0.00    -0.054 S 
ATOM     10  N   UNL     1      30.523 -23.911 -15.143  0.00  0.00    -0.388 NA
ATOM     11  N   UNL     1      29.190 -22.861 -16.788  0.00  0.00    -0.302 N 
ATOM     12  C   UNL     1      32.738 -23.488 -15.781  0.00  0.00    +0.156 C 
ATOM     13  C   UNL     1      31.870 -24.073 -14.881  0.00  0.00    +0.106 C 
ATOM     14  C   UNL     1      30.387 -23.205 -16.243  0.00  0.00    +0.207 C 
ATOM     15  C   UNL     1      32.251 -24.845 -13.678  0.00  0.00    +0.063 C 
ATOM     16  C   UNL     1      27.892 -23.225 -16.233  0.00  0.00    +0.111 C 
ATOM     17  H   UNL     1      29.201 -22.327 -17.615  0.00  0.00    +0.150 HD
ENDBRANCH   4  12
BRANCH   1  18
ATOM     18  C   UNL     1      36.078 -21.255 -19.012  0.00  0.00    +0.058 C 
ATOM     19  C   UNL     1      36.874 -20.358 -19.724  0.00  0.00    +0.018 C 
ATOM     20  C   UNL     1      34.737 -21.425 -19.358  0.00  0.00    +0.018 C 
ATOM     21  C   UNL     1      36.330 -19.630 -20.782  0.00  0.00    +0.038 C 
ATOM     22  C   UNL     1      34.193 -20.698 -20.417  0.00  0.00    +0.038 C 
ATOM     23  C   UNL     1      34.989 -19.802 -21.129  0.00  0.00    +0.134 C 
BRANCH  23  24
ATOM     24  O   UNL     1      34.459 -19.093 -22.163  0.00  0.00    -0.506 OA
ATOM     25  H   UNL     1      33.530 -18.983 -22.229  0.00  0.00    +0.292 HD
ENDBRANCH  23  24
ENDBRANCH   1  18
TORSDOF 3
ENDMDL
MODEL 8
REMARK VINA RESULT:      -9.1     11.155     14.145
REMARK  Name = 447960
REMARK  3 active torsions:
REMARK  status: ('A' for Active; 'I' for Inactive)
REMARK    1  A    between atoms: N_1  and  C_18
REMARK    2  A    between atoms: C_4  and  C_12
REMARK    3  A    between atoms: C_23  and  O_24
REMARK                            x       y       z     vdW  Elec       q    Type
REMARK                         _______ _______ _______ _____ _____    ______ ____
ROOT
ATOM      1  N   UNL     1      32.281  -7.971 -21.213  0.00  0.00    -0.247 N 
ATOM      2  N   UNL     1      32.346 -10.284 -21.598  0.00  0.00    -0.341 NA
ATOM      3  N   UNL     1      31.478  -9.397 -19.533  0.00  0.00    -0.170 NA
ATOM      4  C   UNL     1      32.087 -11.523 -21.132  0.00  0.00    +0.140 C 
ATOM      5  C   UNL     1      32.022  -9.279 -20.760  0.00  0.00    +0.148 C 
ATOM      6  C   UNL     1      31.532 -11.777 -19.894  0.00  0.00    +0.051 C 
ATOM      7  C   UNL     1      31.244 -10.664 -19.130  0.00  0.00    +0.114 C 
ATOM      8  H   UNL     1      32.028  -7.271 -20.567  0.00  0.00    +0.165 HD
ENDROOT
BRANCH   4  12
ATOM      9  S   UNL     1      32.635 -12.264 -23.705  0.00  0.00    -0.054 S 
ATOM     10  N   UNL     1      32.981 -14.696 -22.903  0.00  0.00    -0.388 NA
ATOM     11  N   UNL     1      33.278 -14.351 -25.222  0.00  0.00    -0.302 N 
ATOM     12  C   UNL     1      32.434 -12.591 -22.031  0.00  0.00    +0.156 C 
ATOM     13  C   UNL     1      32.659 -13.933 -21.797  0.00  0.00    +0.106 C 
ATOM     14  C   UNL     1      32.997 -13.920 -23.964  0.00  0.00    +0.207 C 
ATOM     15  C   UNL     1      32.585 -14.613 -20.486  0.00  0.00    +0.063 C 
ATOM     16  C   UNL     1      33.601 -15.730 -25.573  0.00  0.00    +0.111 C 
ATOM     17  H   UNL     1      33.262 -13.686 -25.947  0.00  0.00    +0.150 HD
ENDBRANCH   4  12
BRANCH   1  18
ATOM     18  C   UNL     1      32.829  -7.465 -22.410  0.00  0.00    +0.058 C 
ATOM     19  C   UNL     1      32.038  -6.706 -23.273  0.00  0.00    +0.018 C 
ATOM     20  C   UNL     1      34.161  -7.724 -22.731  0.00  0.00    +0.018 C 
ATOM     21  C   UNL     1      32.580  -6.207 -24.458  0.00  0.00    +0.038 C 
ATOM     22  C   UNL     1      34.703  -7.225 -23.916  0.00  0.00    +0.038 C 
ATOM     23  C   UNL     1      33.913  -6.466 -24.778  0.00  0.00    +0.134 C 
BRANCH  23  24
ATOM     24  O   UNL     1      34.442  -5.978 -25.933  0.00  0.00    -0.506 OA
ATOM     25  H   UNL     1      35.323  -5.659 -25.948  0.00  0.00    +0.292 HD
ENDBRANCH  23  24
ENDBRANCH   1  18
TORSDOF 3
ENDMDL
MODEL 9
REMARK VINA RESULT:      -9.1     11.174     14.163
REMARK  Name = 447960
REMARK  3 active torsions:
REMARK  status: ('A' for Active; 'I' for Inactive)
REMARK    1  A    between atoms: N_1  and  C_18
REMARK    2  A    between atoms: C_4  and  C_12
REMARK    3  A    between atoms: C_23  and  O_24
REMARK                            x       y       z     vdW  Elec       q    Type
REMARK                         _______ _______ _______ _____ _____    ______ ____
ROOT
ATOM      1  N   UNL     1      32.112  -8.122 -21.679  0.00  0.00    -0.247 N 
ATOM      2  N   UNL     1      32.455 -10.395 -22.149  0.00  0.00    -0.341 NA
ATOM      3  N   UNL     1      31.329  -9.704 -20.135  0.00  0.00    -0.170 NA
ATOM      4  C   UNL     1      32.292 -11.675 -21.757  0.00  0.00    +0.140 C 
ATOM      5  C   UNL     1      31.958  -9.470 -21.304  0.00  0.00    +0.148 C 
ATOM      6  C   UNL     1      31.666 -12.045 -20.584  0.00  0.00    +0.051 C 
ATOM      7  C   UNL     1      31.199 -11.006 -19.805  0.00  0.00    +0.114 C 
ATOM      8  H   UNL     1      31.733  -7.485 -21.031  0.00  0.00    +0.165 HD
ENDROOT
BRANCH   4  12
ATOM      9  S   UNL     1      32.695 -14.326 -22.287  0.00  0.00    -0.054 S 
ATOM     10  N   UNL     1      33.859 -13.680 -24.502  0.00  0.00    -0.388 NA
ATOM     11  N   UNL     1      33.731 -16.001 -24.074  0.00  0.00    -0.302 N 
ATOM     12  C   UNL     1      32.825 -12.657 -22.665  0.00  0.00    +0.156 C 
ATOM     13  C   UNL     1      33.470 -12.510 -23.876  0.00  0.00    +0.106 C 
ATOM     14  C   UNL     1      33.501 -14.700 -23.754  0.00  0.00    +0.207 C 
ATOM     15  C   UNL     1      33.777 -11.231 -24.553  0.00  0.00    +0.063 C 
ATOM     16  C   UNL     1      34.405 -16.449 -25.288  0.00  0.00    +0.111 C 
ATOM     17  H   UNL     1      33.423 -16.689 -23.441  0.00  0.00    +0.150 HD
ENDBRANCH   4  12
BRANCH   1  18
ATOM     18  C   UNL     1      32.700  -7.505 -22.803  0.00  0.00    +0.058 C 
ATOM     19  C   UNL     1      34.056  -7.695 -23.072  0.00  0.00    +0.018 C 
ATOM     20  C   UNL     1      31.928  -6.704 -23.644  0.00  0.00    +0.018 C 
ATOM     21  C   UNL     1      34.639  -7.083 -24.182  0.00  0.00    +0.038 C 
ATOM     22  C   UNL     1      32.511  -6.092 -24.754  0.00  0.00    +0.038 C 
ATOM     23  C   UNL     1      33.865  -6.283 -25.023  0.00  0.00    +0.134 C 
BRANCH  23  24
ATOM     24  O   UNL     1      34.433  -5.688 -26.107  0.00  0.00    -0.506 OA
ATOM     25  H   UNL     1      34.416  -4.755 -26.194  0.00  0.00    +0.292 HD
ENDBRANCH  23  24
ENDBRANCH   1  18
TORSDOF 3
ENDMDL
