MODEL 1
REMARK VINA RESULT:     -10.4      0.000      0.000
REMARK  Name = 3973
REMARK  2 active torsions:
REMARK  status: ('A' for Active; 'I' for Inactive)
REMARK    1  A    between atoms: C_3  and  N_13
REMARK    2  A    between atoms: C_7  and  C_18
REMARK                            x       y       z     vdW  Elec       q    Type
REMARK                         _______ _______ _______ _____ _____    ______ ____
ROOT
ATOM      1  O   UNL     1      33.462 -23.346 -15.867  0.00  0.00    -0.440 OA
ATOM      2  O   UNL     1      34.411 -24.644 -12.128  0.00  0.00    -0.286 OA
ATOM      3  C   UNL     1      32.491 -23.874 -15.023  0.00  0.00    +0.202 C 
ATOM      4  C   UNL     1      34.758 -23.266 -15.425  0.00  0.00    +0.150 C 
ATOM      5  C   UNL     1      35.153 -23.692 -14.159  0.00  0.00    +0.074 C 
ATOM      6  C   UNL     1      32.763 -24.314 -13.783  0.00  0.00    +0.096 C 
ATOM      7  C   UNL     1      35.699 -22.730 -16.305  0.00  0.00    +0.035 C 
ATOM      8  C   UNL     1      34.140 -24.253 -13.254  0.00  0.00    +0.203 C 
ATOM      9  C   UNL     1      36.489 -23.586 -13.762  0.00  0.00    +0.006 C 
ATOM     10  C   UNL     1      37.033 -22.623 -15.912  0.00  0.00    +0.003 C 
ATOM     11  C   UNL     1      37.427 -23.050 -14.644  0.00  0.00    +0.000 C 
ENDROOT
BRANCH   3  13
ATOM     12  O   UNL     1      28.479 -23.696 -16.022  0.00  0.00    -0.350 OA
ATOM     13  N   UNL     1      31.236 -23.912 -15.552  0.00  0.00    -0.274 N 
ATOM     14  C   UNL     1      30.719 -22.854 -16.421  0.00  0.00    +0.126 C 
ATOM     15  C   UNL     1      30.376 -25.092 -15.450  0.00  0.00    +0.126 C 
ATOM     16  C   UNL     1      29.289 -22.519 -16.011  0.00  0.00    +0.164 C 
ATOM     17  C   UNL     1      28.963 -24.658 -15.083  0.00  0.00    +0.164 C 
ENDBRANCH   3  13
BRANCH   7  18
ATOM     18  C   UNL     1      35.322 -22.278 -17.630  0.00  0.00    +0.003 C 
ATOM     19  C   UNL     1      36.236 -21.570 -18.407  0.00  0.00    +0.000 C 
ATOM     20  C   UNL     1      34.048 -22.553 -18.122  0.00  0.00    +0.000 C 
ATOM     21  C   UNL     1      35.874 -21.134 -19.682  0.00  0.00    +0.000 C 
ATOM     22  C   UNL     1      33.686 -22.119 -19.397  0.00  0.00    +0.000 C 
ATOM     23  C   UNL     1      34.599 -21.409 -20.176  0.00  0.00    +0.000 C 
ENDBRANCH   7  18
TORSDOF 2
ENDMDL
MODEL 2
REMARK VINA RESULT:     -10.3      2.063      5.207
REMARK  Name = 3973
REMARK  2 active torsions:
REMARK  status: ('A' for Active; 'I' for Inactive)
REMARK    1  A    between atoms: C_3  and  N_13
REMARK    2  A    between atoms: C_7  and  C_18
REMARK                            x       y       z     vdW  Elec       q    Type
REMARK                         _______ _______ _______ _____ _____    ______ ____
ROOT
ATOM      1  O   UNL     1      34.152 -22.885 -16.616  0.00  0.00    -0.440 OA
ATOM      2  O   UNL     1      37.996 -22.714 -15.289  0.00  0.00    -0.286 OA
ATOM      3  C   UNL     1      35.169 -22.393 -17.426  0.00  0.00    +0.202 C 
ATOM      4  C   UNL     1      34.457 -23.318 -15.350  0.00  0.00    +0.150 C 
ATOM      5  C   UNL     1      35.750 -23.287 -14.832  0.00  0.00    +0.074 C 
ATOM      6  C   UNL     1      36.449 -22.319 -17.026  0.00  0.00    +0.096 C 
ATOM      7  C   UNL     1      33.406 -23.804 -14.573  0.00  0.00    +0.035 C 
ATOM      8  C   UNL     1      36.837 -22.769 -15.675  0.00  0.00    +0.203 C 
ATOM      9  C   UNL     1      36.003 -23.741 -13.534  0.00  0.00    +0.006 C 
ATOM     10  C   UNL     1      33.655 -24.258 -13.277  0.00  0.00    +0.003 C 
ATOM     11  C   UNL     1      34.950 -24.227 -12.760  0.00  0.00    +0.000 C 
ENDROOT
BRANCH   3  13
ATOM     12  O   UNL     1      33.929 -20.522 -20.903  0.00  0.00    -0.350 OA
ATOM     13  N   UNL     1      34.767 -21.989 -18.664  0.00  0.00    -0.274 N 
ATOM     14  C   UNL     1      35.715 -21.672 -19.732  0.00  0.00    +0.126 C 
ATOM     15  C   UNL     1      33.365 -22.021 -19.082  0.00  0.00    +0.126 C 
ATOM     16  C   UNL     1      35.273 -20.394 -20.436  0.00  0.00    +0.164 C 
ATOM     17  C   UNL     1      33.027 -20.728 -19.814  0.00  0.00    +0.164 C 
ENDBRANCH   3  13
BRANCH   7  18
ATOM     18  C   UNL     1      32.049 -23.850 -15.081  0.00  0.00    +0.003 C 
ATOM     19  C   UNL     1      31.206 -24.898 -14.715  0.00  0.00    +0.000 C 
ATOM     20  C   UNL     1      31.592 -22.846 -15.932  0.00  0.00    +0.000 C 
ATOM     21  C   UNL     1      29.901 -24.942 -15.204  0.00  0.00    +0.000 C 
ATOM     22  C   UNL     1      30.286 -22.890 -16.419  0.00  0.00    +0.000 C 
ATOM     23  C   UNL     1      29.441 -23.939 -16.056  0.00  0.00    +0.000 C 
ENDBRANCH   7  18
TORSDOF 2
ENDMDL
MODEL 3
REMARK VINA RESULT:     -10.3      2.022      5.238
REMARK  Name = 3973
REMARK  2 active torsions:
REMARK  status: ('A' for Active; 'I' for Inactive)
REMARK    1  A    between atoms: C_3  and  N_13
REMARK    2  A    between atoms: C_7  and  C_18
REMARK                            x       y       z     vdW  Elec       q    Type
REMARK                         _______ _______ _______ _____ _____    ______ ____
ROOT
ATOM      1  O   UNL     1      35.088 -23.388 -15.452  0.00  0.00    -0.440 OA
ATOM      2  O   UNL     1      32.230 -24.866 -12.959  0.00  0.00    -0.286 OA
ATOM      3  C   UNL     1      35.424 -23.927 -14.215  0.00  0.00    +0.202 C 
ATOM      4  C   UNL     1      33.770 -23.357 -15.830  0.00  0.00    +0.150 C 
ATOM      5  C   UNL     1      32.741 -23.844 -15.028  0.00  0.00    +0.074 C 
ATOM      6  C   UNL     1      34.511 -24.424 -13.364  0.00  0.00    +0.096 C 
ATOM      7  C   UNL     1      33.479 -22.807 -17.079  0.00  0.00    +0.035 C 
ATOM      8  C   UNL     1      33.079 -24.417 -13.717  0.00  0.00    +0.203 C 
ATOM      9  C   UNL     1      31.414 -23.787 -15.464  0.00  0.00    +0.006 C 
ATOM     10  C   UNL     1      32.156 -22.748 -17.519  0.00  0.00    +0.003 C 
ATOM     11  C   UNL     1      31.127 -23.237 -16.713  0.00  0.00    +0.000 C 
ENDROOT
BRANCH   3  13
ATOM     12  O   UNL     1      39.367 -24.539 -13.116  0.00  0.00    -0.350 OA
ATOM     13  N   UNL     1      36.757 -23.914 -13.930  0.00  0.00    -0.274 N 
ATOM     14  C   UNL     1      37.775 -24.256 -14.924  0.00  0.00    +0.126 C 
ATOM     15  C   UNL     1      37.286 -23.376 -12.676  0.00  0.00    +0.126 C 
ATOM     16  C   UNL     1      38.822 -25.160 -14.282  0.00  0.00    +0.164 C 
ATOM     17  C   UNL     1      38.353 -24.318 -12.134  0.00  0.00    +0.164 C 
ENDBRANCH   3  13
BRANCH   7  18
ATOM     18  C   UNL     1      34.525 -22.291 -17.940  0.00  0.00    +0.003 C 
ATOM     19  C   UNL     1      34.237 -21.965 -19.263  0.00  0.00    +0.000 C 
ATOM     20  C   UNL     1      35.814 -22.122 -17.440  0.00  0.00    +0.000 C 
ATOM     21  C   UNL     1      35.243 -21.468 -20.091  0.00  0.00    +0.000 C 
ATOM     22  C   UNL     1      36.820 -21.624 -18.268  0.00  0.00    +0.000 C 
ATOM     23  C   UNL     1      36.534 -21.297 -19.594  0.00  0.00    +0.000 C 
ENDBRANCH   7  18
TORSDOF 2
ENDMDL
MODEL 4
REMARK VINA RESULT:     -10.3     12.061     14.609
REMARK  Name = 3973
REMARK  2 active torsions:
REMARK  status: ('A' for Active; 'I' for Inactive)
REMARK    1  A    between atoms: C_3  and  N_13
REMARK    2  A    between atoms: C_7  and  C_18
REMARK                            x       y       z     vdW  Elec       q    Type
REMARK                         _______ _______ _______ _____ _____    ______ ____
ROOT
ATOM      1  O   UNL     1      32.710 -11.416 -22.948  0.00  0.00    -0.440 OA
ATOM      2  O   UNL     1      32.140 -14.302 -20.135  0.00  0.00    -0.286 OA
ATOM      3  C   UNL     1      32.947 -12.755 -23.236  0.00  0.00    +0.202 C 
ATOM      4  C   UNL     1      32.277 -11.070 -21.692  0.00  0.00    +0.150 C 
ATOM      5  C   UNL     1      32.062 -12.005 -20.682  0.00  0.00    +0.074 C 
ATOM      6  C   UNL     1      32.772 -13.737 -22.336  0.00  0.00    +0.096 C 
ATOM      7  C   UNL     1      32.051  -9.715 -21.447  0.00  0.00    +0.035 C 
ATOM      8  C   UNL     1      32.309 -13.425 -20.970  0.00  0.00    +0.203 C 
ATOM      9  C   UNL     1      31.620 -11.596 -19.421  0.00  0.00    +0.006 C 
ATOM     10  C   UNL     1      31.610  -9.303 -20.189  0.00  0.00    +0.003 C 
ATOM     11  C   UNL     1      31.395 -10.241 -19.179  0.00  0.00    +0.000 C 
ENDROOT
BRANCH   3  13
ATOM     12  O   UNL     1      33.592 -13.303 -27.287  0.00  0.00    -0.350 OA
ATOM     13  N   UNL     1      33.373 -12.997 -24.507  0.00  0.00    -0.274 N 
ATOM     14  C   UNL     1      34.074 -11.990 -25.305  0.00  0.00    +0.126 C 
ATOM     15  C   UNL     1      33.336 -14.332 -25.106  0.00  0.00    +0.126 C 
ATOM     16  C   UNL     1      33.514 -11.992 -26.723  0.00  0.00    +0.164 C 
ATOM     17  C   UNL     1      32.809 -14.231 -26.533  0.00  0.00    +0.164 C 
ENDBRANCH   3  13
BRANCH   7  18
ATOM     18  C   UNL     1      32.265  -8.716 -22.475  0.00  0.00    +0.003 C 
ATOM     19  C   UNL     1      33.535  -8.174 -22.662  0.00  0.00    +0.000 C 
ATOM     20  C   UNL     1      31.201  -8.301 -23.273  0.00  0.00    +0.000 C 
ATOM     21  C   UNL     1      33.742  -7.213 -23.651  0.00  0.00    +0.000 C 
ATOM     22  C   UNL     1      31.408  -7.340 -24.262  0.00  0.00    +0.000 C 
ATOM     23  C   UNL     1      32.678  -6.796 -24.451  0.00  0.00    +0.000 C 
ENDBRANCH   7  18
TORSDOF 2
ENDMDL
MODEL 5
REMARK VINA RESULT:     -10.2     12.070     14.659
REMARK  Name = 3973
REMARK  2 active torsions:
REMARK  status: ('A' for Active; 'I' for Inactive)
REMARK    1  A    between atoms: C_3  and  N_13
REMARK    2  A    between atoms: C_7  and  C_18
REMARK                            x       y       z     vdW  Elec       q    Type
REMARK                         _______ _______ _______ _____ _____    ______ ____
ROOT
ATOM      1  O   UNL     1      32.733 -11.405 -22.950  0.00  0.00    -0.440 OA
ATOM      2  O   UNL     1      32.145 -14.345 -20.198  0.00  0.00    -0.286 OA
ATOM      3  C   UNL     1      32.991 -12.736 -23.256  0.00  0.00    +0.202 C 
ATOM      4  C   UNL     1      32.273 -11.086 -21.698  0.00  0.00    +0.150 C 
ATOM      5  C   UNL     1      32.050 -12.040 -20.708  0.00  0.00    +0.074 C 
ATOM      6  C   UNL     1      32.811 -13.736 -22.377  0.00  0.00    +0.096 C 
ATOM      7  C   UNL     1      32.027  -9.738 -21.434  0.00  0.00    +0.035 C 
ATOM      8  C   UNL     1      32.319 -13.452 -21.015  0.00  0.00    +0.203 C 
ATOM      9  C   UNL     1      31.581 -11.658 -19.448  0.00  0.00    +0.006 C 
ATOM     10  C   UNL     1      31.558  -9.352 -20.178  0.00  0.00    +0.003 C 
ATOM     11  C   UNL     1      31.336 -10.309 -19.188  0.00  0.00    +0.000 C 
ENDROOT
BRANCH   3  13
ATOM     12  O   UNL     1      33.717 -13.211 -27.303  0.00  0.00    -0.350 OA
ATOM     13  N   UNL     1      33.444 -12.952 -24.524  0.00  0.00    -0.274 N 
ATOM     14  C   UNL     1      34.142 -11.921 -25.294  0.00  0.00    +0.126 C 
ATOM     15  C   UNL     1      33.440 -14.278 -25.143  0.00  0.00    +0.126 C 
ATOM     16  C   UNL     1      33.607 -11.911 -26.721  0.00  0.00    +0.164 C 
ATOM     17  C   UNL     1      32.936 -14.163 -26.577  0.00  0.00    +0.164 C 
ENDBRANCH   3  13
BRANCH   7  18
ATOM     18  C   UNL     1      32.249  -8.719 -22.441  0.00  0.00    +0.003 C 
ATOM     19  C   UNL     1      31.194  -8.303 -23.250  0.00  0.00    +0.000 C 
ATOM     20  C   UNL     1      33.514  -8.158 -22.595  0.00  0.00    +0.000 C 
ATOM     21  C   UNL     1      31.406  -7.322 -24.219  0.00  0.00    +0.000 C 
ATOM     22  C   UNL     1      33.727  -7.177 -23.563  0.00  0.00    +0.000 C 
ATOM     23  C   UNL     1      32.673  -6.760 -24.376  0.00  0.00    +0.000 C 
ENDBRANCH   7  18
TORSDOF 2
ENDMDL
MODEL 6
REMARK VINA RESULT:     -10.2     12.149     15.190
REMARK  Name = 3973
REMARK  2 active torsions:
REMARK  status: ('A' for Active; 'I' for Inactive)
REMARK    1  A    between atoms: C_3  and  N_13
REMARK    2  A    between atoms: C_7  and  C_18
REMARK                            x       y       z     vdW  Elec       q    Type
REMARK                         _______ _______ _______ _____ _____    ______ ____
ROOT
ATOM      1  O   UNL     1      33.392 -11.181 -23.491  0.00  0.00    -0.440 OA
ATOM      2  O   UNL     1      35.725  -9.593 -26.424  0.00  0.00    -0.286 OA
ATOM      3  C   UNL     1      33.971 -11.989 -24.464  0.00  0.00    +0.202 C 
ATOM      4  C   UNL     1      33.616  -9.828 -23.528  0.00  0.00    +0.150 C 
ATOM      5  C   UNL     1      34.402  -9.218 -24.503  0.00  0.00    +0.074 C 
ATOM      6  C   UNL     1      34.746 -11.504 -25.449  0.00  0.00    +0.096 C 
ATOM      7  C   UNL     1      33.016  -9.056 -22.532  0.00  0.00    +0.035 C 
ATOM      8  C   UNL     1      35.021 -10.057 -25.539  0.00  0.00    +0.203 C 
ATOM      9  C   UNL     1      34.596  -7.834 -24.491  0.00  0.00    +0.006 C 
ATOM     10  C   UNL     1      33.207  -7.674 -22.518  0.00  0.00    +0.003 C 
ATOM     11  C   UNL     1      33.995  -7.065 -23.495  0.00  0.00    +0.000 C 
ENDROOT
BRANCH   3  13
ATOM     12  O   UNL     1      33.745 -16.121 -24.398  0.00  0.00    -0.350 OA
ATOM     13  N   UNL     1      33.690 -13.317 -24.343  0.00  0.00    -0.274 N 
ATOM     14  C   UNL     1      33.977 -14.071 -23.121  0.00  0.00    +0.126 C 
ATOM     15  C   UNL     1      32.912 -14.049 -25.343  0.00  0.00    +0.126 C 
ATOM     16  C   UNL     1      34.596 -15.414 -23.492  0.00  0.00    +0.164 C 
ATOM     17  C   UNL     1      33.578 -15.393 -25.616  0.00  0.00    +0.164 C 
ENDBRANCH   3  13
BRANCH   7  18
ATOM     18  C   UNL     1      32.192  -9.659 -21.504  0.00  0.00    +0.003 C 
ATOM     19  C   UNL     1      32.303  -9.227 -20.184  0.00  0.00    +0.000 C 
ATOM     20  C   UNL     1      31.290 -10.667 -21.838  0.00  0.00    +0.000 C 
ATOM     21  C   UNL     1      31.510  -9.806 -19.194  0.00  0.00    +0.000 C 
ATOM     22  C   UNL     1      30.497 -11.246 -20.848  0.00  0.00    +0.000 C 
ATOM     23  C   UNL     1      30.607 -10.816 -19.526  0.00  0.00    +0.000 C 
ENDBRANCH   7  18
TORSDOF 2
ENDMDL
MODEL 7
REMARK VINA RESULT:      -9.9      1.541      4.463
REMARK  Name = 3973
REMARK  2 active torsions:
REMARK  status: ('A' for Active; 'I' for Inactive)
REMARK    1  A    between atoms: C_3  and  N_13
REMARK    2  A    between atoms: C_7  and  C_18
REMARK                            x       y       z     vdW  Elec       q    Type
REMARK                         _______ _______ _______ _____ _____    ______ ____
ROOT
ATOM      1  O   UNL     1      33.792 -23.663 -15.738  0.00  0.00    -0.440 OA
ATOM      2  O   UNL     1      33.008 -21.853 -19.299  0.00  0.00    -0.286 OA
ATOM      3  C   UNL     1      32.504 -23.636 -16.261  0.00  0.00    +0.202 C 
ATOM      4  C   UNL     1      34.809 -23.067 -16.440  0.00  0.00    +0.150 C 
ATOM      5  C   UNL     1      34.613 -22.430 -17.663  0.00  0.00    +0.074 C 
ATOM      6  C   UNL     1      32.204 -23.049 -17.432  0.00  0.00    +0.096 C 
ATOM      7  C   UNL     1      36.085 -23.118 -15.878  0.00  0.00    +0.035 C 
ATOM      8  C   UNL     1      33.257 -22.392 -18.230  0.00  0.00    +0.203 C 
ATOM      9  C   UNL     1      35.687 -21.839 -18.334  0.00  0.00    +0.006 C 
ATOM     10  C   UNL     1      37.160 -22.529 -16.545  0.00  0.00    +0.003 C 
ATOM     11  C   UNL     1      36.961 -21.892 -17.770  0.00  0.00    +0.000 C 
ENDROOT
BRANCH   3  13
ATOM     12  O   UNL     1      29.450 -24.861 -13.752  0.00  0.00    -0.350 OA
ATOM     13  N   UNL     1      31.564 -24.253 -15.492  0.00  0.00    -0.274 N 
ATOM     14  C   UNL     1      30.271 -24.683 -16.027  0.00  0.00    +0.126 C 
ATOM     15  C   UNL     1      31.840 -24.706 -14.128  0.00  0.00    +0.126 C 
ATOM     16  C   UNL     1      29.169 -24.312 -15.041  0.00  0.00    +0.164 C 
ATOM     17  C   UNL     1      30.669 -24.334 -13.226  0.00  0.00    +0.164 C 
ENDBRANCH   3  13
BRANCH   7  18
ATOM     18  C   UNL     1      36.325 -23.772 -14.607  0.00  0.00    +0.003 C 
ATOM     19  C   UNL     1      36.718 -25.108 -14.578  0.00  0.00    +0.000 C 
ATOM     20  C   UNL     1      36.163 -23.063 -13.419  0.00  0.00    +0.000 C 
ATOM     21  C   UNL     1      36.949 -25.738 -13.355  0.00  0.00    +0.000 C 
ATOM     22  C   UNL     1      36.394 -23.693 -12.196  0.00  0.00    +0.000 C 
ATOM     23  C   UNL     1      36.787 -25.031 -12.165  0.00  0.00    +0.000 C 
ENDBRANCH   7  18
TORSDOF 2
ENDMDL
MODEL 8
REMARK VINA RESULT:      -9.9      2.275      6.268
REMARK  Name = 3973
REMARK  2 active torsions:
REMARK  status: ('A' for Active; 'I' for Inactive)
REMARK    1  A    between atoms: C_3  and  N_13
REMARK    2  A    between atoms: C_7  and  C_18
REMARK                            x       y       z     vdW  Elec       q    Type
REMARK                         _______ _______ _______ _____ _____    ______ ____
ROOT
ATOM      1  O   UNL     1      34.909 -23.446 -15.117  0.00  0.00    -0.440 OA
ATOM      2  O   UNL     1      37.531 -21.935 -17.840  0.00  0.00    -0.286 OA
ATOM      3  C   UNL     1      36.268 -23.364 -14.836  0.00  0.00    +0.202 C 
ATOM      4  C   UNL     1      34.453 -23.010 -16.336  0.00  0.00    +0.150 C 
ATOM      5  C   UNL     1      35.293 -22.483 -17.313  0.00  0.00    +0.074 C 
ATOM      6  C   UNL     1      37.165 -22.873 -15.706  0.00  0.00    +0.096 C 
ATOM      7  C   UNL     1      33.082 -23.111 -16.576  0.00  0.00    +0.035 C 
ATOM      8  C   UNL     1      36.733 -22.389 -17.032  0.00  0.00    +0.203 C 
ATOM      9  C   UNL     1      34.773 -22.053 -18.538  0.00  0.00    +0.006 C 
ATOM     10  C   UNL     1      32.559 -22.683 -17.796  0.00  0.00    +0.003 C 
ATOM     11  C   UNL     1      33.402 -22.156 -18.774  0.00  0.00    +0.000 C 
ENDROOT
BRANCH   3  13
ATOM     12  O   UNL     1      37.765 -24.191 -11.067  0.00  0.00    -0.350 OA
ATOM     13  N   UNL     1      36.623 -23.821 -13.602  0.00  0.00    -0.274 N 
ATOM     14  C   UNL     1      35.857 -23.501 -12.396  0.00  0.00    +0.126 C 
ATOM     15  C   UNL     1      37.677 -24.817 -13.408  0.00  0.00    +0.126 C 
ATOM     16  C   UNL     1      36.819 -23.140 -11.270  0.00  0.00    +0.164 C 
ATOM     17  C   UNL     1      38.558 -24.398 -12.237  0.00  0.00    +0.164 C 
ENDBRANCH   3  13
BRANCH   7  18
ATOM     18  C   UNL     1      32.179 -23.655 -15.581  0.00  0.00    +0.003 C 
ATOM     19  C   UNL     1      30.829 -23.310 -15.606  0.00  0.00    +0.000 C 
ATOM     20  C   UNL     1      32.663 -24.521 -14.603  0.00  0.00    +0.000 C 
ATOM     21  C   UNL     1      29.960 -23.833 -14.649  0.00  0.00    +0.000 C 
ATOM     22  C   UNL     1      31.794 -25.045 -13.647  0.00  0.00    +0.000 C 
ATOM     23  C   UNL     1      30.443 -24.700 -13.669  0.00  0.00    +0.000 C 
ENDBRANCH   7  18
TORSDOF 2
ENDMDL
MODEL 9
REMARK VINA RESULT:      -9.9     11.915     14.473
REMARK  Name = 3973
REMARK  2 active torsions:
REMARK  status: ('A' for Active; 'I' for Inactive)
REMARK    1  A    between atoms: C_3  and  N_13
REMARK    2  A    between atoms: C_7  and  C_18
REMARK                            x       y       z     vdW  Elec       q    Type
REMARK                         _______ _______ _______ _____ _____    ______ ____
ROOT
ATOM      1  O   UNL     1      32.376 -11.157 -22.978  0.00  0.00    -0.440 OA
ATOM      2  O   UNL     1      31.445 -11.438 -19.025  0.00  0.00    -0.286 OA
ATOM      3  C   UNL     1      32.008 -10.034 -22.246  0.00  0.00    +0.202 C 
ATOM      4  C   UNL     1      32.424 -12.376 -22.350  0.00  0.00    +0.150 C 
ATOM      5  C   UNL     1      32.118 -12.545 -21.002  0.00  0.00    +0.074 C 
ATOM      6  C   UNL     1      31.693 -10.084 -20.941  0.00  0.00    +0.096 C 
ATOM      7  C   UNL     1      32.799 -13.476 -23.123  0.00  0.00    +0.035 C 
ATOM      8  C   UNL     1      31.726 -11.368 -20.214  0.00  0.00    +0.203 C 
ATOM      9  C   UNL     1      32.183 -13.811 -20.414  0.00  0.00    +0.006 C 
ATOM     10  C   UNL     1      32.865 -14.742 -22.540  0.00  0.00    +0.003 C 
ATOM     11  C   UNL     1      32.558 -14.909 -21.189  0.00  0.00    +0.000 C 
ENDROOT
BRANCH   3  13
ATOM     12  O   UNL     1      32.078  -6.193 -23.786  0.00  0.00    -0.350 OA
ATOM     13  N   UNL     1      31.991  -8.871 -22.956  0.00  0.00    -0.274 N 
ATOM     14  C   UNL     1      33.177  -8.351 -23.639  0.00  0.00    +0.126 C 
ATOM     15  C   UNL     1      30.751  -8.151 -23.253  0.00  0.00    +0.126 C 
ATOM     16  C   UNL     1      33.284  -6.851 -23.389  0.00  0.00    +0.164 C 
ATOM     17  C   UNL     1      30.966  -6.660 -23.021  0.00  0.00    +0.164 C 
ENDBRANCH   3  13
BRANCH   7  18
ATOM     18  C   UNL     1      33.124 -13.336 -24.528  0.00  0.00    +0.003 C 
ATOM     19  C   UNL     1      32.813 -14.362 -25.418  0.00  0.00    +0.000 C 
ATOM     20  C   UNL     1      33.745 -12.176 -24.986  0.00  0.00    +0.000 C 
ATOM     21  C   UNL     1      33.125 -14.228 -26.770  0.00  0.00    +0.000 C 
ATOM     22  C   UNL     1      34.056 -12.041 -26.338  0.00  0.00    +0.000 C 
ATOM     23  C   UNL     1      33.747 -13.068 -27.231  0.00  0.00    +0.000 C 
ENDBRANCH   7  18
TORSDOF 2
ENDMDL
