MODEL 1
REMARK VINA RESULT:      -7.4      0.000      0.000
REMARK  Name = 4107
REMARK  8 active torsions:
REMARK  status: ('A' for Active; 'I' for Inactive)
REMARK    1  A    between atoms: C_1  and  O_2
REMARK    2  A    between atoms: C_1  and  C_4
REMARK    3  A    between atoms: C_1  and  C_14
REMARK    4  A    between atoms: C_4  and  O_5
REMARK    5  A    between atoms: O_5  and  C_6
REMARK    6  A    between atoms: C_7  and  O_12
REMARK    7  A    between atoms: C_14  and  O_15
REMARK    8  A    between atoms: O_15  and  C_18
REMARK                            x       y       z     vdW  Elec       q    Type
REMARK                         _______ _______ _______ _____ _____    ______ ____
ROOT
ATOM      1  C   UNL     1      37.450 -22.804 -15.552  0.00  0.00    +0.198 C 
ENDROOT
BRANCH   1   2
ATOM      2  O   UNL     1      38.666 -23.405 -16.006  0.00  0.00    -0.378 OA
ATOM      3  H   UNL     1      39.239 -22.724 -16.392  0.00  0.00    +0.211 HD
ENDBRANCH   1   2
BRANCH   1   4
ATOM      4  C   UNL     1      37.036 -21.754 -16.576  0.00  0.00    +0.238 C 
BRANCH   4   5
ATOM      5  O   UNL     1      36.764 -22.398 -17.815  0.00  0.00    -0.470 OA
BRANCH   5   6
ATOM      6  C   UNL     1      35.876 -21.832 -18.651  0.00  0.00    +0.172 C 
ATOM      7  C   UNL     1      34.529 -22.231 -18.660  0.00  0.00    +0.172 C 
ATOM      8  C   UNL     1      36.287 -20.823 -19.536  0.00  0.00    +0.040 C 
ATOM      9  C   UNL     1      33.618 -21.636 -19.533  0.00  0.00    +0.040 C 
ATOM     10  C   UNL     1      35.376 -20.228 -20.409  0.00  0.00    +0.003 C 
ATOM     11  C   UNL     1      34.042 -20.635 -20.407  0.00  0.00    +0.003 C 
BRANCH   7  12
ATOM     12  O   UNL     1      34.104 -23.208 -17.812  0.00  0.00    -0.468 OA
ATOM     13  C   UNL     1      32.815 -23.080 -17.248  0.00  0.00    +0.253 C 
ENDBRANCH   7  12
ENDBRANCH   5   6
ENDBRANCH   4   5
ENDBRANCH   1   4
BRANCH   1  14
ATOM     14  C   UNL     1      36.391 -23.890 -15.410  0.00  0.00    +0.243 C 
BRANCH  14  15
ATOM     15  O   UNL     1      36.799 -24.837 -14.428  0.00  0.00    -0.432 OA
BRANCH  15  18
ATOM     16  O   UNL     1      38.324 -26.428 -15.090  0.00  0.00    -0.227 OA
ATOM     17  N   UNL     1      36.063 -26.852 -15.123  0.00  0.00    -0.295 N 
ATOM     18  C   UNL     1      37.168 -26.068 -14.897  0.00  0.00    +0.399 C 
ATOM     19  H   UNL     1      35.163 -26.497 -14.945  0.00  0.00    +0.148 HD
ATOM     20  H   UNL     1      36.173 -27.769 -15.463  0.00  0.00    +0.148 HD
ENDBRANCH  15  18
ENDBRANCH  14  15
ENDBRANCH   1  14
TORSDOF 8
ENDMDL
MODEL 2
REMARK VINA RESULT:      -7.4      2.801      4.424
REMARK  Name = 4107
REMARK  8 active torsions:
REMARK  status: ('A' for Active; 'I' for Inactive)
REMARK    1  A    between atoms: C_1  and  O_2
REMARK    2  A    between atoms: C_1  and  C_4
REMARK    3  A    between atoms: C_1  and  C_14
REMARK    4  A    between atoms: C_4  and  O_5
REMARK    5  A    between atoms: O_5  and  C_6
REMARK    6  A    between atoms: C_7  and  O_12
REMARK    7  A    between atoms: C_14  and  O_15
REMARK    8  A    between atoms: O_15  and  C_18
REMARK                            x       y       z     vdW  Elec       q    Type
REMARK                         _______ _______ _______ _____ _____    ______ ____
ROOT
ATOM      1  C   UNL     1      37.718 -24.090 -11.792  0.00  0.00    +0.198 C 
ENDROOT
BRANCH   1   2
ATOM      2  O   UNL     1      38.651 -23.015 -11.663  0.00  0.00    -0.378 OA
ATOM      3  H   UNL     1      38.724 -22.760 -10.730  0.00  0.00    +0.211 HD
ENDBRANCH   1   2
BRANCH   1   4
ATOM      4  C   UNL     1      36.465 -23.546 -12.466  0.00  0.00    +0.238 C 
BRANCH   4   5
ATOM      5  O   UNL     1      36.116 -24.398 -13.551  0.00  0.00    -0.470 OA
BRANCH   5   6
ATOM      6  C   UNL     1      35.068 -24.058 -14.322  0.00  0.00    +0.172 C 
ATOM      7  C   UNL     1      35.253 -23.577 -15.629  0.00  0.00    +0.172 C 
ATOM      8  C   UNL     1      33.761 -24.180 -13.826  0.00  0.00    +0.040 C 
ATOM      9  C   UNL     1      34.157 -23.227 -16.419  0.00  0.00    +0.040 C 
ATOM     10  C   UNL     1      32.665 -23.830 -14.616  0.00  0.00    +0.003 C 
ATOM     11  C   UNL     1      32.864 -23.353 -15.912  0.00  0.00    +0.003 C 
BRANCH   7  12
ATOM     12  O   UNL     1      36.511 -23.448 -16.134  0.00  0.00    -0.468 OA
ATOM     13  C   UNL     1      37.082 -22.157 -16.168  0.00  0.00    +0.253 C 
ENDBRANCH   7  12
ENDBRANCH   5   6
ENDBRANCH   4   5
ENDBRANCH   1   4
BRANCH   1  14
ATOM     14  C   UNL     1      38.359 -25.198 -12.621  0.00  0.00    +0.243 C 
BRANCH  14  15
ATOM     15  O   UNL     1      39.474 -24.680 -13.339  0.00  0.00    -0.432 OA
BRANCH  15  18
ATOM     16  O   UNL     1      40.831 -25.568 -14.972  0.00  0.00    -0.227 OA
ATOM     17  N   UNL     1      38.553 -25.423 -15.258  0.00  0.00    -0.295 N 
ATOM     18  C   UNL     1      39.721 -25.251 -14.557  0.00  0.00    +0.399 C 
ATOM     19  H   UNL     1      37.696 -25.145 -14.863  0.00  0.00    +0.148 HD
ATOM     20  H   UNL     1      38.574 -25.825 -16.157  0.00  0.00    +0.148 HD
ENDBRANCH  15  18
ENDBRANCH  14  15
ENDBRANCH   1  14
TORSDOF 8
ENDMDL
MODEL 3
REMARK VINA RESULT:      -7.3      1.546      3.216
REMARK  Name = 4107
REMARK  8 active torsions:
REMARK  status: ('A' for Active; 'I' for Inactive)
REMARK    1  A    between atoms: C_1  and  O_2
REMARK    2  A    between atoms: C_1  and  C_4
REMARK    3  A    between atoms: C_1  and  C_14
REMARK    4  A    between atoms: C_4  and  O_5
REMARK    5  A    between atoms: O_5  and  C_6
REMARK    6  A    between atoms: C_7  and  O_12
REMARK    7  A    between atoms: C_14  and  O_15
REMARK    8  A    between atoms: O_15  and  C_18
REMARK                            x       y       z     vdW  Elec       q    Type
REMARK                         _______ _______ _______ _____ _____    ______ ____
ROOT
ATOM      1  C   UNL     1      37.315 -22.968 -15.233  0.00  0.00    +0.198 C 
ENDROOT
BRANCH   1   2
ATOM      2  O   UNL     1      38.485 -23.238 -16.010  0.00  0.00    -0.378 OA
ATOM      3  H   UNL     1      39.238 -22.751 -15.642  0.00  0.00    +0.211 HD
ENDBRANCH   1   2
BRANCH   1   4
ATOM      4  C   UNL     1      36.182 -22.628 -16.193  0.00  0.00    +0.238 C 
BRANCH   4   5
ATOM      5  O   UNL     1      35.271 -23.721 -16.237  0.00  0.00    -0.470 OA
BRANCH   5   6
ATOM      6  C   UNL     1      33.961 -23.471 -16.062  0.00  0.00    +0.172 C 
ATOM      7  C   UNL     1      33.095 -23.329 -17.159  0.00  0.00    +0.172 C 
ATOM      8  C   UNL     1      33.436 -23.345 -14.766  0.00  0.00    +0.040 C 
ATOM      9  C   UNL     1      31.739 -23.069 -16.964  0.00  0.00    +0.040 C 
ATOM     10  C   UNL     1      32.079 -23.085 -14.572  0.00  0.00    +0.003 C 
ATOM     11  C   UNL     1      31.231 -22.947 -15.671  0.00  0.00    +0.003 C 
BRANCH   7  12
ATOM     12  O   UNL     1      33.579 -23.445 -18.426  0.00  0.00    -0.468 OA
ATOM     13  C   UNL     1      33.816 -22.259 -19.156  0.00  0.00    +0.253 C 
ENDBRANCH   7  12
ENDBRANCH   5   6
ENDBRANCH   4   5
ENDBRANCH   1   4
BRANCH   1  14
ATOM     14  C   UNL     1      36.987 -24.200 -14.398  0.00  0.00    +0.243 C 
BRANCH  14  15
ATOM     15  O   UNL     1      37.946 -25.222 -14.648  0.00  0.00    -0.432 OA
BRANCH  15  18
ATOM     16  O   UNL     1      38.099 -27.517 -14.739  0.00  0.00    -0.227 OA
ATOM     17  N   UNL     1      36.109 -26.435 -15.134  0.00  0.00    -0.295 N 
ATOM     18  C   UNL     1      37.447 -26.483 -14.832  0.00  0.00    +0.399 C 
ATOM     19  H   UNL     1      35.648 -25.567 -15.192  0.00  0.00    +0.148 HD
ATOM     20  H   UNL     1      35.611 -27.269 -15.293  0.00  0.00    +0.148 HD
ENDBRANCH  15  18
ENDBRANCH  14  15
ENDBRANCH   1  14
TORSDOF 8
ENDMDL
MODEL 4
REMARK VINA RESULT:      -7.2      2.265      3.937
REMARK  Name = 4107
REMARK  8 active torsions:
REMARK  status: ('A' for Active; 'I' for Inactive)
REMARK    1  A    between atoms: C_1  and  O_2
REMARK    2  A    between atoms: C_1  and  C_4
REMARK    3  A    between atoms: C_1  and  C_14
REMARK    4  A    between atoms: C_4  and  O_5
REMARK    5  A    between atoms: O_5  and  C_6
REMARK    6  A    between atoms: C_7  and  O_12
REMARK    7  A    between atoms: C_14  and  O_15
REMARK    8  A    between atoms: O_15  and  C_18
REMARK                            x       y       z     vdW  Elec       q    Type
REMARK                         _______ _______ _______ _____ _____    ______ ____
ROOT
ATOM      1  C   UNL     1      36.803 -25.812 -15.054  0.00  0.00    +0.198 C 
ENDROOT
BRANCH   1   2
ATOM      2  O   UNL     1      35.832 -26.858 -14.973  0.00  0.00    -0.378 OA
ATOM      3  H   UNL     1      35.230 -26.800 -15.732  0.00  0.00    +0.211 HD
ENDBRANCH   1   2
BRANCH   1   4
ATOM      4  C   UNL     1      36.103 -24.496 -14.742  0.00  0.00    +0.238 C 
BRANCH   4   5
ATOM      5  O   UNL     1      35.540 -23.975 -15.941  0.00  0.00    -0.470 OA
BRANCH   5   6
ATOM      6  C   UNL     1      34.230 -23.676 -15.958  0.00  0.00    +0.172 C 
ATOM      7  C   UNL     1      33.593 -23.265 -17.140  0.00  0.00    +0.172 C 
ATOM      8  C   UNL     1      33.472 -23.769 -14.780  0.00  0.00    +0.040 C 
ATOM      9  C   UNL     1      32.232 -22.956 -17.144  0.00  0.00    +0.040 C 
ATOM     10  C   UNL     1      32.111 -23.460 -14.784  0.00  0.00    +0.003 C 
ATOM     11  C   UNL     1      31.492 -23.054 -15.966  0.00  0.00    +0.003 C 
BRANCH   7  12
ATOM     12  O   UNL     1      34.305 -23.165 -18.297  0.00  0.00    -0.468 OA
ATOM     13  C   UNL     1      33.848 -22.259 -19.280  0.00  0.00    +0.253 C 
ENDBRANCH   7  12
ENDBRANCH   5   6
ENDBRANCH   4   5
ENDBRANCH   1   4
BRANCH   1  14
ATOM     14  C   UNL     1      37.917 -26.100 -14.055  0.00  0.00    +0.243 C 
BRANCH  14  15
ATOM     15  O   UNL     1      38.993 -26.765 -14.709  0.00  0.00    -0.432 OA
BRANCH  15  18
ATOM     16  O   UNL     1      41.193 -26.496 -14.089  0.00  0.00    -0.227 OA
ATOM     17  N   UNL     1      40.143 -24.977 -15.461  0.00  0.00    -0.295 N 
ATOM     18  C   UNL     1      40.198 -26.117 -14.696  0.00  0.00    +0.399 C 
ATOM     19  H   UNL     1      39.309 -24.734 -15.922  0.00  0.00    +0.148 HD
ATOM     20  H   UNL     1      40.939 -24.404 -15.546  0.00  0.00    +0.148 HD
ENDBRANCH  15  18
ENDBRANCH  14  15
ENDBRANCH   1  14
TORSDOF 8
ENDMDL
MODEL 5
REMARK VINA RESULT:      -7.1      1.332      2.719
REMARK  Name = 4107
REMARK  8 active torsions:
REMARK  status: ('A' for Active; 'I' for Inactive)
REMARK    1  A    between atoms: C_1  and  O_2
REMARK    2  A    between atoms: C_1  and  C_4
REMARK    3  A    between atoms: C_1  and  C_14
REMARK    4  A    between atoms: C_4  and  O_5
REMARK    5  A    between atoms: O_5  and  C_6
REMARK    6  A    between atoms: C_7  and  O_12
REMARK    7  A    between atoms: C_14  and  O_15
REMARK    8  A    between atoms: O_15  and  C_18
REMARK                            x       y       z     vdW  Elec       q    Type
REMARK                         _______ _______ _______ _____ _____    ______ ____
ROOT
ATOM      1  C   UNL     1      34.438 -24.361 -15.175  0.00  0.00    +0.198 C 
ENDROOT
BRANCH   1   2
ATOM      2  O   UNL     1      33.523 -24.370 -14.076  0.00  0.00    -0.378 OA
ATOM      3  H   UNL     1      33.071 -25.227 -14.039  0.00  0.00    +0.211 HD
ENDBRANCH   1   2
BRANCH   1   4
ATOM      4  C   UNL     1      34.118 -23.151 -16.043  0.00  0.00    +0.238 C 
BRANCH   4   5
ATOM      5  O   UNL     1      34.279 -23.508 -17.411  0.00  0.00    -0.470 OA
BRANCH   5   6
ATOM      6  C   UNL     1      34.426 -22.525 -18.317  0.00  0.00    +0.172 C 
ATOM      7  C   UNL     1      35.679 -21.940 -18.558  0.00  0.00    +0.172 C 
ATOM      8  C   UNL     1      33.315 -22.064 -19.041  0.00  0.00    +0.040 C 
ATOM      9  C   UNL     1      35.818 -20.920 -19.501  0.00  0.00    +0.040 C 
ATOM     10  C   UNL     1      33.454 -21.044 -19.984  0.00  0.00    +0.003 C 
ATOM     11  C   UNL     1      34.705 -20.473 -20.212  0.00  0.00    +0.003 C 
BRANCH   7  12
ATOM     12  O   UNL     1      36.773 -22.367 -17.869  0.00  0.00    -0.468 OA
ATOM     13  C   UNL     1      37.264 -21.546 -16.830  0.00  0.00    +0.253 C 
ENDBRANCH   7  12
ENDBRANCH   5   6
ENDBRANCH   4   5
ENDBRANCH   1   4
BRANCH   1  14
ATOM     14  C   UNL     1      35.859 -24.293 -14.628  0.00  0.00    +0.243 C 
BRANCH  14  15
ATOM     15  O   UNL     1      36.731 -25.063 -15.449  0.00  0.00    -0.432 OA
BRANCH  15  18
ATOM     16  O   UNL     1      36.621 -27.257 -16.135  0.00  0.00    -0.227 OA
ATOM     17  N   UNL     1      36.793 -26.708 -13.908  0.00  0.00    -0.295 N 
ATOM     18  C   UNL     1      36.707 -26.416 -15.248  0.00  0.00    +0.399 C 
ATOM     19  H   UNL     1      36.860 -25.981 -13.249  0.00  0.00    +0.148 HD
ATOM     20  H   UNL     1      36.788 -27.646 -13.609  0.00  0.00    +0.148 HD
ENDBRANCH  15  18
ENDBRANCH  14  15
ENDBRANCH   1  14
TORSDOF 8
ENDMDL
MODEL 6
REMARK VINA RESULT:      -7.1      5.941      8.207
REMARK  Name = 4107
REMARK  8 active torsions:
REMARK  status: ('A' for Active; 'I' for Inactive)
REMARK    1  A    between atoms: C_1  and  O_2
REMARK    2  A    between atoms: C_1  and  C_4
REMARK    3  A    between atoms: C_1  and  C_14
REMARK    4  A    between atoms: C_4  and  O_5
REMARK    5  A    between atoms: O_5  and  C_6
REMARK    6  A    between atoms: C_7  and  O_12
REMARK    7  A    between atoms: C_14  and  O_15
REMARK    8  A    between atoms: O_15  and  C_18
REMARK                            x       y       z     vdW  Elec       q    Type
REMARK                         _______ _______ _______ _____ _____    ______ ____
ROOT
ATOM      1  C   UNL     1      35.860 -18.501 -21.428  0.00  0.00    +0.198 C 
ENDROOT
BRANCH   1   2
ATOM      2  O   UNL     1      36.561 -18.198 -22.637  0.00  0.00    -0.378 OA
ATOM      3  H   UNL     1      36.936 -17.305 -22.578  0.00  0.00    +0.211 HD
ENDBRANCH   1   2
BRANCH   1   4
ATOM      4  C   UNL     1      35.197 -17.221 -20.936  0.00  0.00    +0.238 C 
BRANCH   4   5
ATOM      5  O   UNL     1      33.956 -17.054 -21.613  0.00  0.00    -0.470 OA
BRANCH   5   6
ATOM      6  C   UNL     1      33.622 -15.825 -22.046  0.00  0.00    +0.172 C 
ATOM      7  C   UNL     1      34.156 -15.303 -23.236  0.00  0.00    +0.172 C 
ATOM      8  C   UNL     1      32.727 -15.037 -21.304  0.00  0.00    +0.040 C 
ATOM      9  C   UNL     1      33.802 -14.026 -23.673  0.00  0.00    +0.040 C 
ATOM     10  C   UNL     1      32.373 -13.761 -21.742  0.00  0.00    +0.003 C 
ATOM     11  C   UNL     1      32.911 -13.256 -22.926  0.00  0.00    +0.003 C 
BRANCH   7  12
ATOM     12  O   UNL     1      35.027 -16.045 -23.973  0.00  0.00    -0.468 OA
ATOM     13  C   UNL     1      34.533 -16.690 -25.129  0.00  0.00    +0.253 C 
ENDBRANCH   7  12
ENDBRANCH   5   6
ENDBRANCH   4   5
ENDBRANCH   1   4
BRANCH   1  14
ATOM     14  C   UNL     1      34.829 -19.585 -21.719  0.00  0.00    +0.243 C 
BRANCH  14  15
ATOM     15  O   UNL     1      34.617 -20.377 -20.554  0.00  0.00    -0.432 OA
BRANCH  15  18
ATOM     16  O   UNL     1      32.930 -21.758 -19.818  0.00  0.00    -0.227 OA
ATOM     17  N   UNL     1      32.493 -19.620 -20.544  0.00  0.00    -0.295 N 
ATOM     18  C   UNL     1      33.315 -20.684 -20.265  0.00  0.00    +0.399 C 
ATOM     19  H   UNL     1      32.872 -18.786 -20.902  0.00  0.00    +0.148 HD
ATOM     20  H   UNL     1      31.524 -19.693 -20.385  0.00  0.00    +0.148 HD
ENDBRANCH  15  18
ENDBRANCH  14  15
ENDBRANCH   1  14
TORSDOF 8
ENDMDL
MODEL 7
REMARK VINA RESULT:      -7.1      3.576      5.441
REMARK  Name = 4107
REMARK  8 active torsions:
REMARK  status: ('A' for Active; 'I' for Inactive)
REMARK    1  A    between atoms: C_1  and  O_2
REMARK    2  A    between atoms: C_1  and  C_4
REMARK    3  A    between atoms: C_1  and  C_14
REMARK    4  A    between atoms: C_4  and  O_5
REMARK    5  A    between atoms: O_5  and  C_6
REMARK    6  A    between atoms: C_7  and  O_12
REMARK    7  A    between atoms: C_14  and  O_15
REMARK    8  A    between atoms: O_15  and  C_18
REMARK                            x       y       z     vdW  Elec       q    Type
REMARK                         _______ _______ _______ _____ _____    ______ ____
ROOT
ATOM      1  C   UNL     1      34.442 -21.597 -19.679  0.00  0.00    +0.198 C 
ENDROOT
BRANCH   1   2
ATOM      2  O   UNL     1      33.558 -22.053 -18.651  0.00  0.00    -0.378 OA
ATOM      3  H   UNL     1      33.518 -23.023 -18.666  0.00  0.00    +0.211 HD
ENDBRANCH   1   2
BRANCH   1   4
ATOM      4  C   UNL     1      33.880 -20.296 -20.237  0.00  0.00    +0.238 C 
BRANCH   4   5
ATOM      5  O   UNL     1      34.956 -19.402 -20.497  0.00  0.00    -0.470 OA
BRANCH   5   6
ATOM      6  C   UNL     1      34.955 -18.717 -21.654  0.00  0.00    +0.172 C 
ATOM      7  C   UNL     1      35.070 -17.317 -21.670  0.00  0.00    +0.172 C 
ATOM      8  C   UNL     1      34.838 -19.399 -22.875  0.00  0.00    +0.040 C 
ATOM      9  C   UNL     1      35.067 -16.617 -22.877  0.00  0.00    +0.040 C 
ATOM     10  C   UNL     1      34.835 -18.699 -24.082  0.00  0.00    +0.003 C 
ATOM     11  C   UNL     1      34.950 -17.309 -24.082  0.00  0.00    +0.003 C 
BRANCH   7  12
ATOM     12  O   UNL     1      35.185 -16.631 -20.499  0.00  0.00    -0.468 OA
ATOM     13  C   UNL     1      34.565 -15.364 -20.411  0.00  0.00    +0.253 C 
ENDBRANCH   7  12
ENDBRANCH   5   6
ENDBRANCH   4   5
ENDBRANCH   1   4
BRANCH   1  14
ATOM     14  C   UNL     1      35.827 -21.393 -19.078  0.00  0.00    +0.243 C 
BRANCH  14  15
ATOM     15  O   UNL     1      36.023 -22.298 -17.996  0.00  0.00    -0.432 OA
BRANCH  15  18
ATOM     16  O   UNL     1      37.338 -22.620 -16.135  0.00  0.00    -0.227 OA
ATOM     17  N   UNL     1      37.284 -20.596 -17.225  0.00  0.00    -0.295 N 
ATOM     18  C   UNL     1      36.917 -21.906 -17.038  0.00  0.00    +0.399 C 
ATOM     19  H   UNL     1      36.906 -20.081 -17.974  0.00  0.00    +0.148 HD
ATOM     20  H   UNL     1      37.926 -20.172 -16.610  0.00  0.00    +0.148 HD
ENDBRANCH  15  18
ENDBRANCH  14  15
ENDBRANCH   1  14
TORSDOF 8
ENDMDL
MODEL 8
REMARK VINA RESULT:      -7.0      2.449      4.142
REMARK  Name = 4107
REMARK  8 active torsions:
REMARK  status: ('A' for Active; 'I' for Inactive)
REMARK    1  A    between atoms: C_1  and  O_2
REMARK    2  A    between atoms: C_1  and  C_4
REMARK    3  A    between atoms: C_1  and  C_14
REMARK    4  A    between atoms: C_4  and  O_5
REMARK    5  A    between atoms: O_5  and  C_6
REMARK    6  A    between atoms: C_7  and  O_12
REMARK    7  A    between atoms: C_14  and  O_15
REMARK    8  A    between atoms: O_15  and  C_18
REMARK                            x       y       z     vdW  Elec       q    Type
REMARK                         _______ _______ _______ _____ _____    ______ ____
ROOT
ATOM      1  C   UNL     1      37.308 -25.009 -14.811  0.00  0.00    +0.198 C 
ENDROOT
BRANCH   1   2
ATOM      2  O   UNL     1      38.076 -26.056 -15.409  0.00  0.00    -0.378 OA
ATOM      3  H   UNL     1      37.795 -26.178 -16.329  0.00  0.00    +0.211 HD
ENDBRANCH   1   2
BRANCH   1   4
ATOM      4  C   UNL     1      35.846 -25.231 -15.177  0.00  0.00    +0.238 C 
BRANCH   4   5
ATOM      5  O   UNL     1      35.385 -24.117 -15.935  0.00  0.00    -0.470 OA
BRANCH   5   6
ATOM      6  C   UNL     1      34.100 -23.745 -15.810  0.00  0.00    +0.172 C 
ATOM      7  C   UNL     1      33.316 -23.447 -16.937  0.00  0.00    +0.172 C 
ATOM      8  C   UNL     1      33.516 -23.646 -14.537  0.00  0.00    +0.040 C 
ATOM      9  C   UNL     1      31.983 -23.061 -16.795  0.00  0.00    +0.040 C 
ATOM     10  C   UNL     1      32.183 -23.260 -14.394  0.00  0.00    +0.003 C 
ATOM     11  C   UNL     1      31.417 -22.967 -15.523  0.00  0.00    +0.003 C 
BRANCH   7  12
ATOM     12  O   UNL     1      33.858 -23.534 -18.184  0.00  0.00    -0.468 OA
ATOM     13  C   UNL     1      34.262 -22.337 -18.816  0.00  0.00    +0.253 C 
ENDBRANCH   7  12
ENDBRANCH   5   6
ENDBRANCH   4   5
ENDBRANCH   1   4
BRANCH   1  14
ATOM     14  C   UNL     1      37.516 -25.051 -13.301  0.00  0.00    +0.243 C 
BRANCH  14  15
ATOM     15  O   UNL     1      36.263 -25.221 -12.645  0.00  0.00    -0.432 OA
BRANCH  15  18
ATOM     16  O   UNL     1      35.308 -24.944 -10.570  0.00  0.00    -0.227 OA
ATOM     17  N   UNL     1      37.105 -23.673 -11.238  0.00  0.00    -0.295 N 
ATOM     18  C   UNL     1      36.147 -24.642 -11.411  0.00  0.00    +0.399 C 
ATOM     19  H   UNL     1      37.749 -23.484 -11.958  0.00  0.00    +0.148 HD
ATOM     20  H   UNL     1      37.146 -23.169 -10.394  0.00  0.00    +0.148 HD
ENDBRANCH  15  18
ENDBRANCH  14  15
ENDBRANCH   1  14
TORSDOF 8
ENDMDL
MODEL 9
REMARK VINA RESULT:      -7.0      4.483      6.729
REMARK  Name = 4107
REMARK  8 active torsions:
REMARK  status: ('A' for Active; 'I' for Inactive)
REMARK    1  A    between atoms: C_1  and  O_2
REMARK    2  A    between atoms: C_1  and  C_4
REMARK    3  A    between atoms: C_1  and  C_14
REMARK    4  A    between atoms: C_4  and  O_5
REMARK    5  A    between atoms: O_5  and  C_6
REMARK    6  A    between atoms: C_7  and  O_12
REMARK    7  A    between atoms: C_14  and  O_15
REMARK    8  A    between atoms: O_15  and  C_18
REMARK                            x       y       z     vdW  Elec       q    Type
REMARK                         _______ _______ _______ _____ _____    ______ ____
ROOT
ATOM      1  C   UNL     1      33.720 -21.502 -19.211  0.00  0.00    +0.198 C 
ENDROOT
BRANCH   1   2
ATOM      2  O   UNL     1      32.712 -21.599 -20.221  0.00  0.00    -0.378 OA
ATOM      3  H   UNL     1      32.683 -20.774 -20.730  0.00  0.00    +0.211 HD
ENDBRANCH   1   2
BRANCH   1   4
ATOM      4  C   UNL     1      33.533 -22.668 -18.249  0.00  0.00    +0.238 C 
BRANCH   4   5
ATOM      5  O   UNL     1      32.151 -22.788 -17.930  0.00  0.00    -0.470 OA
BRANCH   5   6
ATOM      6  C   UNL     1      31.804 -22.983 -16.646  0.00  0.00    +0.172 C 
ATOM      7  C   UNL     1      30.476 -22.815 -16.219  0.00  0.00    +0.172 C 
ATOM      8  C   UNL     1      32.774 -23.359 -15.704  0.00  0.00    +0.040 C 
ATOM      9  C   UNL     1      30.129 -23.020 -14.883  0.00  0.00    +0.040 C 
ATOM     10  C   UNL     1      32.427 -23.563 -14.368  0.00  0.00    +0.003 C 
ATOM     11  C   UNL     1      31.104 -23.393 -13.959  0.00  0.00    +0.003 C 
BRANCH   7  12
ATOM     12  O   UNL     1      29.516 -22.450 -17.112  0.00  0.00    -0.468 OA
ATOM     13  C   UNL     1      28.192 -22.886 -16.876  0.00  0.00    +0.253 C 
ENDBRANCH   7  12
ENDBRANCH   5   6
ENDBRANCH   4   5
ENDBRANCH   1   4
BRANCH   1  14
ATOM     14  C   UNL     1      35.089 -21.545 -19.879  0.00  0.00    +0.243 C 
BRANCH  14  15
ATOM     15  O   UNL     1      35.653 -20.237 -19.909  0.00  0.00    -0.432 OA
BRANCH  15  18
ATOM     16  O   UNL     1      34.668 -19.830 -21.949  0.00  0.00    -0.227 OA
ATOM     17  N   UNL     1      35.651 -18.140 -20.737  0.00  0.00    -0.295 N 
ATOM     18  C   UNL     1      35.270 -19.441 -20.954  0.00  0.00    +0.399 C 
ATOM     19  H   UNL     1      36.132 -17.899 -19.913  0.00  0.00    +0.148 HD
ATOM     20  H   UNL     1      35.442 -17.449 -21.406  0.00  0.00    +0.148 HD
ENDBRANCH  15  18
ENDBRANCH  14  15
ENDBRANCH   1  14
TORSDOF 8
ENDMDL
