MODEL 1
REMARK VINA RESULT:      -5.7      0.000      0.000
REMARK  Name = 9584
REMARK  1 active torsions:
REMARK  status: ('A' for Active; 'I' for Inactive)
REMARK    1  A    between atoms: C_2  and  N_8
REMARK                            x       y       z     vdW  Elec       q    Type
REMARK                         _______ _______ _______ _____ _____    ______ ____
ROOT
ATOM      1  F   UNL     1      35.496 -22.333 -18.773  0.00  0.00    -0.203 F 
ATOM      2  C   UNL     1      33.536 -21.266 -19.587  0.00  0.00    +0.069 C 
ATOM      3  C   UNL     1      34.924 -21.398 -19.545  0.00  0.00    +0.153 C 
ATOM      4  C   UNL     1      32.953 -20.289 -20.393  0.00  0.00    +0.016 C 
ATOM      5  C   UNL     1      35.728 -20.552 -20.309  0.00  0.00    +0.031 C 
ATOM      6  C   UNL     1      33.756 -19.444 -21.158  0.00  0.00    +0.001 C 
ATOM      7  C   UNL     1      35.144 -19.575 -21.116  0.00  0.00    +0.002 C 
ENDROOT
BRANCH   2   8
ATOM      8  N   UNL     1      32.721 -22.120 -18.815  0.00  0.00    -0.355 N 
ATOM      9  H   UNL     1      32.549 -21.913 -17.868  0.00  0.00    +0.142 HD
ATOM     10  H   UNL     1      32.325 -22.923 -19.223  0.00  0.00    +0.142 HD
ENDBRANCH   2   8
TORSDOF 1
ENDMDL
MODEL 2
REMARK VINA RESULT:      -5.6      2.189      2.774
REMARK  Name = 9584
REMARK  1 active torsions:
REMARK  status: ('A' for Active; 'I' for Inactive)
REMARK    1  A    between atoms: C_2  and  N_8
REMARK                            x       y       z     vdW  Elec       q    Type
REMARK                         _______ _______ _______ _____ _____    ______ ____
ROOT
ATOM      1  F   UNL     1      36.992 -20.798 -20.186  0.00  0.00    -0.203 F 
ATOM      2  C   UNL     1      35.183 -19.499 -21.012  0.00  0.00    +0.069 C 
ATOM      3  C   UNL     1      35.673 -20.576 -20.274  0.00  0.00    +0.153 C 
ATOM      4  C   UNL     1      33.809 -19.278 -21.095  0.00  0.00    +0.016 C 
ATOM      5  C   UNL     1      34.787 -21.433 -19.619  0.00  0.00    +0.031 C 
ATOM      6  C   UNL     1      32.923 -20.134 -20.441  0.00  0.00    +0.001 C 
ATOM      7  C   UNL     1      33.412 -21.212 -19.703  0.00  0.00    +0.002 C 
ENDROOT
BRANCH   2   8
ATOM      8  N   UNL     1      36.076 -18.632 -21.674  0.00  0.00    -0.355 N 
ATOM      9  H   UNL     1      35.738 -17.989 -22.338  0.00  0.00    +0.142 HD
ATOM     10  H   UNL     1      37.039 -18.669 -21.472  0.00  0.00    +0.142 HD
ENDBRANCH   2   8
TORSDOF 1
ENDMDL
MODEL 3
REMARK VINA RESULT:      -5.6      1.684      2.393
REMARK  Name = 9584
REMARK  1 active torsions:
REMARK  status: ('A' for Active; 'I' for Inactive)
REMARK    1  A    between atoms: C_2  and  N_8
REMARK                            x       y       z     vdW  Elec       q    Type
REMARK                         _______ _______ _______ _____ _____    ______ ____
ROOT
ATOM      1  F   UNL     1      32.297 -19.970 -20.901  0.00  0.00    -0.203 F 
ATOM      2  C   UNL     1      33.846 -21.313 -19.702  0.00  0.00    +0.069 C 
ATOM      3  C   UNL     1      33.564 -20.258 -20.568  0.00  0.00    +0.153 C 
ATOM      4  C   UNL     1      35.168 -21.603 -19.363  0.00  0.00    +0.016 C 
ATOM      5  C   UNL     1      34.603 -19.491 -21.096  0.00  0.00    +0.031 C 
ATOM      6  C   UNL     1      36.207 -20.837 -19.890  0.00  0.00    +0.001 C 
ATOM      7  C   UNL     1      35.925 -19.781 -20.756  0.00  0.00    +0.002 C 
ENDROOT
BRANCH   2   8
ATOM      8  N   UNL     1      32.797 -22.089 -19.168  0.00  0.00    -0.355 N 
ATOM      9  H   UNL     1      32.310 -21.778 -18.371  0.00  0.00    +0.142 HD
ATOM     10  H   UNL     1      32.551 -22.943 -19.592  0.00  0.00    +0.142 HD
ENDBRANCH   2   8
TORSDOF 1
ENDMDL
MODEL 4
REMARK VINA RESULT:      -5.4      2.712      3.607
REMARK  Name = 9584
REMARK  1 active torsions:
REMARK  status: ('A' for Active; 'I' for Inactive)
REMARK    1  A    between atoms: C_2  and  N_8
REMARK                            x       y       z     vdW  Elec       q    Type
REMARK                         _______ _______ _______ _____ _____    ______ ____
ROOT
ATOM      1  F   UNL     1      33.859 -18.279 -21.694  0.00  0.00    -0.203 F 
ATOM      2  C   UNL     1      35.464 -19.726 -20.709  0.00  0.00    +0.069 C 
ATOM      3  C   UNL     1      34.141 -19.372 -20.971  0.00  0.00    +0.153 C 
ATOM      4  C   UNL     1      35.745 -20.865 -19.956  0.00  0.00    +0.016 C 
ATOM      5  C   UNL     1      33.098 -20.158 -20.478  0.00  0.00    +0.031 C 
ATOM      6  C   UNL     1      34.704 -21.651 -19.463  0.00  0.00    +0.001 C 
ATOM      7  C   UNL     1      33.380 -21.297 -19.725  0.00  0.00    +0.002 C 
ENDROOT
BRANCH   2   8
ATOM      8  N   UNL     1      36.519 -18.934 -21.206  0.00  0.00    -0.355 N 
ATOM      9  H   UNL     1      36.327 -18.067 -21.632  0.00  0.00    +0.142 HD
ATOM     10  H   UNL     1      37.449 -19.247 -21.127  0.00  0.00    +0.142 HD
ENDBRANCH   2   8
TORSDOF 1
ENDMDL
MODEL 5
REMARK VINA RESULT:      -5.3      1.558      2.039
REMARK  Name = 9584
REMARK  1 active torsions:
REMARK  status: ('A' for Active; 'I' for Inactive)
REMARK    1  A    between atoms: C_2  and  N_8
REMARK                            x       y       z     vdW  Elec       q    Type
REMARK                         _______ _______ _______ _____ _____    ______ ____
ROOT
ATOM      1  F   UNL     1      37.033 -20.179 -20.461  0.00  0.00    -0.203 F 
ATOM      2  C   UNL     1      35.022 -21.132 -19.634  0.00  0.00    +0.069 C 
ATOM      3  C   UNL     1      35.693 -20.227 -20.455  0.00  0.00    +0.153 C 
ATOM      4  C   UNL     1      33.628 -21.173 -19.636  0.00  0.00    +0.016 C 
ATOM      5  C   UNL     1      34.971 -19.363 -21.278  0.00  0.00    +0.031 C 
ATOM      6  C   UNL     1      32.905 -20.310 -20.459  0.00  0.00    +0.001 C 
ATOM      7  C   UNL     1      33.577 -19.404 -21.280  0.00  0.00    +0.002 C 
ENDROOT
BRANCH   2   8
ATOM      8  N   UNL     1      35.749 -22.007 -18.801  0.00  0.00    -0.355 N 
ATOM      9  H   UNL     1      36.637 -22.329 -19.081  0.00  0.00    +0.142 HD
ATOM     10  H   UNL     1      35.371 -22.295 -17.940  0.00  0.00    +0.142 HD
ENDBRANCH   2   8
TORSDOF 1
ENDMDL
MODEL 6
REMARK VINA RESULT:      -5.3      1.582      2.298
REMARK  Name = 9584
REMARK  1 active torsions:
REMARK  status: ('A' for Active; 'I' for Inactive)
REMARK    1  A    between atoms: C_2  and  N_8
REMARK                            x       y       z     vdW  Elec       q    Type
REMARK                         _______ _______ _______ _____ _____    ______ ____
ROOT
ATOM      1  F   UNL     1      34.475 -22.469 -18.616  0.00  0.00    -0.203 F 
ATOM      2  C   UNL     1      35.420 -20.886 -20.113  0.00  0.00    +0.069 C 
ATOM      3  C   UNL     1      34.316 -21.454 -19.477  0.00  0.00    +0.153 C 
ATOM      4  C   UNL     1      35.242 -19.831 -21.007  0.00  0.00    +0.016 C 
ATOM      5  C   UNL     1      33.035 -20.967 -19.736  0.00  0.00    +0.031 C 
ATOM      6  C   UNL     1      33.962 -19.343 -21.266  0.00  0.00    +0.001 C 
ATOM      7  C   UNL     1      32.858 -19.911 -20.631  0.00  0.00    +0.002 C 
ENDROOT
BRANCH   2   8
ATOM      8  N   UNL     1      36.716 -21.377 -19.852  0.00  0.00    -0.355 N 
ATOM      9  H   UNL     1      37.280 -21.695 -20.594  0.00  0.00    +0.142 HD
ATOM     10  H   UNL     1      37.057 -21.401 -18.929  0.00  0.00    +0.142 HD
ENDBRANCH   2   8
TORSDOF 1
ENDMDL
MODEL 7
REMARK VINA RESULT:      -5.2      4.518      5.324
REMARK  Name = 9584
REMARK  1 active torsions:
REMARK  status: ('A' for Active; 'I' for Inactive)
REMARK    1  A    between atoms: C_2  and  N_8
REMARK                            x       y       z     vdW  Elec       q    Type
REMARK                         _______ _______ _______ _____ _____    ______ ____
ROOT
ATOM      1  F   UNL     1      34.970 -15.310 -22.543  0.00  0.00    -0.203 F 
ATOM      2  C   UNL     1      35.066 -17.664 -22.245  0.00  0.00    +0.069 C 
ATOM      3  C   UNL     1      34.906 -16.545 -23.062  0.00  0.00    +0.153 C 
ATOM      4  C   UNL     1      34.998 -18.943 -22.796  0.00  0.00    +0.016 C 
ATOM      5  C   UNL     1      34.678 -16.705 -24.429  0.00  0.00    +0.031 C 
ATOM      6  C   UNL     1      34.770 -19.104 -24.162  0.00  0.00    +0.001 C 
ATOM      7  C   UNL     1      34.610 -17.985 -24.979  0.00  0.00    +0.002 C 
ENDROOT
BRANCH   2   8
ATOM      8  N   UNL     1      35.297 -17.504 -20.864  0.00  0.00    -0.355 N 
ATOM      9  H   UNL     1      35.729 -18.224 -20.350  0.00  0.00    +0.142 HD
ATOM     10  H   UNL     1      35.025 -16.673 -20.412  0.00  0.00    +0.142 HD
ENDBRANCH   2   8
TORSDOF 1
ENDMDL
MODEL 8
REMARK VINA RESULT:      -5.2      3.876      4.657
REMARK  Name = 9584
REMARK  1 active torsions:
REMARK  status: ('A' for Active; 'I' for Inactive)
REMARK    1  A    between atoms: C_2  and  N_8
REMARK                            x       y       z     vdW  Elec       q    Type
REMARK                         _______ _______ _______ _____ _____    ______ ____
ROOT
ATOM      1  F   UNL     1      34.946 -19.979 -22.154  0.00  0.00    -0.203 F 
ATOM      2  C   UNL     1      35.086 -17.610 -22.242  0.00  0.00    +0.069 C 
ATOM      3  C   UNL     1      34.900 -18.843 -22.865  0.00  0.00    +0.153 C 
ATOM      4  C   UNL     1      35.036 -16.435 -22.992  0.00  0.00    +0.016 C 
ATOM      5  C   UNL     1      34.665 -18.902 -24.239  0.00  0.00    +0.031 C 
ATOM      6  C   UNL     1      34.801 -16.493 -24.366  0.00  0.00    +0.001 C 
ATOM      7  C   UNL     1      34.615 -17.727 -24.989  0.00  0.00    +0.002 C 
ENDROOT
BRANCH   2   8
ATOM      8  N   UNL     1      35.324 -17.548 -20.854  0.00  0.00    -0.355 N 
ATOM      9  H   UNL     1      35.092 -16.734 -20.350  0.00  0.00    +0.142 HD
ATOM     10  H   UNL     1      35.722 -18.318 -20.388  0.00  0.00    +0.142 HD
ENDBRANCH   2   8
TORSDOF 1
ENDMDL
MODEL 9
REMARK VINA RESULT:      -5.2     11.206     11.917
REMARK  Name = 9584
REMARK  1 active torsions:
REMARK  status: ('A' for Active; 'I' for Inactive)
REMARK    1  A    between atoms: C_2  and  N_8
REMARK                            x       y       z     vdW  Elec       q    Type
REMARK                         _______ _______ _______ _____ _____    ______ ____
ROOT
ATOM      1  F   UNL     1      32.484  -8.350 -22.511  0.00  0.00    -0.203 F 
ATOM      2  C   UNL     1      32.269  -8.997 -20.236  0.00  0.00    +0.069 C 
ATOM      3  C   UNL     1      32.059  -9.232 -21.595  0.00  0.00    +0.153 C 
ATOM      4  C   UNL     1      31.823  -9.922 -19.292  0.00  0.00    +0.016 C 
ATOM      5  C   UNL     1      31.404 -10.392 -22.010  0.00  0.00    +0.031 C 
ATOM      6  C   UNL     1      31.168 -11.082 -19.706  0.00  0.00    +0.001 C 
ATOM      7  C   UNL     1      30.958 -11.316 -21.065  0.00  0.00    +0.002 C 
ENDROOT
BRANCH   2   8
ATOM      8  N   UNL     1      32.931  -7.826 -19.815  0.00  0.00    -0.355 N 
ATOM      9  H   UNL     1      32.735  -6.965 -20.251  0.00  0.00    +0.142 HD
ATOM     10  H   UNL     1      33.589  -7.869 -19.084  0.00  0.00    +0.142 HD
ENDBRANCH   2   8
TORSDOF 1
ENDMDL
