MODEL 1
REMARK VINA RESULT:      -7.4      0.000      0.000
REMARK  Name = 13109
REMARK  3 active torsions:
REMARK  status: ('A' for Active; 'I' for Inactive)
REMARK    1  A    between atoms: C_2  and  C_21
REMARK    2  A    between atoms: C_6  and  O_19
REMARK    3  A    between atoms: C_6  and  C_23
REMARK                            x       y       z     vdW  Elec       q    Type
REMARK                         _______ _______ _______ _____ _____    ______ ____
ROOT
ATOM      1  O   UNL     1      27.455 -23.467 -15.881  0.00  0.00    -0.291 OA
ATOM      2  C   UNL     1      35.869 -23.744 -15.120  0.00  0.00    +0.033 C 
ATOM      3  C   UNL     1      34.864 -24.179 -14.030  0.00  0.00    +0.003 C 
ATOM      4  C   UNL     1      33.556 -23.385 -14.076  0.00  0.00    +0.001 C 
ATOM      5  C   UNL     1      32.886 -23.592 -15.466  0.00  0.00    +0.004 C 
ATOM      6  C   UNL     1      37.098 -24.624 -14.739  0.00  0.00    +0.142 C 
ATOM      7  C   UNL     1      35.223 -24.000 -16.493  0.00  0.00    +0.003 C 
ATOM      8  C   UNL     1      35.694 -24.148 -12.748  0.00  0.00    +0.004 C 
ATOM      9  C   UNL     1      33.863 -23.290 -16.631  0.00  0.00    +0.000 C 
ATOM     10  C   UNL     1      31.559 -22.780 -15.576  0.00  0.00    +0.019 C 
ATOM     11  C   UNL     1      37.118 -24.543 -13.191  0.00  0.00    +0.039 C 
ATOM     12  C   UNL     1      32.589 -23.810 -12.964  0.00  0.00    +0.004 C 
ATOM     13  C   UNL     1      31.305 -22.990 -13.023  0.00  0.00    +0.022 C 
ATOM     14  C   UNL     1      30.652 -23.045 -14.382  0.00  0.00    -0.042 C 
ATOM     15  C   UNL     1      30.850 -23.084 -16.912  0.00  0.00    +0.012 C 
ATOM     16  C   UNL     1      29.416 -22.584 -16.940  0.00  0.00    +0.069 C 
ATOM     17  C   UNL     1      29.333 -23.275 -14.480  0.00  0.00    +0.029 C 
ATOM     18  C   UNL     1      28.642 -23.166 -15.786  0.00  0.00    +0.173 C 
ENDROOT
BRANCH   6  19
ATOM     19  O   UNL     1      38.316 -24.108 -15.256  0.00  0.00    -0.375 OA
ATOM     20  H   UNL     1      39.064 -24.523 -14.799  0.00  0.00    +0.211 HD
ENDBRANCH   6  19
BRANCH   2  21
ATOM     21  C   UNL     1      36.267 -22.240 -15.039  0.00  0.00    +0.003 C 
ATOM     22  C   UNL     1      36.856 -21.783 -16.346  0.00  0.00    +0.000 C 
ENDBRANCH   2  21
BRANCH   6  23
ATOM     23  C   UNL     1      36.976 -26.034 -15.163  0.00  0.00    -0.053 C 
ATOM     24  C   UNL     1      36.876 -27.180 -15.507  0.00  0.00    -0.012 C 
ENDBRANCH   6  23
TORSDOF 3
ENDMDL
MODEL 2
REMARK VINA RESULT:      -7.3      1.290      3.140
REMARK  Name = 13109
REMARK  3 active torsions:
REMARK  status: ('A' for Active; 'I' for Inactive)
REMARK    1  A    between atoms: C_2  and  C_21
REMARK    2  A    between atoms: C_6  and  O_19
REMARK    3  A    between atoms: C_6  and  C_23
REMARK                            x       y       z     vdW  Elec       q    Type
REMARK                         _______ _______ _______ _____ _____    ______ ____
ROOT
ATOM      1  O   UNL     1      28.234 -22.235 -15.776  0.00  0.00    -0.291 OA
ATOM      2  C   UNL     1      36.173 -24.706 -14.257  0.00  0.00    +0.033 C 
ATOM      3  C   UNL     1      35.771 -23.515 -15.155  0.00  0.00    +0.003 C 
ATOM      4  C   UNL     1      34.420 -23.721 -15.846  0.00  0.00    +0.001 C 
ATOM      5  C   UNL     1      33.318 -23.907 -14.762  0.00  0.00    +0.004 C 
ATOM      6  C   UNL     1      37.598 -24.256 -13.811  0.00  0.00    +0.142 C 
ATOM      7  C   UNL     1      35.108 -24.854 -13.155  0.00  0.00    +0.003 C 
ATOM      8  C   UNL     1      37.008 -23.287 -16.020  0.00  0.00    +0.004 C 
ATOM      9  C   UNL     1      33.692 -25.011 -13.740  0.00  0.00    +0.000 C 
ATOM     10  C   UNL     1      31.923 -24.149 -15.415  0.00  0.00    +0.019 C 
ATOM     11  C   UNL     1      38.198 -23.663 -15.113  0.00  0.00    +0.039 C 
ATOM     12  C   UNL     1      34.058 -22.542 -16.758  0.00  0.00    +0.004 C 
ATOM     13  C   UNL     1      32.720 -22.783 -17.447  0.00  0.00    +0.022 C 
ATOM     14  C   UNL     1      31.616 -23.089 -16.465  0.00  0.00    -0.042 C 
ATOM     15  C   UNL     1      30.826 -24.218 -14.333  0.00  0.00    +0.012 C 
ATOM     16  C   UNL     1      29.425 -24.127 -14.914  0.00  0.00    +0.069 C 
ATOM     17  C   UNL     1      30.432 -22.466 -16.576  0.00  0.00    +0.029 C 
ATOM     18  C   UNL     1      29.284 -22.870 -15.732  0.00  0.00    +0.173 C 
ENDROOT
BRANCH   6  19
ATOM     19  O   UNL     1      38.398 -25.345 -13.374  0.00  0.00    -0.375 OA
ATOM     20  H   UNL     1      38.265 -25.483 -12.423  0.00  0.00    +0.211 HD
ENDBRANCH   6  19
BRANCH   2  21
ATOM     21  C   UNL     1      36.276 -26.059 -15.023  0.00  0.00    +0.003 C 
ATOM     22  C   UNL     1      36.773 -27.143 -14.105  0.00  0.00    +0.000 C 
ENDBRANCH   2  21
BRANCH   6  23
ATOM     23  C   UNL     1      37.593 -23.229 -12.751  0.00  0.00    -0.053 C 
ATOM     24  C   UNL     1      37.590 -22.394 -11.888  0.00  0.00    -0.012 C 
ENDBRANCH   6  23
TORSDOF 3
ENDMDL
MODEL 3
REMARK VINA RESULT:      -6.3      1.520      6.855
REMARK  Name = 13109
REMARK  3 active torsions:
REMARK  status: ('A' for Active; 'I' for Inactive)
REMARK    1  A    between atoms: C_2  and  C_21
REMARK    2  A    between atoms: C_6  and  O_19
REMARK    3  A    between atoms: C_6  and  C_23
REMARK                            x       y       z     vdW  Elec       q    Type
REMARK                         _______ _______ _______ _____ _____    ______ ____
ROOT
ATOM      1  O   UNL     1      39.738 -26.085 -13.983  0.00  0.00    -0.291 OA
ATOM      2  C   UNL     1      31.677 -23.615 -14.601  0.00  0.00    +0.033 C 
ATOM      3  C   UNL     1      32.701 -23.603 -15.759  0.00  0.00    +0.003 C 
ATOM      4  C   UNL     1      34.136 -23.362 -15.281  0.00  0.00    +0.001 C 
ATOM      5  C   UNL     1      34.537 -24.493 -14.289  0.00  0.00    +0.004 C 
ATOM      6  C   UNL     1      30.347 -23.754 -15.402  0.00  0.00    +0.142 C 
ATOM      7  C   UNL     1      32.047 -24.767 -13.650  0.00  0.00    +0.003 C 
ATOM      8  C   UNL     1      32.091 -22.628 -16.764  0.00  0.00    +0.004 C 
ATOM      9  C   UNL     1      33.499 -24.657 -13.149  0.00  0.00    +0.000 C 
ATOM     10  C   UNL     1      35.985 -24.278 -13.750  0.00  0.00    +0.019 C 
ATOM     11  C   UNL     1      30.566 -22.806 -16.609  0.00  0.00    +0.039 C 
ATOM     12  C   UNL     1      35.128 -23.320 -16.450  0.00  0.00    +0.004 C 
ATOM     13  C   UNL     1      36.544 -23.059 -15.948  0.00  0.00    +0.022 C 
ATOM     14  C   UNL     1      36.968 -24.049 -14.890  0.00  0.00    -0.042 C 
ATOM     15  C   UNL     1      36.409 -25.464 -12.859  0.00  0.00    +0.012 C 
ATOM     16  C   UNL     1      37.900 -25.475 -12.571  0.00  0.00    +0.069 C 
ATOM     17  C   UNL     1      38.171 -24.637 -14.971  0.00  0.00    +0.029 C 
ATOM     18  C   UNL     1      38.677 -25.479 -13.862  0.00  0.00    +0.173 C 
ENDROOT
BRANCH   6  19
ATOM     19  O   UNL     1      29.218 -23.320 -14.657  0.00  0.00    -0.375 OA
ATOM     20  H   UNL     1      29.336 -23.554 -13.724  0.00  0.00    +0.211 HD
ENDBRANCH   6  19
BRANCH   2  21
ATOM     21  C   UNL     1      31.649 -22.292 -13.780  0.00  0.00    +0.003 C 
ATOM     22  C   UNL     1      31.174 -22.558 -12.376  0.00  0.00    +0.000 C 
ENDBRANCH   2  21
BRANCH   6  23
ATOM     23  C   UNL     1      30.084 -25.124 -15.886  0.00  0.00    -0.053 C 
ATOM     24  C   UNL     1      29.870 -26.239 -16.278  0.00  0.00    -0.012 C 
ENDBRANCH   6  23
TORSDOF 3
ENDMDL
MODEL 4
REMARK VINA RESULT:      -6.0      9.917     11.778
REMARK  Name = 13109
REMARK  3 active torsions:
REMARK  status: ('A' for Active; 'I' for Inactive)
REMARK    1  A    between atoms: C_2  and  C_21
REMARK    2  A    between atoms: C_6  and  O_19
REMARK    3  A    between atoms: C_6  and  C_23
REMARK                            x       y       z     vdW  Elec       q    Type
REMARK                         _______ _______ _______ _____ _____    ______ ____
ROOT
ATOM      1  O   UNL     1      33.225 -10.044 -23.952  0.00  0.00    -0.291 OA
ATOM      2  C   UNL     1      34.491 -18.195 -22.102  0.00  0.00    +0.033 C 
ATOM      3  C   UNL     1      34.766 -17.543 -23.476  0.00  0.00    +0.003 C 
ATOM      4  C   UNL     1      33.821 -16.377 -23.780  0.00  0.00    +0.001 C 
ATOM      5  C   UNL     1      33.991 -15.286 -22.682  0.00  0.00    +0.004 C 
ATOM      6  C   UNL     1      35.500 -19.382 -22.145  0.00  0.00    +0.142 C 
ATOM      7  C   UNL     1      34.711 -17.127 -21.016  0.00  0.00    +0.003 C 
ATOM      8  C   UNL     1      34.794 -18.731 -24.435  0.00  0.00    +0.004 C 
ATOM      9  C   UNL     1      33.847 -15.875 -21.255  0.00  0.00    +0.000 C 
ATOM     10  C   UNL     1      33.029 -14.084 -22.931  0.00  0.00    +0.019 C 
ATOM     11  C   UNL     1      35.372 -19.895 -23.603  0.00  0.00    +0.039 C 
ATOM     12  C   UNL     1      34.090 -15.768 -25.163  0.00  0.00    +0.004 C 
ATOM     13  C   UNL     1      33.124 -14.624 -25.447  0.00  0.00    +0.022 C 
ATOM     14  C   UNL     1      33.143 -13.576 -24.362  0.00  0.00    -0.042 C 
ATOM     15  C   UNL     1      33.288 -12.964 -21.903  0.00  0.00    +0.012 C 
ATOM     16  C   UNL     1      32.620 -11.655 -22.283  0.00  0.00    +0.069 C 
ATOM     17  C   UNL     1      33.216 -12.276 -24.691  0.00  0.00    +0.029 C 
ATOM     18  C   UNL     1      33.066 -11.226 -23.657  0.00  0.00    +0.173 C 
ENDROOT
BRANCH   6  19
ATOM     19  O   UNL     1      35.152 -20.423 -21.244  0.00  0.00    -0.375 OA
ATOM     20  H   UNL     1      35.389 -21.280 -21.632  0.00  0.00    +0.211 HD
ENDBRANCH   6  19
BRANCH   2  21
ATOM     21  C   UNL     1      33.044 -18.753 -21.954  0.00  0.00    +0.003 C 
ATOM     22  C   UNL     1      32.873 -19.412 -20.612  0.00  0.00    +0.000 C 
ENDBRANCH   2  21
BRANCH   6  23
ATOM     23  C   UNL     1      36.898 -18.986 -21.877  0.00  0.00    -0.053 C 
ATOM     24  C   UNL     1      38.034 -18.665 -21.659  0.00  0.00    -0.012 C 
ENDBRANCH   6  23
TORSDOF 3
ENDMDL
MODEL 5
REMARK VINA RESULT:      -6.0      5.840      8.213
REMARK  Name = 13109
REMARK  3 active torsions:
REMARK  status: ('A' for Active; 'I' for Inactive)
REMARK    1  A    between atoms: C_2  and  C_21
REMARK    2  A    between atoms: C_6  and  O_19
REMARK    3  A    between atoms: C_6  and  C_23
REMARK                            x       y       z     vdW  Elec       q    Type
REMARK                         _______ _______ _______ _____ _____    ______ ____
ROOT
ATOM      1  O   UNL     1      34.457 -24.988 -16.162  0.00  0.00    -0.291 OA
ATOM      2  C   UNL     1      34.496 -18.786 -21.905  0.00  0.00    +0.033 C 
ATOM      3  C   UNL     1      35.738 -19.586 -21.455  0.00  0.00    +0.003 C 
ATOM      4  C   UNL     1      35.648 -20.055 -20.000  0.00  0.00    +0.001 C 
ATOM      5  C   UNL     1      34.397 -20.966 -19.836  0.00  0.00    +0.004 C 
ATOM      6  C   UNL     1      34.936 -18.364 -23.340  0.00  0.00    +0.142 C 
ATOM      7  C   UNL     1      33.268 -19.707 -21.792  0.00  0.00    +0.003 C 
ATOM      8  C   UNL     1      36.907 -18.693 -21.865  0.00  0.00    +0.004 C 
ATOM      9  C   UNL     1      33.111 -20.286 -20.373  0.00  0.00    +0.000 C 
ATOM     10  C   UNL     1      34.243 -21.450 -18.361  0.00  0.00    +0.019 C 
ATOM     11  C   UNL     1      36.427 -17.982 -23.148  0.00  0.00    +0.039 C 
ATOM     12  C   UNL     1      36.907 -20.817 -19.565  0.00  0.00    +0.004 C 
ATOM     13  C   UNL     1      36.798 -21.254 -18.108  0.00  0.00    +0.022 C 
ATOM     14  C   UNL     1      35.543 -22.048 -17.841  0.00  0.00    -0.042 C 
ATOM     15  C   UNL     1      33.068 -22.441 -18.239  0.00  0.00    +0.012 C 
ATOM     16  C   UNL     1      33.067 -23.187 -16.916  0.00  0.00    +0.069 C 
ATOM     17  C   UNL     1      35.614 -23.191 -17.141  0.00  0.00    +0.029 C 
ATOM     18  C   UNL     1      34.381 -23.898 -16.722  0.00  0.00    +0.173 C 
ENDROOT
BRANCH   6  19
ATOM     19  O   UNL     1      34.217 -17.236 -23.818  0.00  0.00    -0.375 OA
ATOM     20  H   UNL     1      34.637 -16.424 -23.498  0.00  0.00    +0.211 HD
ENDBRANCH   6  19
BRANCH   2  21
ATOM     21  C   UNL     1      34.231 -17.510 -21.051  0.00  0.00    +0.003 C 
ATOM     22  C   UNL     1      32.767 -17.164 -21.067  0.00  0.00    +0.000 C 
ENDBRANCH   2  21
BRANCH   6  23
ATOM     23  C   UNL     1      34.823 -19.444 -24.340  0.00  0.00    -0.053 C 
ATOM     24  C   UNL     1      34.730 -20.322 -25.154  0.00  0.00    -0.012 C 
ENDBRANCH   6  23
TORSDOF 3
ENDMDL
MODEL 6
REMARK VINA RESULT:      -5.8      3.258      4.767
REMARK  Name = 13109
REMARK  3 active torsions:
REMARK  status: ('A' for Active; 'I' for Inactive)
REMARK    1  A    between atoms: C_2  and  C_21
REMARK    2  A    between atoms: C_6  and  O_19
REMARK    3  A    between atoms: C_6  and  C_23
REMARK                            x       y       z     vdW  Elec       q    Type
REMARK                         _______ _______ _______ _____ _____    ______ ____
ROOT
ATOM      1  O   UNL     1      33.304 -20.241 -20.154  0.00  0.00    -0.291 OA
ATOM      2  C   UNL     1      36.464 -24.956 -13.890  0.00  0.00    +0.033 C 
ATOM      3  C   UNL     1      36.995 -23.567 -14.310  0.00  0.00    +0.003 C 
ATOM      4  C   UNL     1      36.810 -23.287 -15.804  0.00  0.00    +0.001 C 
ATOM      5  C   UNL     1      35.293 -23.352 -16.148  0.00  0.00    +0.004 C 
ATOM      6  C   UNL     1      36.897 -24.983 -12.393  0.00  0.00    +0.142 C 
ATOM      7  C   UNL     1      34.954 -24.998 -14.184  0.00  0.00    +0.003 C 
ATOM      8  C   UNL     1      38.407 -23.534 -13.729  0.00  0.00    +0.004 C 
ATOM      9  C   UNL     1      34.644 -24.672 -15.657  0.00  0.00    +0.000 C 
ATOM     10  C   UNL     1      35.050 -23.100 -17.669  0.00  0.00    +0.019 C 
ATOM     11  C   UNL     1      38.317 -24.362 -12.430  0.00  0.00    +0.039 C 
ATOM     12  C   UNL     1      37.374 -21.918 -16.204  0.00  0.00    +0.004 C 
ATOM     13  C   UNL     1      37.194 -21.674 -17.698  0.00  0.00    +0.022 C 
ATOM     14  C   UNL     1      35.759 -21.836 -18.136  0.00  0.00    -0.042 C 
ATOM     15  C   UNL     1      33.539 -23.055 -17.973  0.00  0.00    +0.012 C 
ATOM     16  C   UNL     1      33.237 -22.499 -19.354  0.00  0.00    +0.069 C 
ATOM     17  C   UNL     1      35.195 -20.911 -18.927  0.00  0.00    +0.029 C 
ATOM     18  C   UNL     1      33.849 -21.131 -19.506  0.00  0.00    +0.173 C 
ENDROOT
BRANCH   6  19
ATOM     19  O   UNL     1      36.971 -26.303 -11.873  0.00  0.00    -0.375 OA
ATOM     20  H   UNL     1      37.739 -26.758 -12.254  0.00  0.00    +0.211 HD
ENDBRANCH   6  19
BRANCH   2  21
ATOM     21  C   UNL     1      37.143 -26.138 -14.644  0.00  0.00    +0.003 C 
ATOM     22  C   UNL     1      36.110 -26.954 -15.375  0.00  0.00    +0.000 C 
ENDBRANCH   2  21
BRANCH   6  23
ATOM     23  C   UNL     1      36.026 -24.185 -11.506  0.00  0.00    -0.053 C 
ATOM     24  C   UNL     1      35.319 -23.535 -10.785  0.00  0.00    -0.012 C 
ENDBRANCH   6  23
TORSDOF 3
ENDMDL
MODEL 7
REMARK VINA RESULT:      -5.3      5.599      8.478
REMARK  Name = 13109
REMARK  3 active torsions:
REMARK  status: ('A' for Active; 'I' for Inactive)
REMARK    1  A    between atoms: C_2  and  C_21
REMARK    2  A    between atoms: C_6  and  O_19
REMARK    3  A    between atoms: C_6  and  C_23
REMARK                            x       y       z     vdW  Elec       q    Type
REMARK                         _______ _______ _______ _____ _____    ______ ____
ROOT
ATOM      1  O   UNL     1      35.915 -23.445 -14.665  0.00  0.00    -0.291 OA
ATOM      2  C   UNL     1      35.479 -18.900 -21.778  0.00  0.00    +0.033 C 
ATOM      3  C   UNL     1      34.262 -19.377 -20.954  0.00  0.00    +0.003 C 
ATOM      4  C   UNL     1      34.516 -20.705 -20.234  0.00  0.00    +0.001 C 
ATOM      5  C   UNL     1      35.723 -20.535 -19.266  0.00  0.00    +0.004 C 
ATOM      6  C   UNL     1      34.878 -17.634 -22.461  0.00  0.00    +0.142 C 
ATOM      7  C   UNL     1      36.655 -18.683 -20.810  0.00  0.00    +0.003 C 
ATOM      8  C   UNL     1      33.104 -19.292 -21.945  0.00  0.00    +0.004 C 
ATOM      9  C   UNL     1      36.964 -19.947 -19.986  0.00  0.00    +0.000 C 
ATOM     10  C   UNL     1      36.041 -21.870 -18.526  0.00  0.00    +0.019 C 
ATOM     11  C   UNL     1      33.450 -18.094 -22.853  0.00  0.00    +0.039 C 
ATOM     12  C   UNL     1      33.284 -21.175 -19.450  0.00  0.00    +0.004 C 
ATOM     13  C   UNL     1      33.558 -22.507 -18.761  0.00  0.00    +0.022 C 
ATOM     14  C   UNL     1      34.789 -22.458 -17.890  0.00  0.00    -0.042 C 
ATOM     15  C   UNL     1      37.164 -21.657 -17.489  0.00  0.00    +0.012 C 
ATOM     16  C   UNL     1      37.295 -22.822 -16.522  0.00  0.00    +0.069 C 
ATOM     17  C   UNL     1      34.745 -22.957 -16.644  0.00  0.00    +0.029 C 
ATOM     18  C   UNL     1      35.979 -23.074 -15.833  0.00  0.00    +0.173 C 
ENDROOT
BRANCH   6  19
ATOM     19  O   UNL     1      35.593 -17.258 -23.630  0.00  0.00    -0.375 OA
ATOM     20  H   UNL     1      35.686 -18.026 -24.214  0.00  0.00    +0.211 HD
ENDBRANCH   6  19
BRANCH   2  21
ATOM     21  C   UNL     1      35.926 -19.913 -22.874  0.00  0.00    +0.003 C 
ATOM     22  C   UNL     1      35.081 -19.756 -24.109  0.00  0.00    +0.000 C 
ENDBRANCH   2  21
BRANCH   6  23
ATOM     23  C   UNL     1      34.797 -16.459 -21.570  0.00  0.00    -0.053 C 
ATOM     24  C   UNL     1      34.731 -15.503 -20.846  0.00  0.00    -0.012 C 
ENDBRANCH   6  23
TORSDOF 3
ENDMDL
MODEL 8
REMARK VINA RESULT:      -5.1      3.271      5.028
REMARK  Name = 13109
REMARK  3 active torsions:
REMARK  status: ('A' for Active; 'I' for Inactive)
REMARK    1  A    between atoms: C_2  and  C_21
REMARK    2  A    between atoms: C_6  and  O_19
REMARK    3  A    between atoms: C_6  and  C_23
REMARK                            x       y       z     vdW  Elec       q    Type
REMARK                         _______ _______ _______ _____ _____    ______ ____
ROOT
ATOM      1  O   UNL     1      35.124 -20.090 -22.432  0.00  0.00    -0.291 OA
ATOM      2  C   UNL     1      36.244 -23.872 -14.955  0.00  0.00    +0.033 C 
ATOM      3  C   UNL     1      35.046 -24.114 -15.902  0.00  0.00    +0.003 C 
ATOM      4  C   UNL     1      34.684 -22.877 -16.729  0.00  0.00    +0.001 C 
ATOM      5  C   UNL     1      35.912 -22.466 -17.593  0.00  0.00    +0.004 C 
ATOM      6  C   UNL     1      36.282 -25.233 -14.195  0.00  0.00    +0.142 C 
ATOM      7  C   UNL     1      37.469 -23.517 -15.817  0.00  0.00    +0.003 C 
ATOM      8  C   UNL     1      33.985 -24.719 -14.987  0.00  0.00    +0.004 C 
ATOM      9  C   UNL     1      37.196 -22.313 -16.738  0.00  0.00    +0.000 C 
ATOM     10  C   UNL     1      35.603 -21.190 -18.436  0.00  0.00    +0.019 C 
ATOM     11  C   UNL     1      34.781 -25.533 -13.945  0.00  0.00    +0.039 C 
ATOM     12  C   UNL     1      33.472 -23.130 -17.635  0.00  0.00    +0.004 C 
ATOM     13  C   UNL     1      33.121 -21.877 -18.430  0.00  0.00    +0.022 C 
ATOM     14  C   UNL     1      34.300 -21.345 -19.208  0.00  0.00    -0.042 C 
ATOM     15  C   UNL     1      36.786 -20.863 -19.370  0.00  0.00    +0.012 C 
ATOM     16  C   UNL     1      36.425 -19.841 -20.434  0.00  0.00    +0.069 C 
ATOM     17  C   UNL     1      34.147 -20.999 -20.496  0.00  0.00    +0.029 C 
ATOM     18  C   UNL     1      35.239 -20.319 -21.231  0.00  0.00    +0.173 C 
ENDROOT
BRANCH   6  19
ATOM     19  O   UNL     1      36.959 -25.139 -12.950  0.00  0.00    -0.375 OA
ATOM     20  H   UNL     1      37.547 -24.368 -12.958  0.00  0.00    +0.211 HD
ENDBRANCH   6  19
BRANCH   2  21
ATOM     21  C   UNL     1      36.011 -22.718 -13.936  0.00  0.00    +0.003 C 
ATOM     22  C   UNL     1      37.166 -22.627 -12.975  0.00  0.00    +0.000 C 
ENDBRANCH   2  21
BRANCH   6  23
ATOM     23  C   UNL     1      36.888 -26.332 -14.971  0.00  0.00    -0.053 C 
ATOM     24  C   UNL     1      37.380 -27.228 -15.602  0.00  0.00    -0.012 C 
ENDBRANCH   6  23
TORSDOF 3
ENDMDL
MODEL 9
REMARK VINA RESULT:      -4.9     15.267     17.571
REMARK  Name = 13109
REMARK  3 active torsions:
REMARK  status: ('A' for Active; 'I' for Inactive)
REMARK    1  A    between atoms: C_2  and  C_21
REMARK    2  A    between atoms: C_6  and  O_19
REMARK    3  A    between atoms: C_6  and  C_23
REMARK                            x       y       z     vdW  Elec       q    Type
REMARK                         _______ _______ _______ _____ _____    ______ ____
ROOT
ATOM      1  O   UNL     1      33.045 -15.496 -25.351  0.00  0.00    -0.291 OA
ATOM      2  C   UNL     1      32.601  -7.468 -22.741  0.00  0.00    +0.033 C 
ATOM      3  C   UNL     1      33.268  -7.939 -24.053  0.00  0.00    +0.003 C 
ATOM      4  C   UNL     1      33.866  -9.345 -23.944  0.00  0.00    +0.001 C 
ATOM      5  C   UNL     1      32.734 -10.352 -23.585  0.00  0.00    +0.004 C 
ATOM      6  C   UNL     1      32.214  -6.009 -23.129  0.00  0.00    +0.142 C 
ATOM      7  C   UNL     1      31.449  -8.436 -22.417  0.00  0.00    +0.003 C 
ATOM      8  C   UNL     1      34.190  -6.779 -24.422  0.00  0.00    +0.004 C 
ATOM      9  C   UNL     1      31.929  -9.897 -22.340  0.00  0.00    +0.000 C 
ATOM     10  C   UNL     1      33.296 -11.799 -23.435  0.00  0.00    +0.019 C 
ATOM     11  C   UNL     1      33.455  -5.518 -23.919  0.00  0.00    +0.039 C 
ATOM     12  C   UNL     1      34.551  -9.777 -25.246  0.00  0.00    +0.004 C 
ATOM     13  C   UNL     1      35.154 -11.171 -25.103  0.00  0.00    +0.022 C 
ATOM     14  C   UNL     1      34.140 -12.188 -24.641  0.00  0.00    -0.042 C 
ATOM     15  C   UNL     1      32.148 -12.800 -23.192  0.00  0.00    +0.012 C 
ATOM     16  C   UNL     1      32.588 -14.245 -23.358  0.00  0.00    +0.069 C 
ATOM     17  C   UNL     1      34.053 -13.374 -25.264  0.00  0.00    +0.029 C 
ATOM     18  C   UNL     1      33.188 -14.449 -24.725  0.00  0.00    +0.173 C 
ENDROOT
BRANCH   6  19
ATOM     19  O   UNL     1      32.019  -5.179 -21.993  0.00  0.00    -0.375 OA
ATOM     20  H   UNL     1      32.284  -4.271 -22.205  0.00  0.00    +0.211 HD
ENDBRANCH   6  19
BRANCH   2  21
ATOM     21  C   UNL     1      33.572  -7.437 -21.523  0.00  0.00    +0.003 C 
ATOM     22  C   UNL     1      32.806  -7.604 -20.239  0.00  0.00    +0.000 C 
ENDBRANCH   2  21
BRANCH   6  23
ATOM     23  C   UNL     1      31.012  -5.918 -23.981  0.00  0.00    -0.053 C 
ATOM     24  C   UNL     1      30.035  -5.844 -24.675  0.00  0.00    -0.012 C 
ENDBRANCH   6  23
TORSDOF 3
ENDMDL
