MODEL 1
REMARK VINA RESULT:      -6.0      0.000      0.000
REMARK  Name = 4032
REMARK  1 active torsions:
REMARK  status: ('A' for Active; 'I' for Inactive)
REMARK    1  A    between atoms: C_2  and  N_11
REMARK                            x       y       z     vdW  Elec       q    Type
REMARK                         _______ _______ _______ _____ _____    ______ ____
ROOT
ATOM      1  C   UNL     1      36.499 -24.167 -14.429  0.00  0.00    -0.016 C 
ATOM      2  C   UNL     1      37.678 -25.230 -14.302  0.00  0.00    -0.046 C 
ATOM      3  C   UNL     1      36.185 -23.862 -12.921  0.00  0.00    -0.002 C 
ATOM      4  C   UNL     1      37.852 -25.335 -12.747  0.00  0.00    -0.018 C 
ATOM      5  C   UNL     1      36.407 -25.223 -12.249  0.00  0.00    -0.002 C 
ATOM      6  C   UNL     1      37.298 -23.044 -12.242  0.00  0.00    -0.000 C 
ATOM      7  C   UNL     1      38.450 -24.051 -12.135  0.00  0.00    -0.002 C 
ATOM      8  C   UNL     1      36.861 -22.892 -15.218  0.00  0.00    -0.002 C 
ATOM      9  C   UNL     1      35.221 -24.723 -15.103  0.00  0.00    -0.002 C 
ATOM     10  C   UNL     1      37.353 -26.627 -14.871  0.00  0.00    -0.022 C 
ENDROOT
BRANCH   2  11
ATOM     11  N   UNL     1      38.933 -24.858 -14.964  0.00  0.00    +0.385 N 
ATOM     12  C   UNL     1      39.949 -25.872 -14.740  0.00  0.00    -0.105 C 
ATOM     13  H   UNL     1      39.260 -23.967 -14.588  0.00  0.00    -0.084 HD
ATOM     14  H   UNL     1      38.765 -24.776 -15.967  0.00  0.00    -0.084 HD
ENDBRANCH   2  11
TORSDOF 1
ENDMDL
MODEL 2
REMARK VINA RESULT:      -5.9      1.191      2.959
REMARK  Name = 4032
REMARK  1 active torsions:
REMARK  status: ('A' for Active; 'I' for Inactive)
REMARK    1  A    between atoms: C_2  and  N_11
REMARK                            x       y       z     vdW  Elec       q    Type
REMARK                         _______ _______ _______ _____ _____    ______ ____
ROOT
ATOM      1  C   UNL     1      36.881 -24.391 -12.647  0.00  0.00    -0.016 C 
ATOM      2  C   UNL     1      36.536 -24.241 -14.194  0.00  0.00    -0.046 C 
ATOM      3  C   UNL     1      37.810 -25.658 -12.652  0.00  0.00    -0.002 C 
ATOM      4  C   UNL     1      37.342 -25.431 -14.822  0.00  0.00    -0.018 C 
ATOM      5  C   UNL     1      37.192 -26.524 -13.758  0.00  0.00    -0.002 C 
ATOM      6  C   UNL     1      39.190 -25.373 -13.275  0.00  0.00    -0.000 C 
ATOM      7  C   UNL     1      38.867 -25.202 -14.764  0.00  0.00    -0.002 C 
ATOM      8  C   UNL     1      37.573 -23.165 -12.017  0.00  0.00    -0.002 C 
ATOM      9  C   UNL     1      35.650 -24.678 -11.753  0.00  0.00    -0.002 C 
ATOM     10  C   UNL     1      35.041 -24.403 -14.542  0.00  0.00    -0.022 C 
ENDROOT
BRANCH   2  11
ATOM     11  N   UNL     1      36.906 -22.957 -14.799  0.00  0.00    +0.385 N 
ATOM     12  C   UNL     1      36.202 -22.761 -16.055  0.00  0.00    -0.105 C 
ATOM     13  H   UNL     1      37.911 -22.945 -14.972  0.00  0.00    -0.084 HD
ATOM     14  H   UNL     1      36.651 -22.206 -14.158  0.00  0.00    -0.084 HD
ENDBRANCH   2  11
TORSDOF 1
ENDMDL
MODEL 3
REMARK VINA RESULT:      -5.8     18.177     20.060
REMARK  Name = 4032
REMARK  1 active torsions:
REMARK  status: ('A' for Active; 'I' for Inactive)
REMARK    1  A    between atoms: C_2  and  N_11
REMARK                            x       y       z     vdW  Elec       q    Type
REMARK                         _______ _______ _______ _____ _____    ______ ____
ROOT
ATOM      1  C   UNL     1      33.313  -8.110 -23.428  0.00  0.00    -0.016 C 
ATOM      2  C   UNL     1      32.404  -8.086 -22.122  0.00  0.00    -0.046 C 
ATOM      3  C   UNL     1      32.468  -7.229 -24.417  0.00  0.00    -0.002 C 
ATOM      4  C   UNL     1      31.208  -7.179 -22.576  0.00  0.00    -0.018 C 
ATOM      5  C   UNL     1      31.026  -7.591 -24.041  0.00  0.00    -0.002 C 
ATOM      6  C   UNL     1      32.479  -5.738 -24.031  0.00  0.00    -0.000 C 
ATOM      7  C   UNL     1      31.626  -5.705 -22.758  0.00  0.00    -0.002 C 
ATOM      8  C   UNL     1      34.741  -7.560 -23.233  0.00  0.00    -0.002 C 
ATOM      9  C   UNL     1      33.492  -9.519 -24.044  0.00  0.00    -0.002 C 
ATOM     10  C   UNL     1      31.858  -9.463 -21.688  0.00  0.00    -0.022 C 
ENDROOT
BRANCH   2  11
ATOM     11  N   UNL     1      33.053  -7.563 -20.914  0.00  0.00    +0.385 N 
ATOM     12  C   UNL     1      32.248  -7.845 -19.738  0.00  0.00    -0.105 C 
ATOM     13  H   UNL     1      33.169  -6.554 -21.006  0.00  0.00    -0.084 HD
ATOM     14  H   UNL     1      33.961  -8.014 -20.808  0.00  0.00    -0.084 HD
ENDBRANCH   2  11
TORSDOF 1
ENDMDL
MODEL 4
REMARK VINA RESULT:      -5.7      1.597      3.389
REMARK  Name = 4032
REMARK  1 active torsions:
REMARK  status: ('A' for Active; 'I' for Inactive)
REMARK    1  A    between atoms: C_2  and  N_11
REMARK                            x       y       z     vdW  Elec       q    Type
REMARK                         _______ _______ _______ _____ _____    ______ ____
ROOT
ATOM      1  C   UNL     1      37.345 -23.861 -13.366  0.00  0.00    -0.016 C 
ATOM      2  C   UNL     1      36.184 -24.906 -13.058  0.00  0.00    -0.046 C 
ATOM      3  C   UNL     1      38.601 -24.801 -13.451  0.00  0.00    -0.002 C 
ATOM      4  C   UNL     1      36.967 -26.264 -13.040  0.00  0.00    -0.018 C 
ATOM      5  C   UNL     1      38.296 -25.865 -12.389  0.00  0.00    -0.002 C 
ATOM      6  C   UNL     1      38.596 -25.677 -14.717  0.00  0.00    -0.000 C 
ATOM      7  C   UNL     1      37.464 -26.674 -14.442  0.00  0.00    -0.002 C 
ATOM      8  C   UNL     1      37.147 -23.037 -14.655  0.00  0.00    -0.002 C 
ATOM      9  C   UNL     1      37.573 -22.823 -12.241  0.00  0.00    -0.002 C 
ATOM     10  C   UNL     1      35.482 -24.708 -11.697  0.00  0.00    -0.022 C 
ENDROOT
BRANCH   2  11
ATOM     11  N   UNL     1      35.083 -24.927 -14.027  0.00  0.00    +0.385 N 
ATOM     12  C   UNL     1      33.917 -24.245 -13.492  0.00  0.00    -0.105 C 
ATOM     13  H   UNL     1      34.839 -25.895 -14.237  0.00  0.00    -0.084 HD
ATOM     14  H   UNL     1      35.383 -24.448 -14.876  0.00  0.00    -0.084 HD
ENDBRANCH   2  11
TORSDOF 1
ENDMDL
MODEL 5
REMARK VINA RESULT:      -5.7      1.279      3.229
REMARK  Name = 4032
REMARK  1 active torsions:
REMARK  status: ('A' for Active; 'I' for Inactive)
REMARK    1  A    between atoms: C_2  and  N_11
REMARK                            x       y       z     vdW  Elec       q    Type
REMARK                         _______ _______ _______ _____ _____    ______ ____
ROOT
ATOM      1  C   UNL     1      37.646 -25.181 -14.117  0.00  0.00    -0.016 C 
ATOM      2  C   UNL     1      36.714 -24.006 -14.648  0.00  0.00    -0.046 C 
ATOM      3  C   UNL     1      37.670 -24.893 -12.573  0.00  0.00    -0.002 C 
ATOM      4  C   UNL     1      36.345 -23.260 -13.319  0.00  0.00    -0.018 C 
ATOM      5  C   UNL     1      37.647 -23.361 -12.517  0.00  0.00    -0.002 C 
ATOM      6  C   UNL     1      36.323 -25.206 -11.896  0.00  0.00    -0.000 C 
ATOM      7  C   UNL     1      35.407 -24.093 -12.419  0.00  0.00    -0.002 C 
ATOM      8  C   UNL     1      37.140 -26.603 -14.436  0.00  0.00    -0.002 C 
ATOM      9  C   UNL     1      39.096 -25.127 -14.658  0.00  0.00    -0.002 C 
ATOM     10  C   UNL     1      37.405 -23.015 -15.609  0.00  0.00    -0.022 C 
ENDROOT
BRANCH   2  11
ATOM     11  N   UNL     1      35.516 -24.435 -15.379  0.00  0.00    +0.385 N 
ATOM     12  C   UNL     1      34.846 -23.293 -15.977  0.00  0.00    -0.105 C 
ATOM     13  H   UNL     1      34.877 -24.899 -14.733  0.00  0.00    -0.084 HD
ATOM     14  H   UNL     1      35.796 -25.078 -16.119  0.00  0.00    -0.084 HD
ENDBRANCH   2  11
TORSDOF 1
ENDMDL
MODEL 6
REMARK VINA RESULT:      -5.6      1.012      2.680
REMARK  Name = 4032
REMARK  1 active torsions:
REMARK  status: ('A' for Active; 'I' for Inactive)
REMARK    1  A    between atoms: C_2  and  N_11
REMARK                            x       y       z     vdW  Elec       q    Type
REMARK                         _______ _______ _______ _____ _____    ______ ____
ROOT
ATOM      1  C   UNL     1      36.905 -25.658 -14.078  0.00  0.00    -0.016 C 
ATOM      2  C   UNL     1      38.083 -24.604 -14.267  0.00  0.00    -0.046 C 
ATOM      3  C   UNL     1      35.645 -24.719 -14.038  0.00  0.00    -0.002 C 
ATOM      4  C   UNL     1      37.298 -23.248 -14.324  0.00  0.00    -0.018 C 
ATOM      5  C   UNL     1      36.174 -23.479 -13.308  0.00  0.00    -0.002 C 
ATOM      6  C   UNL     1      35.326 -24.105 -15.414  0.00  0.00    -0.000 C 
ATOM      7  C   UNL     1      36.469 -23.104 -15.618  0.00  0.00    -0.002 C 
ATOM      8  C   UNL     1      36.803 -26.721 -15.192  0.00  0.00    -0.002 C 
ATOM      9  C   UNL     1      36.977 -26.453 -12.752  0.00  0.00    -0.002 C 
ATOM     10  C   UNL     1      39.097 -24.553 -13.103  0.00  0.00    -0.022 C 
ENDROOT
BRANCH   2  11
ATOM     11  N   UNL     1      38.917 -24.799 -15.458  0.00  0.00    +0.385 N 
ATOM     12  C   UNL     1      40.199 -25.377 -15.095  0.00  0.00    -0.105 C 
ATOM     13  H   UNL     1      39.071 -23.898 -15.911  0.00  0.00    -0.084 HD
ATOM     14  H   UNL     1      38.437 -25.435 -16.095  0.00  0.00    -0.084 HD
ENDBRANCH   2  11
TORSDOF 1
ENDMDL
MODEL 7
REMARK VINA RESULT:      -5.6      1.505      3.385
REMARK  Name = 4032
REMARK  1 active torsions:
REMARK  status: ('A' for Active; 'I' for Inactive)
REMARK    1  A    between atoms: C_2  and  N_11
REMARK                            x       y       z     vdW  Elec       q    Type
REMARK                         _______ _______ _______ _____ _____    ______ ____
ROOT
ATOM      1  C   UNL     1      36.693 -24.088 -14.607  0.00  0.00    -0.016 C 
ATOM      2  C   UNL     1      36.781 -24.244 -13.025  0.00  0.00    -0.046 C 
ATOM      3  C   UNL     1      37.684 -25.207 -15.090  0.00  0.00    -0.002 C 
ATOM      4  C   UNL     1      37.786 -25.437 -12.873  0.00  0.00    -0.018 C 
ATOM      5  C   UNL     1      38.776 -25.176 -14.014  0.00  0.00    -0.002 C 
ATOM      6  C   UNL     1      37.125 -26.624 -14.864  0.00  0.00    -0.000 C 
ATOM      7  C   UNL     1      37.181 -26.778 -13.340  0.00  0.00    -0.002 C 
ATOM      8  C   UNL     1      35.280 -24.267 -15.198  0.00  0.00    -0.002 C 
ATOM      9  C   UNL     1      37.191 -22.719 -15.133  0.00  0.00    -0.002 C 
ATOM     10  C   UNL     1      37.342 -23.011 -12.284  0.00  0.00    -0.022 C 
ENDROOT
BRANCH   2  11
ATOM     11  N   UNL     1      35.508 -24.518 -12.350  0.00  0.00    +0.385 N 
ATOM     12  C   UNL     1      35.646 -24.351 -10.913  0.00  0.00    -0.105 C 
ATOM     13  H   UNL     1      35.221 -25.476 -12.550  0.00  0.00    -0.084 HD
ATOM     14  H   UNL     1      34.806 -23.862 -12.692  0.00  0.00    -0.084 HD
ENDBRANCH   2  11
TORSDOF 1
ENDMDL
MODEL 8
REMARK VINA RESULT:      -5.5      1.169      3.333
REMARK  Name = 4032
REMARK  1 active torsions:
REMARK  status: ('A' for Active; 'I' for Inactive)
REMARK    1  A    between atoms: C_2  and  N_11
REMARK                            x       y       z     vdW  Elec       q    Type
REMARK                         _______ _______ _______ _____ _____    ______ ____
ROOT
ATOM      1  C   UNL     1      38.278 -24.815 -13.327  0.00  0.00    -0.016 C 
ATOM      2  C   UNL     1      37.411 -23.999 -14.383  0.00  0.00    -0.046 C 
ATOM      3  C   UNL     1      37.341 -26.039 -13.027  0.00  0.00    -0.002 C 
ATOM      4  C   UNL     1      36.138 -24.904 -14.524  0.00  0.00    -0.018 C 
ATOM      5  C   UNL     1      35.942 -25.415 -13.092  0.00  0.00    -0.002 C 
ATOM      6  C   UNL     1      37.254 -27.018 -14.212  0.00  0.00    -0.000 C 
ATOM      7  C   UNL     1      36.439 -26.233 -15.247  0.00  0.00    -0.002 C 
ATOM      8  C   UNL     1      39.667 -25.256 -13.833  0.00  0.00    -0.002 C 
ATOM      9  C   UNL     1      38.543 -24.052 -12.006  0.00  0.00    -0.002 C 
ATOM     10  C   UNL     1      36.983 -22.591 -13.918  0.00  0.00    -0.022 C 
ENDROOT
BRANCH   2  11
ATOM     11  N   UNL     1      38.056 -23.765 -15.680  0.00  0.00    +0.385 N 
ATOM     12  C   UNL     1      37.589 -22.521 -16.266  0.00  0.00    -0.105 C 
ATOM     13  H   UNL     1      37.834 -24.537 -16.309  0.00  0.00    -0.084 HD
ATOM     14  H   UNL     1      39.065 -23.706 -15.539  0.00  0.00    -0.084 HD
ENDBRANCH   2  11
TORSDOF 1
ENDMDL
MODEL 9
REMARK VINA RESULT:      -5.4     18.256     20.029
REMARK  Name = 4032
REMARK  1 active torsions:
REMARK  status: ('A' for Active; 'I' for Inactive)
REMARK    1  A    between atoms: C_2  and  N_11
REMARK                            x       y       z     vdW  Elec       q    Type
REMARK                         _______ _______ _______ _____ _____    ______ ____
ROOT
ATOM      1  C   UNL     1      32.455  -7.889 -21.879  0.00  0.00    -0.016 C 
ATOM      2  C   UNL     1      33.294  -7.930 -23.231  0.00  0.00    -0.046 C 
ATOM      3  C   UNL     1      31.403  -6.767 -22.195  0.00  0.00    -0.002 C 
ATOM      4  C   UNL     1      32.568  -6.843 -24.096  0.00  0.00    -0.018 C 
ATOM      5  C   UNL     1      32.208  -5.782 -23.050  0.00  0.00    -0.002 C 
ATOM      6  C   UNL     1      30.351  -7.220 -23.225  0.00  0.00    -0.000 C 
ATOM      7  C   UNL     1      31.154  -7.286 -24.530  0.00  0.00    -0.002 C 
ATOM      8  C   UNL     1      31.785  -9.224 -21.493  0.00  0.00    -0.002 C 
ATOM      9  C   UNL     1      33.280  -7.466 -20.639  0.00  0.00    -0.002 C 
ATOM     10  C   UNL     1      34.782  -7.546 -23.080  0.00  0.00    -0.022 C 
ENDROOT
BRANCH   2  11
ATOM     11  N   UNL     1      33.329  -9.230 -23.910  0.00  0.00    +0.385 N 
ATOM     12  C   UNL     1      34.698  -9.614 -24.212  0.00  0.00    -0.105 C 
ATOM     13  H   UNL     1      32.799  -9.168 -24.780  0.00  0.00    -0.084 HD
ATOM     14  H   UNL     1      32.917  -9.933 -23.297  0.00  0.00    -0.084 HD
ENDBRANCH   2  11
TORSDOF 1
ENDMDL
