MODEL 1
REMARK VINA RESULT:      -7.6      0.000      0.000
REMARK  Name = 5280980
REMARK  4 active torsions:
REMARK  status: ('A' for Active; 'I' for Inactive)
REMARK    1  A    between atoms: C_5  and  C_11
REMARK    2  A    between atoms: C_9  and  C_14
REMARK    3  A    between atoms: C_11  and  O_12
REMARK    4  A    between atoms: C_14  and  O_15
REMARK                            x       y       z     vdW  Elec       q    Type
REMARK                         _______ _______ _______ _____ _____    ______ ____
ROOT
ATOM      1  O   UNL     1      38.416 -23.850 -13.331  0.00  0.00    -0.462 OA
ATOM      2  O   UNL     1      35.287 -25.105 -10.876  0.00  0.00    -0.275 OA
ATOM      3  N   UNL     1      36.134 -24.368 -12.951  0.00  0.00    -0.232 N 
ATOM      4  C   UNL     1      37.139 -23.303 -12.918  0.00  0.00    +0.256 C 
ATOM      5  C   UNL     1      36.631 -25.500 -13.689  0.00  0.00    +0.234 C 
ATOM      6  C   UNL     1      36.833 -23.149 -11.418  0.00  0.00    +0.151 C 
ATOM      7  C   UNL     1      35.900 -24.359 -11.606  0.00  0.00    +0.234 C 
ATOM      8  C   UNL     1      38.091 -25.130 -13.822  0.00  0.00    +0.145 C 
ATOM      9  C   UNL     1      39.042 -25.936 -14.305  0.00  0.00    +0.040 C 
ENDROOT
BRANCH   5  11
ATOM     10  O   UNL     1      35.544 -24.499 -15.595  0.00  0.00    -0.248 OA
ATOM     11  C   UNL     1      35.973 -25.493 -15.028  0.00  0.00    +0.340 C 
BRANCH  11  12
ATOM     12  O   UNL     1      35.912 -26.748 -15.538  0.00  0.00    -0.479 OA
ATOM     13  H   UNL     1      35.795 -26.875 -16.458  0.00  0.00    +0.295 HD
ENDBRANCH  11  12
ENDBRANCH   5  11
BRANCH   9  14
ATOM     14  C   UNL     1      40.479 -25.550 -14.427  0.00  0.00    +0.166 C 
BRANCH  14  15
ATOM     15  O   UNL     1      41.282 -26.697 -14.190  0.00  0.00    -0.377 OA
ATOM     16  H   UNL     1      41.860 -26.852 -14.953  0.00  0.00    +0.211 HD
ENDBRANCH  14  15
ENDBRANCH   9  14
TORSDOF 4
ENDMDL
MODEL 2
REMARK VINA RESULT:      -7.0      2.023      3.304
REMARK  Name = 5280980
REMARK  4 active torsions:
REMARK  status: ('A' for Active; 'I' for Inactive)
REMARK    1  A    between atoms: C_5  and  C_11
REMARK    2  A    between atoms: C_9  and  C_14
REMARK    3  A    between atoms: C_11  and  O_12
REMARK    4  A    between atoms: C_14  and  O_15
REMARK                            x       y       z     vdW  Elec       q    Type
REMARK                         _______ _______ _______ _____ _____    ______ ____
ROOT
ATOM      1  O   UNL     1      35.717 -23.450 -14.607  0.00  0.00    -0.462 OA
ATOM      2  O   UNL     1      37.438 -24.427 -10.936  0.00  0.00    -0.275 OA
ATOM      3  N   UNL     1      36.697 -24.997 -13.103  0.00  0.00    -0.232 N 
ATOM      4  C   UNL     1      35.436 -24.402 -13.552  0.00  0.00    +0.256 C 
ATOM      5  C   UNL     1      37.744 -24.720 -14.050  0.00  0.00    +0.234 C 
ATOM      6  C   UNL     1      35.237 -23.896 -12.113  0.00  0.00    +0.151 C 
ATOM      7  C   UNL     1      36.634 -24.481 -11.840  0.00  0.00    +0.234 C 
ATOM      8  C   UNL     1      37.072 -23.681 -14.917  0.00  0.00    +0.145 C 
ATOM      9  C   UNL     1      37.683 -22.973 -15.873  0.00  0.00    +0.040 C 
ENDROOT
BRANCH   5  11
ATOM     10  O   UNL     1      38.972 -26.685 -14.721  0.00  0.00    -0.248 OA
ATOM     11  C   UNL     1      37.989 -25.967 -14.833  0.00  0.00    +0.340 C 
BRANCH  11  12
ATOM     12  O   UNL     1      36.969 -26.199 -15.694  0.00  0.00    -0.479 OA
ATOM     13  H   UNL     1      36.964 -25.790 -16.537  0.00  0.00    +0.295 HD
ENDBRANCH  11  12
ENDBRANCH   5  11
BRANCH   9  14
ATOM     14  C   UNL     1      36.999 -21.950 -16.719  0.00  0.00    +0.166 C 
BRANCH  14  15
ATOM     15  O   UNL     1      35.870 -22.549 -17.337  0.00  0.00    -0.377 OA
ATOM     16  H   UNL     1      35.435 -21.902 -17.914  0.00  0.00    +0.211 HD
ENDBRANCH  14  15
ENDBRANCH   9  14
TORSDOF 4
ENDMDL
MODEL 3
REMARK VINA RESULT:      -6.8      1.957      4.148
REMARK  Name = 5280980
REMARK  4 active torsions:
REMARK  status: ('A' for Active; 'I' for Inactive)
REMARK    1  A    between atoms: C_5  and  C_11
REMARK    2  A    between atoms: C_9  and  C_14
REMARK    3  A    between atoms: C_11  and  O_12
REMARK    4  A    between atoms: C_14  and  O_15
REMARK                            x       y       z     vdW  Elec       q    Type
REMARK                         _______ _______ _______ _____ _____    ______ ____
ROOT
ATOM      1  O   UNL     1      34.613 -24.513 -12.232  0.00  0.00    -0.462 OA
ATOM      2  O   UNL     1      38.266 -22.517 -11.969  0.00  0.00    -0.275 OA
ATOM      3  N   UNL     1      36.981 -24.465 -12.323  0.00  0.00    -0.232 N 
ATOM      4  C   UNL     1      35.823 -24.665 -11.449  0.00  0.00    +0.256 C 
ATOM      5  C   UNL     1      36.580 -24.523 -13.704  0.00  0.00    +0.234 C 
ATOM      6  C   UNL     1      36.333 -23.480 -10.610  0.00  0.00    +0.151 C 
ATOM      7  C   UNL     1      37.421 -23.338 -11.689  0.00  0.00    +0.234 C 
ATOM      8  C   UNL     1      35.076 -24.473 -13.562  0.00  0.00    +0.145 C 
ATOM      9  C   UNL     1      34.216 -24.345 -14.579  0.00  0.00    +0.040 C 
ENDROOT
BRANCH   5  11
ATOM     10  O   UNL     1      37.261 -26.832 -13.568  0.00  0.00    -0.248 OA
ATOM     11  C   UNL     1      37.004 -25.848 -14.245  0.00  0.00    +0.340 C 
BRANCH  11  12
ATOM     12  O   UNL     1      37.069 -25.814 -15.598  0.00  0.00    -0.479 OA
ATOM     13  H   UNL     1      37.901 -25.771 -16.027  0.00  0.00    +0.295 HD
ENDBRANCH  11  12
ENDBRANCH   5  11
BRANCH   9  14
ATOM     14  C   UNL     1      32.733 -24.299 -14.416  0.00  0.00    +0.166 C 
BRANCH  14  15
ATOM     15  O   UNL     1      32.303 -25.499 -13.791  0.00  0.00    -0.377 OA
ATOM     16  H   UNL     1      32.872 -25.690 -13.030  0.00  0.00    +0.211 HD
ENDBRANCH  14  15
ENDBRANCH   9  14
TORSDOF 4
ENDMDL
MODEL 4
REMARK VINA RESULT:      -6.5      2.350      3.916
REMARK  Name = 5280980
REMARK  4 active torsions:
REMARK  status: ('A' for Active; 'I' for Inactive)
REMARK    1  A    between atoms: C_5  and  C_11
REMARK    2  A    between atoms: C_9  and  C_14
REMARK    3  A    between atoms: C_11  and  O_12
REMARK    4  A    between atoms: C_14  and  O_15
REMARK                            x       y       z     vdW  Elec       q    Type
REMARK                         _______ _______ _______ _____ _____    ______ ____
ROOT
ATOM      1  O   UNL     1      37.581 -22.607 -14.231  0.00  0.00    -0.462 OA
ATOM      2  O   UNL     1      34.715 -22.746 -17.258  0.00  0.00    -0.275 OA
ATOM      3  N   UNL     1      36.540 -23.666 -16.079  0.00  0.00    -0.232 N 
ATOM      4  C   UNL     1      37.603 -22.743 -15.673  0.00  0.00    +0.256 C 
ATOM      5  C   UNL     1      36.049 -24.393 -14.938  0.00  0.00    +0.234 C 
ATOM      6  C   UNL     1      36.917 -21.674 -16.543  0.00  0.00    +0.151 C 
ATOM      7  C   UNL     1      35.824 -22.733 -16.773  0.00  0.00    +0.234 C 
ATOM      8  C   UNL     1      36.691 -23.615 -13.811  0.00  0.00    +0.145 C 
ATOM      9  C   UNL     1      36.427 -23.794 -12.513  0.00  0.00    +0.040 C 
ENDROOT
BRANCH   5  11
ATOM     10  O   UNL     1      36.104 -26.714 -15.590  0.00  0.00    -0.248 OA
ATOM     11  C   UNL     1      36.614 -25.773 -15.001  0.00  0.00    +0.340 C 
BRANCH  11  12
ATOM     12  O   UNL     1      37.778 -25.845 -14.310  0.00  0.00    -0.479 OA
ATOM     13  H   UNL     1      38.062 -25.118 -13.792  0.00  0.00    +0.295 HD
ENDBRANCH  11  12
ENDBRANCH   5  11
BRANCH   9  14
ATOM     14  C   UNL     1      37.073 -23.015 -11.415  0.00  0.00    +0.166 C 
BRANCH  14  15
ATOM     15  O   UNL     1      38.478 -23.012 -11.622  0.00  0.00    -0.377 OA
ATOM     16  H   UNL     1      38.670 -22.780 -12.544  0.00  0.00    +0.211 HD
ENDBRANCH  14  15
ENDBRANCH   9  14
TORSDOF 4
ENDMDL
MODEL 5
REMARK VINA RESULT:      -6.5      2.274      4.216
REMARK  Name = 5280980
REMARK  4 active torsions:
REMARK  status: ('A' for Active; 'I' for Inactive)
REMARK    1  A    between atoms: C_5  and  C_11
REMARK    2  A    between atoms: C_9  and  C_14
REMARK    3  A    between atoms: C_11  and  O_12
REMARK    4  A    between atoms: C_14  and  O_15
REMARK                            x       y       z     vdW  Elec       q    Type
REMARK                         _______ _______ _______ _____ _____    ______ ____
ROOT
ATOM      1  O   UNL     1      35.723 -24.828 -15.547  0.00  0.00    -0.462 OA
ATOM      2  O   UNL     1      37.555 -21.222 -16.564  0.00  0.00    -0.275 OA
ATOM      3  N   UNL     1      36.349 -22.592 -15.069  0.00  0.00    -0.232 N 
ATOM      4  C   UNL     1      35.305 -23.444 -15.643  0.00  0.00    +0.256 C 
ATOM      5  C   UNL     1      37.275 -23.386 -14.303  0.00  0.00    +0.234 C 
ATOM      6  C   UNL     1      35.503 -22.685 -16.966  0.00  0.00    +0.151 C 
ATOM      7  C   UNL     1      36.653 -21.961 -16.241  0.00  0.00    +0.234 C 
ATOM      8  C   UNL     1      36.862 -24.779 -14.719  0.00  0.00    +0.145 C 
ATOM      9  C   UNL     1      37.521 -25.898 -14.401  0.00  0.00    +0.040 C 
ENDROOT
BRANCH   5  11
ATOM     10  O   UNL     1      35.911 -23.436 -12.314  0.00  0.00    -0.248 OA
ATOM     11  C   UNL     1      36.972 -23.167 -12.857  0.00  0.00    +0.340 C 
BRANCH  11  12
ATOM     12  O   UNL     1      38.039 -22.624 -12.222  0.00  0.00    -0.479 OA
ATOM     13  H   UNL     1      37.934 -21.845 -11.711  0.00  0.00    +0.295 HD
ENDBRANCH  11  12
ENDBRANCH   5  11
BRANCH   9  14
ATOM     14  C   UNL     1      37.096 -27.265 -14.822  0.00  0.00    +0.166 C 
BRANCH  14  15
ATOM     15  O   UNL     1      36.875 -27.264 -16.225  0.00  0.00    -0.377 OA
ATOM     16  H   UNL     1      37.690 -27.522 -16.682  0.00  0.00    +0.211 HD
ENDBRANCH  14  15
ENDBRANCH   9  14
TORSDOF 4
ENDMDL
MODEL 6
REMARK VINA RESULT:      -6.5      2.611      3.930
REMARK  Name = 5280980
REMARK  4 active torsions:
REMARK  status: ('A' for Active; 'I' for Inactive)
REMARK    1  A    between atoms: C_5  and  C_11
REMARK    2  A    between atoms: C_9  and  C_14
REMARK    3  A    between atoms: C_11  and  O_12
REMARK    4  A    between atoms: C_14  and  O_15
REMARK                            x       y       z     vdW  Elec       q    Type
REMARK                         _______ _______ _______ _____ _____    ______ ____
ROOT
ATOM      1  O   UNL     1      34.778 -23.048 -16.124  0.00  0.00    -0.462 OA
ATOM      2  O   UNL     1      34.304 -24.140 -12.127  0.00  0.00    -0.275 OA
ATOM      3  N   UNL     1      34.788 -24.652 -14.380  0.00  0.00    -0.232 N 
ATOM      4  C   UNL     1      33.963 -24.002 -15.401  0.00  0.00    +0.256 C 
ATOM      5  C   UNL     1      36.183 -24.404 -14.632  0.00  0.00    +0.234 C 
ATOM      6  C   UNL     1      33.055 -23.509 -14.261  0.00  0.00    +0.151 C 
ATOM      7  C   UNL     1      34.089 -24.151 -13.319  0.00  0.00    +0.234 C 
ATOM      8  C   UNL     1      36.089 -23.328 -15.690  0.00  0.00    +0.145 C 
ATOM      9  C   UNL     1      37.127 -22.631 -16.164  0.00  0.00    +0.040 C 
ENDROOT
BRANCH   5  11
ATOM     10  O   UNL     1      36.123 -26.579 -15.674  0.00  0.00    -0.248 OA
ATOM     11  C   UNL     1      36.768 -25.649 -15.213  0.00  0.00    +0.340 C 
BRANCH  11  12
ATOM     12  O   UNL     1      38.121 -25.611 -15.158  0.00  0.00    -0.479 OA
ATOM     13  H   UNL     1      38.605 -26.390 -14.961  0.00  0.00    +0.295 HD
ENDBRANCH  11  12
ENDBRANCH   5  11
BRANCH   9  14
ATOM     14  C   UNL     1      37.013 -21.571 -17.210  0.00  0.00    +0.166 C 
BRANCH  14  15
ATOM     15  O   UNL     1      36.273 -22.088 -18.306  0.00  0.00    -0.377 OA
ATOM     16  H   UNL     1      36.876 -22.290 -19.038  0.00  0.00    +0.211 HD
ENDBRANCH  14  15
ENDBRANCH   9  14
TORSDOF 4
ENDMDL
MODEL 7
REMARK VINA RESULT:      -6.4      1.960      4.708
REMARK  Name = 5280980
REMARK  4 active torsions:
REMARK  status: ('A' for Active; 'I' for Inactive)
REMARK    1  A    between atoms: C_5  and  C_11
REMARK    2  A    between atoms: C_9  and  C_14
REMARK    3  A    between atoms: C_11  and  O_12
REMARK    4  A    between atoms: C_14  and  O_15
REMARK                            x       y       z     vdW  Elec       q    Type
REMARK                         _______ _______ _______ _____ _____    ______ ____
ROOT
ATOM      1  O   UNL     1      35.802 -23.295 -14.391  0.00  0.00    -0.462 OA
ATOM      2  O   UNL     1      38.440 -26.497 -13.967  0.00  0.00    -0.275 OA
ATOM      3  N   UNL     1      37.383 -24.551 -13.151  0.00  0.00    -0.232 N 
ATOM      4  C   UNL     1      37.212 -23.443 -14.094  0.00  0.00    +0.256 C 
ATOM      5  C   UNL     1      36.118 -24.909 -12.567  0.00  0.00    +0.234 C 
ATOM      6  C   UNL     1      38.112 -24.220 -15.071  0.00  0.00    +0.151 C 
ATOM      7  C   UNL     1      38.091 -25.339 -14.014  0.00  0.00    +0.234 C 
ATOM      8  C   UNL     1      35.170 -24.135 -13.453  0.00  0.00    +0.145 C 
ATOM      9  C   UNL     1      33.837 -24.245 -13.427  0.00  0.00    +0.040 C 
ENDROOT
BRANCH   5  11
ATOM     10  O   UNL     1      36.725 -23.393 -10.791  0.00  0.00    -0.248 OA
ATOM     11  C   UNL     1      36.089 -24.363 -11.178  0.00  0.00    +0.340 C 
BRANCH  11  12
ATOM     12  O   UNL     1      35.257 -25.092 -10.394  0.00  0.00    -0.479 OA
ATOM     13  H   UNL     1      34.679 -25.720 -10.781  0.00  0.00    +0.295 HD
ENDBRANCH  11  12
ENDBRANCH   5  11
BRANCH   9  14
ATOM     14  C   UNL     1      32.918 -23.470 -14.312  0.00  0.00    +0.166 C 
BRANCH  14  15
ATOM     15  O   UNL     1      33.340 -23.626 -15.659  0.00  0.00    -0.377 OA
ATOM     16  H   UNL     1      34.266 -23.915 -15.677  0.00  0.00    +0.211 HD
ENDBRANCH  14  15
ENDBRANCH   9  14
TORSDOF 4
ENDMDL
MODEL 8
REMARK VINA RESULT:      -6.4     14.428     15.755
REMARK  Name = 5280980
REMARK  4 active torsions:
REMARK  status: ('A' for Active; 'I' for Inactive)
REMARK    1  A    between atoms: C_5  and  C_11
REMARK    2  A    between atoms: C_9  and  C_14
REMARK    3  A    between atoms: C_11  and  O_12
REMARK    4  A    between atoms: C_14  and  O_15
REMARK                            x       y       z     vdW  Elec       q    Type
REMARK                         _______ _______ _______ _____ _____    ______ ____
ROOT
ATOM      1  O   UNL     1      32.798 -12.965 -22.824  0.00  0.00    -0.462 OA
ATOM      2  O   UNL     1      35.058 -16.322 -21.815  0.00  0.00    -0.275 OA
ATOM      3  N   UNL     1      33.408 -15.238 -23.107  0.00  0.00    -0.232 N 
ATOM      4  C   UNL     1      32.509 -14.320 -22.403  0.00  0.00    +0.256 C 
ATOM      5  C   UNL     1      34.038 -14.567 -24.214  0.00  0.00    +0.234 C 
ATOM      6  C   UNL     1      33.107 -14.846 -21.087  0.00  0.00    +0.151 C 
ATOM      7  C   UNL     1      34.058 -15.661 -21.983  0.00  0.00    +0.234 C 
ATOM      8  C   UNL     1      33.669 -13.131 -23.919  0.00  0.00    +0.145 C 
ATOM      9  C   UNL     1      34.146 -12.069 -24.578  0.00  0.00    +0.040 C 
ENDROOT
BRANCH   5  11
ATOM     10  O   UNL     1      33.753 -15.946 -26.172  0.00  0.00    -0.248 OA
ATOM     11  C   UNL     1      33.366 -15.027 -25.465  0.00  0.00    +0.340 C 
BRANCH  11  12
ATOM     12  O   UNL     1      32.261 -14.283 -25.716  0.00  0.00    -0.479 OA
ATOM     13  H   UNL     1      31.784 -14.407 -26.513  0.00  0.00    +0.295 HD
ENDBRANCH  11  12
ENDBRANCH   5  11
BRANCH   9  14
ATOM     14  C   UNL     1      33.768 -10.658 -24.271  0.00  0.00    +0.166 C 
BRANCH  14  15
ATOM     15  O   UNL     1      34.935  -9.944 -23.893  0.00  0.00    -0.377 OA
ATOM     16  H   UNL     1      35.380  -9.606 -24.685  0.00  0.00    +0.211 HD
ENDBRANCH  14  15
ENDBRANCH   9  14
TORSDOF 4
ENDMDL
MODEL 9
REMARK VINA RESULT:      -6.4      9.773     11.513
REMARK  Name = 5280980
REMARK  4 active torsions:
REMARK  status: ('A' for Active; 'I' for Inactive)
REMARK    1  A    between atoms: C_5  and  C_11
REMARK    2  A    between atoms: C_9  and  C_14
REMARK    3  A    between atoms: C_11  and  O_12
REMARK    4  A    between atoms: C_14  and  O_15
REMARK                            x       y       z     vdW  Elec       q    Type
REMARK                         _______ _______ _______ _____ _____    ______ ____
ROOT
ATOM      1  O   UNL     1      33.193 -18.230 -20.800  0.00  0.00    -0.462 OA
ATOM      2  O   UNL     1      36.397 -20.840 -20.236  0.00  0.00    -0.275 OA
ATOM      3  N   UNL     1      34.850 -19.715 -21.618  0.00  0.00    -0.232 N 
ATOM      4  C   UNL     1      33.473 -19.613 -21.128  0.00  0.00    +0.256 C 
ATOM      5  C   UNL     1      35.363 -18.409 -21.938  0.00  0.00    +0.234 C 
ATOM      6  C   UNL     1      33.868 -20.590 -20.007  0.00  0.00    +0.151 C 
ATOM      7  C   UNL     1      35.291 -20.491 -20.585  0.00  0.00    +0.234 C 
ATOM      8  C   UNL     1      34.299 -17.530 -21.322  0.00  0.00    +0.145 C 
ATOM      9  C   UNL     1      34.379 -16.200 -21.207  0.00  0.00    +0.040 C 
ENDROOT
BRANCH   5  11
ATOM     10  O   UNL     1      35.025 -19.145 -24.210  0.00  0.00    -0.248 OA
ATOM     11  C   UNL     1      35.353 -18.269 -23.424  0.00  0.00    +0.340 C 
BRANCH  11  12
ATOM     12  O   UNL     1      35.761 -17.029 -23.790  0.00  0.00    -0.479 OA
ATOM     13  H   UNL     1      36.387 -16.926 -24.480  0.00  0.00    +0.295 HD
ENDBRANCH  11  12
ENDBRANCH   5  11
BRANCH   9  14
ATOM     14  C   UNL     1      33.316 -15.350 -20.595  0.00  0.00    +0.166 C 
BRANCH  14  15
ATOM     15  O   UNL     1      32.131 -15.470 -21.370  0.00  0.00    -0.377 OA
ATOM     16  H   UNL     1      32.012 -16.394 -21.637  0.00  0.00    +0.211 HD
ENDBRANCH  14  15
ENDBRANCH   9  14
TORSDOF 4
ENDMDL
