MODEL 1
REMARK VINA RESULT:      -5.9      0.000      0.000
REMARK  Name = 8924
REMARK  14 active torsions:
REMARK  status: ('A' for Active; 'I' for Inactive)
REMARK    1  A    between atoms: N_1  and  C_4
REMARK    2  A    between atoms: N_1  and  C_14
REMARK    3  A    between atoms: C_4  and  C_5
REMARK    4  A    between atoms: C_5  and  C_6
REMARK    5  A    between atoms: C_6  and  C_7
REMARK    6  A    between atoms: C_7  and  C_8
REMARK    7  A    between atoms: C_8  and  C_9
REMARK    8  A    between atoms: C_9  and  N_10
REMARK    9  A    between atoms: C_14  and  C_15
REMARK   10  A    between atoms: C_15  and  C_16
REMARK   11  A    between atoms: C_16  and  C_17
REMARK   12  A    between atoms: C_17  and  C_18
REMARK   13  A    between atoms: C_18  and  C_19
REMARK   14  A    between atoms: C_19  and  N_20
REMARK                            x       y       z     vdW  Elec       q    Type
REMARK                         _______ _______ _______ _____ _____    ______ ____
ROOT
ATOM      1  N   UNL     1      32.758 -22.255 -18.577  0.00  0.00    +0.384 N 
ATOM      2  H   UNL     1      32.164 -21.624 -18.039  0.00  0.00    -0.085 HD
ATOM      3  H   UNL     1      32.190 -22.864 -19.166  0.00  0.00    -0.085 HD
ENDROOT
BRANCH   1   4
ATOM      4  C   UNL     1      33.529 -23.083 -17.660  0.00  0.00    -0.082 C 
BRANCH   4   5
ATOM      5  C   UNL     1      32.753 -23.302 -16.363  0.00  0.00    -0.023 C 
BRANCH   5   6
ATOM      6  C   UNL     1      31.264 -22.996 -16.551  0.00  0.00    -0.002 C 
BRANCH   6   7
ATOM      7  C   UNL     1      30.548 -22.883 -15.203  0.00  0.00    -0.002 C 
BRANCH   7   8
ATOM      8  C   UNL     1      30.952 -23.973 -14.205  0.00  0.00    -0.024 C 
BRANCH   8   9
ATOM      9  C   UNL     1      30.373 -25.347 -14.545  0.00  0.00    -0.086 C 
BRANCH   9  10
ATOM     10  N   UNL     1      28.919 -25.320 -14.431  0.00  0.00    +0.380 N 
ATOM     11  H   UNL     1      28.638 -25.763 -13.556  0.00  0.00    -0.089 HD
ATOM     12  H   UNL     1      28.507 -25.825 -15.215  0.00  0.00    -0.089 HD
ATOM     13  H   UNL     1      28.595 -24.353 -14.441  0.00  0.00    -0.089 HD
ENDBRANCH   9  10
ENDBRANCH   8   9
ENDBRANCH   7   8
ENDBRANCH   6   7
ENDBRANCH   5   6
ENDBRANCH   4   5
ENDBRANCH   1   4
BRANCH   1  14
ATOM     14  C   UNL     1      33.638 -21.469 -19.434  0.00  0.00    -0.082 C 
BRANCH  14  15
ATOM     15  C   UNL     1      32.819 -20.527 -20.315  0.00  0.00    -0.023 C 
BRANCH  15  16
ATOM     16  C   UNL     1      33.711 -19.473 -20.976  0.00  0.00    -0.002 C 
BRANCH  16  17
ATOM     17  C   UNL     1      35.179 -19.905 -20.967  0.00  0.00    -0.002 C 
BRANCH  17  18
ATOM     18  C   UNL     1      36.154 -18.752 -21.227  0.00  0.00    -0.024 C 
BRANCH  18  19
ATOM     19  C   UNL     1      35.503 -17.559 -21.927  0.00  0.00    -0.086 C 
BRANCH  19  20
ATOM     20  N   UNL     1      35.833 -17.569 -23.348  0.00  0.00    +0.380 N 
ATOM     21  H   UNL     1      35.738 -16.627 -23.727  0.00  0.00    -0.089 HD
ATOM     22  H   UNL     1      35.200 -18.199 -23.840  0.00  0.00    -0.089 HD
ATOM     23  H   UNL     1      36.794 -17.890 -23.471  0.00  0.00    -0.089 HD
ENDBRANCH  19  20
ENDBRANCH  18  19
ENDBRANCH  17  18
ENDBRANCH  16  17
ENDBRANCH  15  16
ENDBRANCH  14  15
ENDBRANCH   1  14
TORSDOF 14
ENDMDL
MODEL 2
REMARK VINA RESULT:      -5.8      4.159      9.084
REMARK  Name = 8924
REMARK  14 active torsions:
REMARK  status: ('A' for Active; 'I' for Inactive)
REMARK    1  A    between atoms: N_1  and  C_4
REMARK    2  A    between atoms: N_1  and  C_14
REMARK    3  A    between atoms: C_4  and  C_5
REMARK    4  A    between atoms: C_5  and  C_6
REMARK    5  A    between atoms: C_6  and  C_7
REMARK    6  A    between atoms: C_7  and  C_8
REMARK    7  A    between atoms: C_8  and  C_9
REMARK    8  A    between atoms: C_9  and  N_10
REMARK    9  A    between atoms: C_14  and  C_15
REMARK   10  A    between atoms: C_15  and  C_16
REMARK   11  A    between atoms: C_16  and  C_17
REMARK   12  A    between atoms: C_17  and  C_18
REMARK   13  A    between atoms: C_18  and  C_19
REMARK   14  A    between atoms: C_19  and  N_20
REMARK                            x       y       z     vdW  Elec       q    Type
REMARK                         _______ _______ _______ _____ _____    ______ ____
ROOT
ATOM      1  N   UNL     1      35.216 -16.527 -24.098  0.00  0.00    +0.384 N 
ATOM      2  H   UNL     1      35.703 -16.738 -23.227  0.00  0.00    -0.085 HD
ATOM      3  H   UNL     1      35.881 -16.243 -24.817  0.00  0.00    -0.085 HD
ENDROOT
BRANCH   1   4
ATOM      4  C   UNL     1      34.282 -15.434 -23.870  0.00  0.00    -0.082 C 
BRANCH   4   5
ATOM      5  C   UNL     1      34.459 -14.870 -22.461  0.00  0.00    -0.023 C 
BRANCH   5   6
ATOM      6  C   UNL     1      33.462 -15.499 -21.485  0.00  0.00    -0.002 C 
BRANCH   6   7
ATOM      7  C   UNL     1      32.632 -14.427 -20.774  0.00  0.00    -0.002 C 
BRANCH   7   8
ATOM      8  C   UNL     1      32.197 -13.283 -21.696  0.00  0.00    -0.024 C 
BRANCH   8   9
ATOM      9  C   UNL     1      31.710 -12.049 -20.938  0.00  0.00    -0.086 C 
BRANCH   9  10
ATOM     10  N   UNL     1      30.647 -11.387 -21.686  0.00  0.00    +0.380 N 
ATOM     11  H   UNL     1      30.094 -10.809 -21.053  0.00  0.00    -0.089 HD
ATOM     12  H   UNL     1      30.047 -12.089 -22.118  0.00  0.00    -0.089 HD
ATOM     13  H   UNL     1      31.058 -10.798 -22.411  0.00  0.00    -0.089 HD
ENDBRANCH   9  10
ENDBRANCH   8   9
ENDBRANCH   7   8
ENDBRANCH   6   7
ENDBRANCH   5   6
ENDBRANCH   4   5
ENDBRANCH   1   4
BRANCH   1  14
ATOM     14  C   UNL     1      34.517 -17.722 -24.555  0.00  0.00    -0.082 C 
BRANCH  14  15
ATOM     15  C   UNL     1      35.061 -18.961 -23.845  0.00  0.00    -0.023 C 
BRANCH  15  16
ATOM     16  C   UNL     1      35.305 -18.684 -22.360  0.00  0.00    -0.002 C 
BRANCH  16  17
ATOM     17  C   UNL     1      34.271 -19.398 -21.486  0.00  0.00    -0.002 C 
BRANCH  17  18
ATOM     18  C   UNL     1      34.896 -20.308 -20.424  0.00  0.00    -0.024 C 
BRANCH  18  19
ATOM     19  C   UNL     1      33.889 -21.256 -19.774  0.00  0.00    -0.086 C 
BRANCH  19  20
ATOM     20  N   UNL     1      32.581 -20.617 -19.686  0.00  0.00    +0.380 N 
ATOM     21  H   UNL     1      32.127 -20.886 -18.813  0.00  0.00    -0.089 HD
ATOM     22  H   UNL     1      32.004 -20.913 -20.474  0.00  0.00    -0.089 HD
ATOM     23  H   UNL     1      32.695 -19.603 -19.711  0.00  0.00    -0.089 HD
ENDBRANCH  19  20
ENDBRANCH  18  19
ENDBRANCH  17  18
ENDBRANCH  16  17
ENDBRANCH  15  16
ENDBRANCH  14  15
ENDBRANCH   1  14
TORSDOF 14
ENDMDL
MODEL 3
REMARK VINA RESULT:      -5.8      3.915      7.081
REMARK  Name = 8924
REMARK  14 active torsions:
REMARK  status: ('A' for Active; 'I' for Inactive)
REMARK    1  A    between atoms: N_1  and  C_4
REMARK    2  A    between atoms: N_1  and  C_14
REMARK    3  A    between atoms: C_4  and  C_5
REMARK    4  A    between atoms: C_5  and  C_6
REMARK    5  A    between atoms: C_6  and  C_7
REMARK    6  A    between atoms: C_7  and  C_8
REMARK    7  A    between atoms: C_8  and  C_9
REMARK    8  A    between atoms: C_9  and  N_10
REMARK    9  A    between atoms: C_14  and  C_15
REMARK   10  A    between atoms: C_15  and  C_16
REMARK   11  A    between atoms: C_16  and  C_17
REMARK   12  A    between atoms: C_17  and  C_18
REMARK   13  A    between atoms: C_18  and  C_19
REMARK   14  A    between atoms: C_19  and  N_20
REMARK                            x       y       z     vdW  Elec       q    Type
REMARK                         _______ _______ _______ _____ _____    ______ ____
ROOT
ATOM      1  N   UNL     1      35.367 -16.787 -23.744  0.00  0.00    +0.384 N 
ATOM      2  H   UNL     1      35.509 -16.829 -24.753  0.00  0.00    -0.085 HD
ATOM      3  H   UNL     1      36.212 -16.456 -23.279  0.00  0.00    -0.085 HD
ENDROOT
BRANCH   1   4
ATOM      4  C   UNL     1      35.056 -18.120 -23.250  0.00  0.00    -0.082 C 
BRANCH   4   5
ATOM      5  C   UNL     1      35.986 -18.488 -22.094  0.00  0.00    -0.023 C 
BRANCH   5   6
ATOM      6  C   UNL     1      35.237 -19.268 -21.010  0.00  0.00    -0.002 C 
BRANCH   6   7
ATOM      7  C   UNL     1      33.722 -19.131 -21.176  0.00  0.00    -0.002 C 
BRANCH   7   8
ATOM      8  C   UNL     1      32.932 -20.268 -20.520  0.00  0.00    -0.024 C 
BRANCH   8   9
ATOM      9  C   UNL     1      33.807 -21.212 -19.696  0.00  0.00    -0.086 C 
BRANCH   9  10
ATOM     10  N   UNL     1      32.975 -22.189 -19.001  0.00  0.00    +0.380 N 
ATOM     11  H   UNL     1      32.603 -21.773 -18.148  0.00  0.00    -0.089 HD
ATOM     12  H   UNL     1      33.537 -23.007 -18.764  0.00  0.00    -0.089 HD
ATOM     13  H   UNL     1      32.204 -22.470 -19.606  0.00  0.00    -0.089 HD
ENDBRANCH   9  10
ENDBRANCH   8   9
ENDBRANCH   7   8
ENDBRANCH   6   7
ENDBRANCH   5   6
ENDBRANCH   4   5
ENDBRANCH   1   4
BRANCH   1  14
ATOM     14  C   UNL     1      34.282 -15.858 -23.454  0.00  0.00    -0.082 C 
BRANCH  14  15
ATOM     15  C   UNL     1      34.490 -15.210 -22.085  0.00  0.00    -0.023 C 
BRANCH  15  16
ATOM     16  C   UNL     1      33.293 -15.463 -21.166  0.00  0.00    -0.002 C 
BRANCH  16  17
ATOM     17  C   UNL     1      32.685 -14.147 -20.672  0.00  0.00    -0.002 C 
BRANCH  17  18
ATOM     18  C   UNL     1      32.213 -13.233 -21.807  0.00  0.00    -0.024 C 
BRANCH  18  19
ATOM     19  C   UNL     1      31.577 -11.934 -21.309  0.00  0.00    -0.086 C 
BRANCH  19  20
ATOM     20  N   UNL     1      31.705 -10.892 -22.322  0.00  0.00    +0.380 N 
ATOM     21  H   UNL     1      30.877 -10.296 -22.305  0.00  0.00    -0.089 HD
ATOM     22  H   UNL     1      31.796 -11.322 -23.243  0.00  0.00    -0.089 HD
ATOM     23  H   UNL     1      32.533 -10.329 -22.128  0.00  0.00    -0.089 HD
ENDBRANCH  19  20
ENDBRANCH  18  19
ENDBRANCH  17  18
ENDBRANCH  16  17
ENDBRANCH  15  16
ENDBRANCH  14  15
ENDBRANCH   1  14
TORSDOF 14
ENDMDL
MODEL 4
REMARK VINA RESULT:      -5.8      0.911      8.608
REMARK  Name = 8924
REMARK  14 active torsions:
REMARK  status: ('A' for Active; 'I' for Inactive)
REMARK    1  A    between atoms: N_1  and  C_4
REMARK    2  A    between atoms: N_1  and  C_14
REMARK    3  A    between atoms: C_4  and  C_5
REMARK    4  A    between atoms: C_5  and  C_6
REMARK    5  A    between atoms: C_6  and  C_7
REMARK    6  A    between atoms: C_7  and  C_8
REMARK    7  A    between atoms: C_8  and  C_9
REMARK    8  A    between atoms: C_9  and  N_10
REMARK    9  A    between atoms: C_14  and  C_15
REMARK   10  A    between atoms: C_15  and  C_16
REMARK   11  A    between atoms: C_16  and  C_17
REMARK   12  A    between atoms: C_17  and  C_18
REMARK   13  A    between atoms: C_18  and  C_19
REMARK   14  A    between atoms: C_19  and  N_20
REMARK                            x       y       z     vdW  Elec       q    Type
REMARK                         _______ _______ _______ _____ _____    ______ ____
ROOT
ATOM      1  N   UNL     1      32.717 -22.217 -18.662  0.00  0.00    +0.384 N 
ATOM      2  H   UNL     1      32.102 -22.734 -19.290  0.00  0.00    -0.085 HD
ATOM      3  H   UNL     1      32.176 -21.581 -18.076  0.00  0.00    -0.085 HD
ENDROOT
BRANCH   1   4
ATOM      4  C   UNL     1      33.657 -21.435 -19.452  0.00  0.00    -0.082 C 
BRANCH   4   5
ATOM      5  C   UNL     1      35.092 -21.859 -19.140  0.00  0.00    -0.023 C 
BRANCH   5   6
ATOM      6  C   UNL     1      36.099 -21.026 -19.938  0.00  0.00    -0.002 C 
BRANCH   6   7
ATOM      7  C   UNL     1      35.388 -20.045 -20.874  0.00  0.00    -0.002 C 
BRANCH   7   8
ATOM      8  C   UNL     1      36.195 -18.771 -21.146  0.00  0.00    -0.024 C 
BRANCH   8   9
ATOM      9  C   UNL     1      35.360 -17.650 -21.765  0.00  0.00    -0.086 C 
BRANCH   9  10
ATOM     10  N   UNL     1      35.807 -17.385 -23.129  0.00  0.00    +0.380 N 
ATOM     11  H   UNL     1      35.002 -17.372 -23.754  0.00  0.00    -0.089 HD
ATOM     12  H   UNL     1      36.454 -18.117 -23.423  0.00  0.00    -0.089 HD
ATOM     13  H   UNL     1      36.278 -16.481 -23.163  0.00  0.00    -0.089 HD
ENDBRANCH   9  10
ENDBRANCH   8   9
ENDBRANCH   7   8
ENDBRANCH   6   7
ENDBRANCH   5   6
ENDBRANCH   4   5
ENDBRANCH   1   4
BRANCH   1  14
ATOM     14  C   UNL     1      33.420 -23.159 -17.799  0.00  0.00    -0.082 C 
BRANCH  14  15
ATOM     15  C   UNL     1      32.660 -23.347 -16.487  0.00  0.00    -0.023 C 
BRANCH  15  16
ATOM     16  C   UNL     1      31.238 -22.790 -16.587  0.00  0.00    -0.002 C 
BRANCH  16  17
ATOM     17  C   UNL     1      30.470 -22.992 -15.278  0.00  0.00    -0.002 C 
BRANCH  17  18
ATOM     18  C   UNL     1      29.125 -23.702 -15.465  0.00  0.00    -0.024 C 
BRANCH  18  19
ATOM     19  C   UNL     1      29.079 -25.086 -14.818  0.00  0.00    -0.086 C 
BRANCH  19  20
ATOM     20  N   UNL     1      30.249 -25.284 -13.970  0.00  0.00    +0.380 N 
ATOM     21  H   UNL     1      30.221 -26.219 -13.563  0.00  0.00    -0.089 HD
ATOM     22  H   UNL     1      30.251 -24.588 -13.225  0.00  0.00    -0.089 HD
ATOM     23  H   UNL     1      31.096 -25.184 -14.531  0.00  0.00    -0.089 HD
ENDBRANCH  19  20
ENDBRANCH  18  19
ENDBRANCH  17  18
ENDBRANCH  16  17
ENDBRANCH  15  16
ENDBRANCH  14  15
ENDBRANCH   1  14
TORSDOF 14
ENDMDL
MODEL 5
REMARK VINA RESULT:      -5.8      1.197      8.862
REMARK  Name = 8924
REMARK  14 active torsions:
REMARK  status: ('A' for Active; 'I' for Inactive)
REMARK    1  A    between atoms: N_1  and  C_4
REMARK    2  A    between atoms: N_1  and  C_14
REMARK    3  A    between atoms: C_4  and  C_5
REMARK    4  A    between atoms: C_5  and  C_6
REMARK    5  A    between atoms: C_6  and  C_7
REMARK    6  A    between atoms: C_7  and  C_8
REMARK    7  A    between atoms: C_8  and  C_9
REMARK    8  A    between atoms: C_9  and  N_10
REMARK    9  A    between atoms: C_14  and  C_15
REMARK   10  A    between atoms: C_15  and  C_16
REMARK   11  A    between atoms: C_16  and  C_17
REMARK   12  A    between atoms: C_17  and  C_18
REMARK   13  A    between atoms: C_18  and  C_19
REMARK   14  A    between atoms: C_19  and  N_20
REMARK                            x       y       z     vdW  Elec       q    Type
REMARK                         _______ _______ _______ _____ _____    ______ ____
ROOT
ATOM      1  N   UNL     1      32.754 -21.670 -19.155  0.00  0.00    +0.384 N 
ATOM      2  H   UNL     1      32.083 -22.291 -19.608  0.00  0.00    -0.085 HD
ATOM      3  H   UNL     1      32.312 -21.169 -18.385  0.00  0.00    -0.085 HD
ENDROOT
BRANCH   1   4
ATOM      4  C   UNL     1      33.235 -20.698 -20.127  0.00  0.00    -0.082 C 
BRANCH   4   5
ATOM      5  C   UNL     1      34.763 -20.659 -20.126  0.00  0.00    -0.023 C 
BRANCH   5   6
ATOM      6  C   UNL     1      35.286 -19.507 -20.987  0.00  0.00    -0.002 C 
BRANCH   6   7
ATOM      7  C   UNL     1      34.310 -19.174 -22.119  0.00  0.00    -0.002 C 
BRANCH   7   8
ATOM      8  C   UNL     1      34.979 -19.097 -23.496  0.00  0.00    -0.024 C 
BRANCH   8   9
ATOM      9  C   UNL     1      34.715 -17.778 -24.221  0.00  0.00    -0.086 C 
BRANCH   9  10
ATOM     10  N   UNL     1      35.574 -16.729 -23.682  0.00  0.00    +0.380 N 
ATOM     11  H   UNL     1      36.351 -17.152 -23.174  0.00  0.00    -0.089 HD
ATOM     12  H   UNL     1      35.034 -16.140 -23.048  0.00  0.00    -0.089 HD
ATOM     13  H   UNL     1      35.938 -16.161 -24.447  0.00  0.00    -0.089 HD
ENDBRANCH   9  10
ENDBRANCH   8   9
ENDBRANCH   7   8
ENDBRANCH   6   7
ENDBRANCH   5   6
ENDBRANCH   4   5
ENDBRANCH   1   4
BRANCH   1  14
ATOM     14  C   UNL     1      33.856 -22.463 -18.623  0.00  0.00    -0.082 C 
BRANCH  14  15
ATOM     15  C   UNL     1      33.344 -23.442 -17.567  0.00  0.00    -0.023 C 
BRANCH  15  16
ATOM     16  C   UNL     1      32.058 -22.930 -16.915  0.00  0.00    -0.002 C 
BRANCH  16  17
ATOM     17  C   UNL     1      32.033 -23.244 -15.417  0.00  0.00    -0.002 C 
BRANCH  17  18
ATOM     18  C   UNL     1      30.617 -23.386 -14.849  0.00  0.00    -0.024 C 
BRANCH  18  19
ATOM     19  C   UNL     1      30.482 -24.531 -13.845  0.00  0.00    -0.086 C 
BRANCH  19  20
ATOM     20  N   UNL     1      29.560 -25.540 -14.354  0.00  0.00    +0.380 N 
ATOM     21  H   UNL     1      28.939 -25.118 -15.045  0.00  0.00    -0.089 HD
ATOM     22  H   UNL     1      29.007 -25.916 -13.584  0.00  0.00    -0.089 HD
ATOM     23  H   UNL     1      30.090 -26.295 -14.791  0.00  0.00    -0.089 HD
ENDBRANCH  19  20
ENDBRANCH  18  19
ENDBRANCH  17  18
ENDBRANCH  16  17
ENDBRANCH  15  16
ENDBRANCH  14  15
ENDBRANCH   1  14
TORSDOF 14
ENDMDL
MODEL 6
REMARK VINA RESULT:      -5.7      1.312      8.325
REMARK  Name = 8924
REMARK  14 active torsions:
REMARK  status: ('A' for Active; 'I' for Inactive)
REMARK    1  A    between atoms: N_1  and  C_4
REMARK    2  A    between atoms: N_1  and  C_14
REMARK    3  A    between atoms: C_4  and  C_5
REMARK    4  A    between atoms: C_5  and  C_6
REMARK    5  A    between atoms: C_6  and  C_7
REMARK    6  A    between atoms: C_7  and  C_8
REMARK    7  A    between atoms: C_8  and  C_9
REMARK    8  A    between atoms: C_9  and  N_10
REMARK    9  A    between atoms: C_14  and  C_15
REMARK   10  A    between atoms: C_15  and  C_16
REMARK   11  A    between atoms: C_16  and  C_17
REMARK   12  A    between atoms: C_17  and  C_18
REMARK   13  A    between atoms: C_18  and  C_19
REMARK   14  A    between atoms: C_19  and  N_20
REMARK                            x       y       z     vdW  Elec       q    Type
REMARK                         _______ _______ _______ _____ _____    ______ ____
ROOT
ATOM      1  N   UNL     1      33.459 -22.920 -18.996  0.00  0.00    +0.384 N 
ATOM      2  H   UNL     1      33.942 -23.679 -19.476  0.00  0.00    -0.085 HD
ATOM      3  H   UNL     1      32.488 -22.865 -19.303  0.00  0.00    -0.085 HD
ENDROOT
BRANCH   1   4
ATOM      4  C   UNL     1      34.118 -21.660 -19.312  0.00  0.00    -0.082 C 
BRANCH   4   5
ATOM      5  C   UNL     1      33.133 -20.697 -19.973  0.00  0.00    -0.023 C 
BRANCH   5   6
ATOM      6  C   UNL     1      33.863 -19.675 -20.849  0.00  0.00    -0.002 C 
BRANCH   6   7
ATOM      7  C   UNL     1      35.364 -19.969 -20.907  0.00  0.00    -0.002 C 
BRANCH   7   8
ATOM      8  C   UNL     1      36.215 -18.733 -21.219  0.00  0.00    -0.024 C 
BRANCH   8   9
ATOM      9  C   UNL     1      35.473 -17.684 -22.047  0.00  0.00    -0.086 C 
BRANCH   9  10
ATOM     10  N   UNL     1      35.777 -17.856 -23.464  0.00  0.00    +0.380 N 
ATOM     11  H   UNL     1      36.290 -17.043 -23.803  0.00  0.00    -0.089 HD
ATOM     12  H   UNL     1      34.908 -17.954 -23.989  0.00  0.00    -0.089 HD
ATOM     13  H   UNL     1      36.347 -18.693 -23.590  0.00  0.00    -0.089 HD
ENDBRANCH   9  10
ENDBRANCH   8   9
ENDBRANCH   7   8
ENDBRANCH   6   7
ENDBRANCH   5   6
ENDBRANCH   4   5
ENDBRANCH   1   4
BRANCH   1  14
ATOM     14  C   UNL     1      33.480 -23.172 -17.560  0.00  0.00    -0.082 C 
BRANCH  14  15
ATOM     15  C   UNL     1      32.075 -23.027 -16.975  0.00  0.00    -0.023 C 
BRANCH  15  16
ATOM     16  C   UNL     1      32.092 -23.181 -15.453  0.00  0.00    -0.002 C 
BRANCH  16  17
ATOM     17  C   UNL     1      30.683 -23.049 -14.867  0.00  0.00    -0.002 C 
BRANCH  17  18
ATOM     18  C   UNL     1      29.684 -24.050 -15.455  0.00  0.00    -0.024 C 
BRANCH  18  19
ATOM     19  C   UNL     1      28.367 -23.405 -15.887  0.00  0.00    -0.086 C 
BRANCH  19  20
ATOM     20  N   UNL     1      28.470 -22.921 -17.259  0.00  0.00    +0.380 N 
ATOM     21  H   UNL     1      29.453 -22.795 -17.504  0.00  0.00    -0.089 HD
ATOM     22  H   UNL     1      27.981 -22.030 -17.344  0.00  0.00    -0.089 HD
ATOM     23  H   UNL     1      28.047 -23.602 -17.892  0.00  0.00    -0.089 HD
ENDBRANCH  19  20
ENDBRANCH  18  19
ENDBRANCH  17  18
ENDBRANCH  16  17
ENDBRANCH  15  16
ENDBRANCH  14  15
ENDBRANCH   1  14
TORSDOF 14
ENDMDL
MODEL 7
REMARK VINA RESULT:      -5.7      3.579      9.087
REMARK  Name = 8924
REMARK  14 active torsions:
REMARK  status: ('A' for Active; 'I' for Inactive)
REMARK    1  A    between atoms: N_1  and  C_4
REMARK    2  A    between atoms: N_1  and  C_14
REMARK    3  A    between atoms: C_4  and  C_5
REMARK    4  A    between atoms: C_5  and  C_6
REMARK    5  A    between atoms: C_6  and  C_7
REMARK    6  A    between atoms: C_7  and  C_8
REMARK    7  A    between atoms: C_8  and  C_9
REMARK    8  A    between atoms: C_9  and  N_10
REMARK    9  A    between atoms: C_14  and  C_15
REMARK   10  A    between atoms: C_15  and  C_16
REMARK   11  A    between atoms: C_16  and  C_17
REMARK   12  A    between atoms: C_17  and  C_18
REMARK   13  A    between atoms: C_18  and  C_19
REMARK   14  A    between atoms: C_19  and  N_20
REMARK                            x       y       z     vdW  Elec       q    Type
REMARK                         _______ _______ _______ _____ _____    ______ ____
ROOT
ATOM      1  N   UNL     1      34.966 -16.898 -20.604  0.00  0.00    +0.384 N 
ATOM      2  H   UNL     1      34.125 -17.304 -20.194  0.00  0.00    -0.085 HD
ATOM      3  H   UNL     1      35.764 -17.030 -19.983  0.00  0.00    -0.085 HD
ENDROOT
BRANCH   1   4
ATOM      4  C   UNL     1      34.760 -15.471 -20.801  0.00  0.00    -0.082 C 
BRANCH   4   5
ATOM      5  C   UNL     1      33.318 -15.091 -20.466  0.00  0.00    -0.023 C 
BRANCH   5   6
ATOM      6  C   UNL     1      32.466 -14.987 -21.733  0.00  0.00    -0.002 C 
BRANCH   6   7
ATOM      7  C   UNL     1      32.500 -13.568 -22.308  0.00  0.00    -0.002 C 
BRANCH   7   8
ATOM      8  C   UNL     1      33.387 -13.436 -23.550  0.00  0.00    -0.024 C 
BRANCH   8   9
ATOM      9  C   UNL     1      33.492 -14.730 -24.357  0.00  0.00    -0.086 C 
BRANCH   9  10
ATOM     10  N   UNL     1      32.857 -14.560 -25.660  0.00  0.00    +0.380 N 
ATOM     11  H   UNL     1      32.112 -15.248 -25.767  0.00  0.00    -0.089 HD
ATOM     12  H   UNL     1      33.551 -14.693 -26.396  0.00  0.00    -0.089 HD
ATOM     13  H   UNL     1      32.465 -13.621 -25.728  0.00  0.00    -0.089 HD
ENDBRANCH   9  10
ENDBRANCH   8   9
ENDBRANCH   7   8
ENDBRANCH   6   7
ENDBRANCH   5   6
ENDBRANCH   4   5
ENDBRANCH   1   4
BRANCH   1  14
ATOM     14  C   UNL     1      35.249 -17.563 -21.871  0.00  0.00    -0.082 C 
BRANCH  14  15
ATOM     15  C   UNL     1      34.544 -18.917 -21.929  0.00  0.00    -0.023 C 
BRANCH  15  16
ATOM     16  C   UNL     1      33.401 -18.990 -20.914  0.00  0.00    -0.002 C 
BRANCH  16  17
ATOM     17  C   UNL     1      33.202 -20.420 -20.405  0.00  0.00    -0.002 C 
BRANCH  17  18
ATOM     18  C   UNL     1      34.491 -21.064 -19.883  0.00  0.00    -0.024 C 
BRANCH  18  19
ATOM     19  C   UNL     1      34.238 -22.204 -18.896  0.00  0.00    -0.086 C 
BRANCH  19  20
ATOM     20  N   UNL     1      32.807 -22.351 -18.653  0.00  0.00    +0.380 N 
ATOM     21  H   UNL     1      32.446 -23.129 -19.204  0.00  0.00    -0.089 HD
ATOM     22  H   UNL     1      32.327 -21.492 -18.922  0.00  0.00    -0.089 HD
ATOM     23  H   UNL     1      32.647 -22.533 -17.662  0.00  0.00    -0.089 HD
ENDBRANCH  19  20
ENDBRANCH  18  19
ENDBRANCH  17  18
ENDBRANCH  16  17
ENDBRANCH  15  16
ENDBRANCH  14  15
ENDBRANCH   1  14
TORSDOF 14
ENDMDL
MODEL 8
REMARK VINA RESULT:      -5.7      1.489      1.547
REMARK  Name = 8924
REMARK  14 active torsions:
REMARK  status: ('A' for Active; 'I' for Inactive)
REMARK    1  A    between atoms: N_1  and  C_4
REMARK    2  A    between atoms: N_1  and  C_14
REMARK    3  A    between atoms: C_4  and  C_5
REMARK    4  A    between atoms: C_5  and  C_6
REMARK    5  A    between atoms: C_6  and  C_7
REMARK    6  A    between atoms: C_7  and  C_8
REMARK    7  A    between atoms: C_8  and  C_9
REMARK    8  A    between atoms: C_9  and  N_10
REMARK    9  A    between atoms: C_14  and  C_15
REMARK   10  A    between atoms: C_15  and  C_16
REMARK   11  A    between atoms: C_16  and  C_17
REMARK   12  A    between atoms: C_17  and  C_18
REMARK   13  A    between atoms: C_18  and  C_19
REMARK   14  A    between atoms: C_19  and  N_20
REMARK                            x       y       z     vdW  Elec       q    Type
REMARK                         _______ _______ _______ _____ _____    ______ ____
ROOT
ATOM      1  N   UNL     1      32.832 -22.020 -18.875  0.00  0.00    +0.384 N 
ATOM      2  H   UNL     1      32.526 -21.360 -18.160  0.00  0.00    -0.085 HD
ATOM      3  H   UNL     1      32.028 -22.443 -19.337  0.00  0.00    -0.085 HD
ENDROOT
BRANCH   1   4
ATOM      4  C   UNL     1      33.614 -23.075 -18.246  0.00  0.00    -0.082 C 
BRANCH   4   5
ATOM      5  C   UNL     1      33.136 -23.308 -16.814  0.00  0.00    -0.023 C 
BRANCH   5   6
ATOM      6  C   UNL     1      31.637 -23.031 -16.680  0.00  0.00    -0.002 C 
BRANCH   6   7
ATOM      7  C   UNL     1      31.215 -22.964 -15.209  0.00  0.00    -0.002 C 
BRANCH   7   8
ATOM      8  C   UNL     1      30.351 -24.150 -14.769  0.00  0.00    -0.024 C 
BRANCH   8   9
ATOM      9  C   UNL     1      30.908 -24.882 -13.549  0.00  0.00    -0.086 C 
BRANCH   9  10
ATOM     10  N   UNL     1      32.324 -25.177 -13.744  0.00  0.00    +0.380 N 
ATOM     11  H   UNL     1      32.451 -25.662 -14.631  0.00  0.00    -0.089 HD
ATOM     12  H   UNL     1      32.656 -25.768 -12.982  0.00  0.00    -0.089 HD
ATOM     13  H   UNL     1      32.854 -24.305 -13.754  0.00  0.00    -0.089 HD
ENDBRANCH   9  10
ENDBRANCH   8   9
ENDBRANCH   7   8
ENDBRANCH   6   7
ENDBRANCH   5   6
ENDBRANCH   4   5
ENDBRANCH   1   4
BRANCH   1  14
ATOM     14  C   UNL     1      33.623 -21.311 -19.874  0.00  0.00    -0.082 C 
BRANCH  14  15
ATOM     15  C   UNL     1      32.834 -20.129 -20.435  0.00  0.00    -0.023 C 
BRANCH  15  16
ATOM     16  C   UNL     1      33.770 -19.041 -20.967  0.00  0.00    -0.002 C 
BRANCH  16  17
ATOM     17  C   UNL     1      34.550 -19.532 -22.189  0.00  0.00    -0.002 C 
BRANCH  17  18
ATOM     18  C   UNL     1      35.109 -18.394 -23.050  0.00  0.00    -0.024 C 
BRANCH  18  19
ATOM     19  C   UNL     1      34.826 -18.572 -24.542  0.00  0.00    -0.086 C 
BRANCH  19  20
ATOM     20  N   UNL     1      34.751 -17.271 -25.197  0.00  0.00    +0.380 N 
ATOM     21  H   UNL     1      33.777 -16.973 -25.255  0.00  0.00    -0.089 HD
ATOM     22  H   UNL     1      35.142 -17.340 -26.137  0.00  0.00    -0.089 HD
ATOM     23  H   UNL     1      35.284 -16.587 -24.658  0.00  0.00    -0.089 HD
ENDBRANCH  19  20
ENDBRANCH  18  19
ENDBRANCH  17  18
ENDBRANCH  16  17
ENDBRANCH  15  16
ENDBRANCH  14  15
ENDBRANCH   1  14
TORSDOF 14
ENDMDL
MODEL 9
REMARK VINA RESULT:      -5.7      4.832      8.880
REMARK  Name = 8924
REMARK  14 active torsions:
REMARK  status: ('A' for Active; 'I' for Inactive)
REMARK    1  A    between atoms: N_1  and  C_4
REMARK    2  A    between atoms: N_1  and  C_14
REMARK    3  A    between atoms: C_4  and  C_5
REMARK    4  A    between atoms: C_5  and  C_6
REMARK    5  A    between atoms: C_6  and  C_7
REMARK    6  A    between atoms: C_7  and  C_8
REMARK    7  A    between atoms: C_8  and  C_9
REMARK    8  A    between atoms: C_9  and  N_10
REMARK    9  A    between atoms: C_14  and  C_15
REMARK   10  A    between atoms: C_15  and  C_16
REMARK   11  A    between atoms: C_16  and  C_17
REMARK   12  A    between atoms: C_17  and  C_18
REMARK   13  A    between atoms: C_18  and  C_19
REMARK   14  A    between atoms: C_19  and  N_20
REMARK                            x       y       z     vdW  Elec       q    Type
REMARK                         _______ _______ _______ _____ _____    ______ ____
ROOT
ATOM      1  N   UNL     1      35.309 -17.500 -20.687  0.00  0.00    +0.384 N 
ATOM      2  H   UNL     1      34.695 -17.989 -20.036  0.00  0.00    -0.085 HD
ATOM      3  H   UNL     1      36.056 -17.023 -20.183  0.00  0.00    -0.085 HD
ENDROOT
BRANCH   1   4
ATOM      4  C   UNL     1      34.535 -16.508 -21.420  0.00  0.00    -0.082 C 
BRANCH   4   5
ATOM      5  C   UNL     1      34.334 -15.256 -20.566  0.00  0.00    -0.023 C 
BRANCH   5   6
ATOM      6  C   UNL     1      32.967 -14.620 -20.834  0.00  0.00    -0.002 C 
BRANCH   6   7
ATOM      7  C   UNL     1      32.790 -14.291 -22.318  0.00  0.00    -0.002 C 
BRANCH   7   8
ATOM      8  C   UNL     1      32.094 -12.949 -22.566  0.00  0.00    -0.024 C 
BRANCH   8   9
ATOM      9  C   UNL     1      31.754 -12.200 -21.278  0.00  0.00    -0.086 C 
BRANCH   9  10
ATOM     10  N   UNL     1      30.526 -11.431 -21.454  0.00  0.00    +0.380 N 
ATOM     11  H   UNL     1      30.555 -10.946 -22.351  0.00  0.00    -0.089 HD
ATOM     12  H   UNL     1      30.441 -10.748 -20.701  0.00  0.00    -0.089 HD
ATOM     13  H   UNL     1      29.725 -12.061 -21.435  0.00  0.00    -0.089 HD
ENDBRANCH   9  10
ENDBRANCH   8   9
ENDBRANCH   7   8
ENDBRANCH   6   7
ENDBRANCH   5   6
ENDBRANCH   4   5
ENDBRANCH   1   4
BRANCH   1  14
ATOM     14  C   UNL     1      35.908 -18.468 -21.598  0.00  0.00    -0.082 C 
BRANCH  14  15
ATOM     15  C   UNL     1      35.013 -19.700 -21.728  0.00  0.00    -0.023 C 
BRANCH  15  16
ATOM     16  C   UNL     1      34.353 -20.046 -20.391  0.00  0.00    -0.002 C 
BRANCH  16  17
ATOM     17  C   UNL     1      34.941 -21.330 -19.799  0.00  0.00    -0.002 C 
BRANCH  17  18
ATOM     18  C   UNL     1      36.377 -21.164 -19.292  0.00  0.00    -0.024 C 
BRANCH  18  19
ATOM     19  C   UNL     1      36.591 -21.734 -17.890  0.00  0.00    -0.086 C 
BRANCH  19  20
ATOM     20  N   UNL     1      37.305 -20.770 -17.060  0.00  0.00    +0.380 N 
ATOM     21  H   UNL     1      38.306 -20.962 -17.098  0.00  0.00    -0.089 HD
ATOM     22  H   UNL     1      36.981 -20.845 -16.096  0.00  0.00    -0.089 HD
ATOM     23  H   UNL     1      37.127 -19.826 -17.404  0.00  0.00    -0.089 HD
ENDBRANCH  19  20
ENDBRANCH  18  19
ENDBRANCH  17  18
ENDBRANCH  16  17
ENDBRANCH  15  16
ENDBRANCH  14  15
ENDBRANCH   1  14
TORSDOF 14
ENDMDL
