MODEL 1
REMARK VINA RESULT:      -9.7      0.000      0.000
REMARK  Name = 447959
REMARK  3 active torsions:
REMARK  status: ('A' for Active; 'I' for Inactive)
REMARK    1  A    between atoms: N_1  and  C_16
REMARK    2  A    between atoms: C_4  and  C_11
REMARK    3  A    between atoms: C_19  and  O_22
REMARK                            x       y       z     vdW  Elec       q    Type
REMARK                         _______ _______ _______ _____ _____    ______ ____
ROOT
ATOM      1  N   UNL     1      34.856 -17.735 -24.254  0.00  0.00    -0.247 N 
ATOM      2  N   UNL     1      33.793 -15.788 -23.486  0.00  0.00    -0.341 NA
ATOM      3  N   UNL     1      34.096 -16.188 -25.845  0.00  0.00    -0.170 NA
ATOM      4  C   UNL     1      33.188 -14.624 -23.800  0.00  0.00    +0.140 C 
ATOM      5  C   UNL     1      34.219 -16.513 -24.541  0.00  0.00    +0.148 C 
ATOM      6  C   UNL     1      33.002 -14.179 -25.093  0.00  0.00    +0.051 C 
ATOM      7  C   UNL     1      33.481 -15.011 -26.085  0.00  0.00    +0.114 C 
ATOM      8  H   UNL     1      35.149 -18.227 -25.054  0.00  0.00    +0.165 HD
ENDROOT
BRANCH   4  11
ATOM      9  S   UNL     1      32.286 -12.214 -22.879  0.00  0.00    -0.074 S 
ATOM     10  N   UNL     1      32.120 -13.216 -20.502  0.00  0.00    -0.407 NA
ATOM     11  C   UNL     1      32.738 -13.857 -22.669  0.00  0.00    +0.155 C 
ATOM     12  C   UNL     1      32.583 -14.209 -21.343  0.00  0.00    +0.104 C 
ATOM     13  C   UNL     1      31.929 -12.120 -21.203  0.00  0.00    +0.135 C 
ATOM     14  C   UNL     1      32.862 -15.536 -20.754  0.00  0.00    +0.063 C 
ATOM     15  C   UNL     1      31.432 -10.844 -20.645  0.00  0.00    +0.074 C 
ENDBRANCH   4  11
BRANCH   1  16
ATOM     16  C   UNL     1      35.158 -18.393 -23.043  0.00  0.00    +0.061 C 
ATOM     17  C   UNL     1      34.176 -19.140 -22.391  0.00  0.00    +0.052 C 
ATOM     18  C   UNL     1      36.438 -18.295 -22.497  0.00  0.00    +0.015 C 
ATOM     19  C   UNL     1      34.476 -19.790 -21.194  0.00  0.00    +0.135 C 
ATOM     20  C   UNL     1      36.737 -18.945 -21.299  0.00  0.00    +0.004 C 
ATOM     21  C   UNL     1      35.756 -19.693 -20.648  0.00  0.00    +0.037 C 
BRANCH  19  22
ATOM     22  O   UNL     1      33.519 -20.519 -20.557  0.00  0.00    -0.505 OA
ATOM     23  H   UNL     1      33.605 -20.708 -19.643  0.00  0.00    +0.292 HD
ENDBRANCH  19  22
ENDBRANCH   1  16
TORSDOF 3
ENDMDL
MODEL 2
REMARK VINA RESULT:      -9.6      7.210     10.629
REMARK  Name = 447959
REMARK  3 active torsions:
REMARK  status: ('A' for Active; 'I' for Inactive)
REMARK    1  A    between atoms: N_1  and  C_16
REMARK    2  A    between atoms: C_4  and  C_11
REMARK    3  A    between atoms: C_19  and  O_22
REMARK                            x       y       z     vdW  Elec       q    Type
REMARK                         _______ _______ _______ _____ _____    ______ ____
ROOT
ATOM      1  N   UNL     1      32.693 -22.109 -18.404  0.00  0.00    -0.247 N 
ATOM      2  N   UNL     1      34.289 -23.000 -16.933  0.00  0.00    -0.341 NA
ATOM      3  N   UNL     1      31.935 -23.389 -16.590  0.00  0.00    -0.170 NA
ATOM      4  C   UNL     1      34.533 -23.732 -15.826  0.00  0.00    +0.140 C 
ATOM      5  C   UNL     1      32.987 -22.868 -17.255  0.00  0.00    +0.148 C 
ATOM      6  C   UNL     1      33.546 -24.317 -15.060  0.00  0.00    +0.051 C 
ATOM      7  C   UNL     1      32.252 -24.111 -15.494  0.00  0.00    +0.114 C 
ATOM      8  H   UNL     1      31.730 -22.041 -18.598  0.00  0.00    +0.165 HD
ENDROOT
BRANCH   4  11
ATOM      9  S   UNL     1      36.466 -25.261 -14.642  0.00  0.00    -0.074 S 
ATOM     10  N   UNL     1      38.223 -23.471 -15.266  0.00  0.00    -0.407 NA
ATOM     11  C   UNL     1      35.925 -23.868 -15.489  0.00  0.00    +0.155 C 
ATOM     12  C   UNL     1      36.999 -23.034 -15.732  0.00  0.00    +0.104 C 
ATOM     13  C   UNL     1      38.062 -24.635 -14.675  0.00  0.00    +0.135 C 
ATOM     14  C   UNL     1      36.953 -21.736 -16.437  0.00  0.00    +0.063 C 
ATOM     15  C   UNL     1      39.154 -25.417 -14.055  0.00  0.00    +0.074 C 
ENDBRANCH   4  11
BRANCH   1  16
ATOM     16  C   UNL     1      33.508 -21.427 -19.332  0.00  0.00    +0.061 C 
ATOM     17  C   UNL     1      34.879 -21.680 -19.375  0.00  0.00    +0.052 C 
ATOM     18  C   UNL     1      32.942 -20.499 -20.206  0.00  0.00    +0.015 C 
ATOM     19  C   UNL     1      35.683 -21.005 -20.293  0.00  0.00    +0.135 C 
ATOM     20  C   UNL     1      33.747 -19.824 -21.124  0.00  0.00    +0.004 C 
ATOM     21  C   UNL     1      35.117 -20.077 -21.167  0.00  0.00    +0.037 C 
BRANCH  19  22
ATOM     22  O   UNL     1      37.022 -21.250 -20.335  0.00  0.00    -0.505 OA
ATOM     23  H   UNL     1      37.564 -20.786 -20.942  0.00  0.00    +0.292 HD
ENDBRANCH  19  22
ENDBRANCH   1  16
TORSDOF 3
ENDMDL
MODEL 3
REMARK VINA RESULT:      -9.5      7.463     10.618
REMARK  Name = 447959
REMARK  3 active torsions:
REMARK  status: ('A' for Active; 'I' for Inactive)
REMARK    1  A    between atoms: N_1  and  C_16
REMARK    2  A    between atoms: C_4  and  C_11
REMARK    3  A    between atoms: C_19  and  O_22
REMARK                            x       y       z     vdW  Elec       q    Type
REMARK                         _______ _______ _______ _____ _____    ______ ____
ROOT
ATOM      1  N   UNL     1      32.641 -22.390 -18.322  0.00  0.00    -0.247 N 
ATOM      2  N   UNL     1      33.946 -22.951 -16.454  0.00  0.00    -0.341 NA
ATOM      3  N   UNL     1      31.607 -23.526 -16.549  0.00  0.00    -0.170 NA
ATOM      4  C   UNL     1      33.999 -23.527 -15.235  0.00  0.00    +0.140 C 
ATOM      5  C   UNL     1      32.736 -22.983 -17.048  0.00  0.00    +0.148 C 
ATOM      6  C   UNL     1      32.915 -24.115 -14.616  0.00  0.00    +0.051 C 
ATOM      7  C   UNL     1      31.733 -24.085 -15.327  0.00  0.00    +0.114 C 
ATOM      8  H   UNL     1      31.740 -22.438 -18.715  0.00  0.00    +0.165 HD
ENDROOT
BRANCH   4  11
ATOM      9  S   UNL     1      35.512 -24.200 -13.060  0.00  0.00    -0.074 S 
ATOM     10  N   UNL     1      37.561 -23.089 -14.177  0.00  0.00    -0.407 NA
ATOM     11  C   UNL     1      35.293 -23.489 -14.607  0.00  0.00    +0.155 C 
ATOM     12  C   UNL     1      36.490 -22.951 -15.038  0.00  0.00    +0.104 C 
ATOM     13  C   UNL     1      37.162 -23.733 -13.102  0.00  0.00    +0.135 C 
ATOM     14  C   UNL     1      36.722 -22.252 -16.319  0.00  0.00    +0.063 C 
ATOM     15  C   UNL     1      38.034 -24.073 -11.957  0.00  0.00    +0.074 C 
ENDBRANCH   4  11
BRANCH   1  16
ATOM     16  C   UNL     1      33.585 -21.741 -19.146  0.00  0.00    +0.061 C 
ATOM     17  C   UNL     1      33.210 -20.619 -19.885  0.00  0.00    +0.052 C 
ATOM     18  C   UNL     1      34.892 -22.222 -19.221  0.00  0.00    +0.015 C 
ATOM     19  C   UNL     1      34.144 -19.978 -20.699  0.00  0.00    +0.135 C 
ATOM     20  C   UNL     1      35.825 -21.581 -20.035  0.00  0.00    +0.004 C 
ATOM     21  C   UNL     1      35.452 -20.459 -20.774  0.00  0.00    +0.037 C 
BRANCH  19  22
ATOM     22  O   UNL     1      33.780 -18.883 -21.422  0.00  0.00    -0.505 OA
ATOM     23  H   UNL     1      33.206 -18.244 -21.047  0.00  0.00    +0.292 HD
ENDBRANCH  19  22
ENDBRANCH   1  16
TORSDOF 3
ENDMDL
MODEL 4
REMARK VINA RESULT:      -9.1      8.308     11.106
REMARK  Name = 447959
REMARK  3 active torsions:
REMARK  status: ('A' for Active; 'I' for Inactive)
REMARK    1  A    between atoms: N_1  and  C_16
REMARK    2  A    between atoms: C_4  and  C_11
REMARK    3  A    between atoms: C_19  and  O_22
REMARK                            x       y       z     vdW  Elec       q    Type
REMARK                         _______ _______ _______ _____ _____    ______ ____
ROOT
ATOM      1  N   UNL     1      34.885 -24.968 -13.768  0.00  0.00    -0.247 N 
ATOM      2  N   UNL     1      34.766 -23.669 -15.718  0.00  0.00    -0.341 NA
ATOM      3  N   UNL     1      32.765 -24.485 -14.649  0.00  0.00    -0.170 NA
ATOM      4  C   UNL     1      33.984 -23.085 -16.651  0.00  0.00    +0.140 C 
ATOM      5  C   UNL     1      34.102 -24.345 -14.759  0.00  0.00    +0.148 C 
ATOM      6  C   UNL     1      32.606 -23.155 -16.650  0.00  0.00    +0.051 C 
ATOM      7  C   UNL     1      32.046 -23.875 -15.615  0.00  0.00    +0.114 C 
ATOM      8  H   UNL     1      34.357 -25.449 -13.091  0.00  0.00    +0.165 HD
ENDROOT
BRANCH   4  11
ATOM      9  S   UNL     1      33.884 -21.875 -19.100  0.00  0.00    -0.074 S 
ATOM     10  N   UNL     1      36.388 -21.275 -18.875  0.00  0.00    -0.407 NA
ATOM     11  C   UNL     1      34.700 -22.366 -17.671  0.00  0.00    +0.155 C 
ATOM     12  C   UNL     1      36.018 -21.958 -17.733  0.00  0.00    +0.104 C 
ATOM     13  C   UNL     1      35.343 -21.173 -19.666  0.00  0.00    +0.135 C 
ATOM     14  C   UNL     1      37.050 -22.184 -16.700  0.00  0.00    +0.063 C 
ATOM     15  C   UNL     1      35.352 -20.499 -20.983  0.00  0.00    +0.074 C 
ENDBRANCH   4  11
BRANCH   1  16
ATOM     16  C   UNL     1      36.278 -25.039 -13.556  0.00  0.00    +0.061 C 
ATOM     17  C   UNL     1      36.898 -24.138 -12.690  0.00  0.00    +0.052 C 
ATOM     18  C   UNL     1      37.034 -26.011 -14.212  0.00  0.00    +0.015 C 
ATOM     19  C   UNL     1      38.276 -24.210 -12.481  0.00  0.00    +0.135 C 
ATOM     20  C   UNL     1      38.411 -26.081 -14.003  0.00  0.00    +0.004 C 
ATOM     21  C   UNL     1      39.032 -25.181 -13.137  0.00  0.00    +0.037 C 
BRANCH  19  22
ATOM     22  O   UNL     1      38.883 -23.330 -11.637  0.00  0.00    -0.505 OA
ATOM     23  H   UNL     1      38.479 -23.110 -10.821  0.00  0.00    +0.292 HD
ENDBRANCH  19  22
ENDBRANCH   1  16
TORSDOF 3
ENDMDL
MODEL 5
REMARK VINA RESULT:      -9.1      3.022      3.998
REMARK  Name = 447959
REMARK  3 active torsions:
REMARK  status: ('A' for Active; 'I' for Inactive)
REMARK    1  A    between atoms: N_1  and  C_16
REMARK    2  A    between atoms: C_4  and  C_11
REMARK    3  A    between atoms: C_19  and  O_22
REMARK                            x       y       z     vdW  Elec       q    Type
REMARK                         _______ _______ _______ _____ _____    ______ ____
ROOT
ATOM      1  N   UNL     1      33.608 -15.610 -24.259  0.00  0.00    -0.247 N 
ATOM      2  N   UNL     1      33.770 -13.288 -24.561  0.00  0.00    -0.341 NA
ATOM      3  N   UNL     1      33.208 -14.740 -26.401  0.00  0.00    -0.170 NA
ATOM      4  C   UNL     1      33.683 -12.242 -25.409  0.00  0.00    +0.140 C 
ATOM      5  C   UNL     1      33.526 -14.493 -25.114  0.00  0.00    +0.148 C 
ATOM      6  C   UNL     1      33.367 -12.363 -26.746  0.00  0.00    +0.051 C 
ATOM      7  C   UNL     1      33.137 -13.649 -27.192  0.00  0.00    +0.114 C 
ATOM      8  H   UNL     1      33.422 -16.466 -24.708  0.00  0.00    +0.165 HD
ENDROOT
BRANCH   4  11
ATOM      9  S   UNL     1      32.928 -10.380 -23.555  0.00  0.00    -0.074 S 
ATOM     10  N   UNL     1      34.899  -8.881 -24.299  0.00  0.00    -0.407 NA
ATOM     11  C   UNL     1      33.945 -10.960 -24.811  0.00  0.00    +0.155 C 
ATOM     12  C   UNL     1      34.933 -10.029 -25.068  0.00  0.00    +0.104 C 
ATOM     13  C   UNL     1      33.883  -8.958 -23.467  0.00  0.00    +0.135 C 
ATOM     14  C   UNL     1      36.007 -10.152 -26.075  0.00  0.00    +0.063 C 
ATOM     15  C   UNL     1      33.529  -7.914 -22.480  0.00  0.00    +0.074 C 
ENDBRANCH   4  11
BRANCH   1  16
ATOM     16  C   UNL     1      33.906 -15.742 -22.887  0.00  0.00    +0.061 C 
ATOM     17  C   UNL     1      34.699 -16.800 -22.444  0.00  0.00    +0.052 C 
ATOM     18  C   UNL     1      33.406 -14.814 -21.973  0.00  0.00    +0.015 C 
ATOM     19  C   UNL     1      34.993 -16.929 -21.086  0.00  0.00    +0.135 C 
ATOM     20  C   UNL     1      33.699 -14.944 -20.616  0.00  0.00    +0.004 C 
ATOM     21  C   UNL     1      34.493 -16.001 -20.172  0.00  0.00    +0.037 C 
BRANCH  19  22
ATOM     22  O   UNL     1      35.767 -17.962 -20.652  0.00  0.00    -0.505 OA
ATOM     23  H   UNL     1      36.123 -17.947 -19.785  0.00  0.00    +0.292 HD
ENDBRANCH  19  22
ENDBRANCH   1  16
TORSDOF 3
ENDMDL
MODEL 6
REMARK VINA RESULT:      -9.1      1.873      2.369
REMARK  Name = 447959
REMARK  3 active torsions:
REMARK  status: ('A' for Active; 'I' for Inactive)
REMARK    1  A    between atoms: N_1  and  C_16
REMARK    2  A    between atoms: C_4  and  C_11
REMARK    3  A    between atoms: C_19  and  O_22
REMARK                            x       y       z     vdW  Elec       q    Type
REMARK                         _______ _______ _______ _____ _____    ______ ____
ROOT
ATOM      1  N   UNL     1      34.398 -17.007 -24.811  0.00  0.00    -0.247 N 
ATOM      2  N   UNL     1      33.609 -14.877 -24.222  0.00  0.00    -0.341 NA
ATOM      3  N   UNL     1      33.776 -15.541 -26.534  0.00  0.00    -0.170 NA
ATOM      4  C   UNL     1      33.140 -13.682 -24.638  0.00  0.00    +0.140 C 
ATOM      5  C   UNL     1      33.905 -15.749 -25.207  0.00  0.00    +0.148 C 
ATOM      6  C   UNL     1      32.963 -13.347 -25.965  0.00  0.00    +0.051 C 
ATOM      7  C   UNL     1      33.301 -14.325 -26.878  0.00  0.00    +0.114 C 
ATOM      8  H   UNL     1      34.600 -17.608 -25.564  0.00  0.00    +0.165 HD
ENDROOT
BRANCH   4  11
ATOM      9  S   UNL     1      32.039 -13.319 -22.163  0.00  0.00    -0.074 S 
ATOM     10  N   UNL     1      32.619 -10.804 -22.304  0.00  0.00    -0.407 NA
ATOM     11  C   UNL     1      32.826 -12.758 -23.582  0.00  0.00    +0.155 C 
ATOM     12  C   UNL     1      33.053 -11.400 -23.473  0.00  0.00    +0.104 C 
ATOM     13  C   UNL     1      32.069 -11.722 -21.539  0.00  0.00    +0.135 C 
ATOM     14  C   UNL     1      33.709 -10.542 -24.481  0.00  0.00    +0.063 C 
ATOM     15  C   UNL     1      31.493 -11.461 -20.202  0.00  0.00    +0.074 C 
ENDBRANCH   4  11
BRANCH   1  16
ATOM     16  C   UNL     1      34.660 -17.575 -23.547  0.00  0.00    +0.061 C 
ATOM     17  C   UNL     1      34.835 -16.752 -22.435  0.00  0.00    +0.052 C 
ATOM     18  C   UNL     1      34.744 -18.961 -23.409  0.00  0.00    +0.015 C 
ATOM     19  C   UNL     1      35.094 -17.315 -21.185  0.00  0.00    +0.135 C 
ATOM     20  C   UNL     1      35.003 -19.523 -22.159  0.00  0.00    +0.004 C 
ATOM     21  C   UNL     1      35.178 -18.700 -21.047  0.00  0.00    +0.037 C 
BRANCH  19  22
ATOM     22  O   UNL     1      35.266 -16.512 -20.099  0.00  0.00    -0.505 OA
ATOM     23  H   UNL     1      35.588 -16.873 -19.296  0.00  0.00    +0.292 HD
ENDBRANCH  19  22
ENDBRANCH   1  16
TORSDOF 3
ENDMDL
MODEL 7
REMARK VINA RESULT:      -8.9      3.414      6.520
REMARK  Name = 447959
REMARK  3 active torsions:
REMARK  status: ('A' for Active; 'I' for Inactive)
REMARK    1  A    between atoms: N_1  and  C_16
REMARK    2  A    between atoms: C_4  and  C_11
REMARK    3  A    between atoms: C_19  and  O_22
REMARK                            x       y       z     vdW  Elec       q    Type
REMARK                         _______ _______ _______ _____ _____    ______ ____
ROOT
ATOM      1  N   UNL     1      32.301 -12.584 -23.803  0.00  0.00    -0.247 N 
ATOM      2  N   UNL     1      33.435 -14.554 -23.220  0.00  0.00    -0.341 NA
ATOM      3  N   UNL     1      32.924 -14.053 -25.522  0.00  0.00    -0.170 NA
ATOM      4  C   UNL     1      34.015 -15.700 -23.638  0.00  0.00    +0.140 C 
ATOM      5  C   UNL     1      32.915 -13.788 -24.200  0.00  0.00    +0.148 C 
ATOM      6  C   UNL     1      34.087 -16.085 -24.961  0.00  0.00    +0.051 C 
ATOM      7  C   UNL     1      33.520 -15.214 -25.868  0.00  0.00    +0.114 C 
ATOM      8  H   UNL     1      31.936 -12.060 -24.552  0.00  0.00    +0.165 HD
ENDROOT
BRANCH   4  11
ATOM      9  S   UNL     1      35.022 -18.135 -22.914  0.00  0.00    -0.074 S 
ATOM     10  N   UNL     1      35.368 -17.246 -20.511  0.00  0.00    -0.407 NA
ATOM     11  C   UNL     1      34.567 -16.512 -22.587  0.00  0.00    +0.155 C 
ATOM     12  C   UNL     1      34.825 -16.221 -21.262  0.00  0.00    +0.104 C 
ATOM     13  C   UNL     1      35.516 -18.303 -21.279  0.00  0.00    +0.135 C 
ATOM     14  C   UNL     1      34.577 -14.930 -20.587  0.00  0.00    +0.063 C 
ATOM     15  C   UNL     1      36.074 -19.596 -20.827  0.00  0.00    +0.074 C 
ENDBRANCH   4  11
BRANCH   1  16
ATOM     16  C   UNL     1      32.105 -11.983 -22.541  0.00  0.00    +0.061 C 
ATOM     17  C   UNL     1      32.081 -10.593 -22.427  0.00  0.00    +0.052 C 
ATOM     18  C   UNL     1      31.936 -12.780 -21.409  0.00  0.00    +0.015 C 
ATOM     19  C   UNL     1      31.887 -10.000 -21.180  0.00  0.00    +0.135 C 
ATOM     20  C   UNL     1      31.743 -12.186 -20.162  0.00  0.00    +0.004 C 
ATOM     21  C   UNL     1      31.718 -10.796 -20.047  0.00  0.00    +0.037 C 
BRANCH  19  22
ATOM     22  O   UNL     1      31.864  -8.643 -21.067  0.00  0.00    -0.505 OA
ATOM     23  H   UNL     1      32.625  -8.186 -20.770  0.00  0.00    +0.292 HD
ENDBRANCH  19  22
ENDBRANCH   1  16
TORSDOF 3
ENDMDL
MODEL 8
REMARK VINA RESULT:      -8.8      2.780      3.459
REMARK  Name = 447959
REMARK  3 active torsions:
REMARK  status: ('A' for Active; 'I' for Inactive)
REMARK    1  A    between atoms: N_1  and  C_16
REMARK    2  A    between atoms: C_4  and  C_11
REMARK    3  A    between atoms: C_19  and  O_22
REMARK                            x       y       z     vdW  Elec       q    Type
REMARK                         _______ _______ _______ _____ _____    ______ ____
ROOT
ATOM      1  N   UNL     1      33.944 -15.859 -24.566  0.00  0.00    -0.247 N 
ATOM      2  N   UNL     1      33.832 -13.515 -24.596  0.00  0.00    -0.341 NA
ATOM      3  N   UNL     1      33.500 -14.797 -26.611  0.00  0.00    -0.170 NA
ATOM      4  C   UNL     1      33.641 -12.394 -25.323  0.00  0.00    +0.140 C 
ATOM      5  C   UNL     1      33.750 -14.668 -25.291  0.00  0.00    +0.148 C 
ATOM      6  C   UNL     1      33.379 -12.394 -26.678  0.00  0.00    +0.051 C 
ATOM      7  C   UNL     1      33.319 -13.637 -27.275  0.00  0.00    +0.114 C 
ATOM      8  H   UNL     1      33.875 -16.673 -25.116  0.00  0.00    +0.165 HD
ENDROOT
BRANCH   4  11
ATOM      9  S   UNL     1      34.853  -9.960 -25.049  0.00  0.00    -0.074 S 
ATOM     10  N   UNL     1      33.372  -9.486 -22.984  0.00  0.00    -0.407 NA
ATOM     11  C   UNL     1      33.731 -11.169 -24.575  0.00  0.00    +0.155 C 
ATOM     12  C   UNL     1      33.036 -10.738 -23.462  0.00  0.00    +0.104 C 
ATOM     13  C   UNL     1      34.319  -8.982 -23.744  0.00  0.00    +0.135 C 
ATOM     14  C   UNL     1      31.979 -11.487 -22.749  0.00  0.00    +0.063 C 
ATOM     15  C   UNL     1      34.933  -7.651 -23.546  0.00  0.00    +0.074 C 
ENDBRANCH   4  11
BRANCH   1  16
ATOM     16  C   UNL     1      34.218 -16.115 -23.206  0.00  0.00    +0.061 C 
ATOM     17  C   UNL     1      35.073 -17.159 -22.851  0.00  0.00    +0.052 C 
ATOM     18  C   UNL     1      33.633 -15.325 -22.217  0.00  0.00    +0.015 C 
ATOM     19  C   UNL     1      35.343 -17.411 -21.506  0.00  0.00    +0.135 C 
ATOM     20  C   UNL     1      33.903 -15.578 -20.872  0.00  0.00    +0.004 C 
ATOM     21  C   UNL     1      34.758 -16.620 -20.516  0.00  0.00    +0.037 C 
BRANCH  19  22
ATOM     22  O   UNL     1      36.177 -18.429 -21.158  0.00  0.00    -0.505 OA
ATOM     23  H   UNL     1      36.933 -18.614 -21.679  0.00  0.00    +0.292 HD
ENDBRANCH  19  22
ENDBRANCH   1  16
TORSDOF 3
ENDMDL
MODEL 9
REMARK VINA RESULT:      -8.8      8.493     11.531
REMARK  Name = 447959
REMARK  3 active torsions:
REMARK  status: ('A' for Active; 'I' for Inactive)
REMARK    1  A    between atoms: N_1  and  C_16
REMARK    2  A    between atoms: C_4  and  C_11
REMARK    3  A    between atoms: C_19  and  O_22
REMARK                            x       y       z     vdW  Elec       q    Type
REMARK                         _______ _______ _______ _____ _____    ______ ____
ROOT
ATOM      1  N   UNL     1      30.996 -24.196 -14.065  0.00  0.00    -0.247 N 
ATOM      2  N   UNL     1      32.906 -23.584 -15.284  0.00  0.00    -0.341 NA
ATOM      3  N   UNL     1      33.099 -24.674 -13.143  0.00  0.00    -0.170 NA
ATOM      4  C   UNL     1      34.254 -23.555 -15.349  0.00  0.00    +0.140 C 
ATOM      5  C   UNL     1      32.400 -24.148 -14.169  0.00  0.00    +0.148 C 
ATOM      6  C   UNL     1      35.080 -24.059 -14.365  0.00  0.00    +0.051 C 
ATOM      7  C   UNL     1      34.441 -24.613 -13.274  0.00  0.00    +0.114 C 
ATOM      8  H   UNL     1      30.675 -24.616 -13.235  0.00  0.00    +0.165 HD
ENDROOT
BRANCH   4  11
ATOM      9  S   UNL     1      33.789 -22.778 -17.928  0.00  0.00    -0.074 S 
ATOM     10  N   UNL     1      36.224 -21.924 -18.080  0.00  0.00    -0.407 NA
ATOM     11  C   UNL     1      34.786 -22.951 -16.541  0.00  0.00    +0.155 C 
ATOM     12  C   UNL     1      36.041 -22.441 -16.812  0.00  0.00    +0.104 C 
ATOM     13  C   UNL     1      35.102 -22.048 -18.755  0.00  0.00    +0.135 C 
ATOM     14  C   UNL     1      37.185 -22.399 -15.878  0.00  0.00    +0.063 C 
ATOM     15  C   UNL     1      34.912 -21.602 -20.152  0.00  0.00    +0.074 C 
ENDBRANCH   4  11
BRANCH   1  16
ATOM     16  C   UNL     1      29.961 -23.758 -14.917  0.00  0.00    +0.061 C 
ATOM     17  C   UNL     1      29.368 -24.651 -15.811  0.00  0.00    +0.052 C 
ATOM     18  C   UNL     1      29.529 -22.433 -14.867  0.00  0.00    +0.015 C 
ATOM     19  C   UNL     1      28.344 -24.218 -16.653  0.00  0.00    +0.135 C 
ATOM     20  C   UNL     1      28.506 -22.000 -15.709  0.00  0.00    +0.004 C 
ATOM     21  C   UNL     1      27.913 -22.892 -16.602  0.00  0.00    +0.037 C 
BRANCH  19  22
ATOM     22  O   UNL     1      27.766 -25.088 -17.526  0.00  0.00    -0.505 OA
ATOM     23  H   UNL     1      28.218 -25.870 -17.775  0.00  0.00    +0.292 HD
ENDBRANCH  19  22
ENDBRANCH   1  16
TORSDOF 3
ENDMDL
