MODEL 1
REMARK VINA RESULT:      -9.5      0.000      0.000
REMARK  Name = 123618
REMARK  3 active torsions:
REMARK  status: ('A' for Active; 'I' for Inactive)
REMARK    1  A    between atoms: N_1  and  C_13
REMARK    2  A    between atoms: N_2  and  C_20
REMARK    3  A    between atoms: C_20  and  C_22
REMARK                            x       y       z     vdW  Elec       q    Type
REMARK                         _______ _______ _______ _____ _____    ______ ____
ROOT
ATOM      1  N   UNL     1      35.102 -23.595 -15.602  0.00  0.00    -0.298 N 
ATOM      2  N   UNL     1      33.020 -23.427 -16.680  0.00  0.00    -0.244 N 
ATOM      3  N   UNL     1      33.042 -23.044 -14.491  0.00  0.00    -0.376 NA
ATOM      4  C   UNL     1      33.764 -23.353 -15.539  0.00  0.00    +0.242 C 
ATOM      5  C   UNL     1      31.721 -23.143 -16.345  0.00  0.00    +0.081 C 
ATOM      6  C   UNL     1      31.761 -22.908 -14.974  0.00  0.00    +0.130 C 
ATOM      7  C   UNL     1      30.551 -23.073 -17.101  0.00  0.00    +0.017 C 
ATOM      8  C   UNL     1      30.572 -22.583 -14.299  0.00  0.00    +0.086 C 
ATOM      9  C   UNL     1      29.376 -22.749 -16.413  0.00  0.00    -0.003 C 
ATOM     10  C   UNL     1      29.384 -22.508 -15.037  0.00  0.00    -0.019 C 
ATOM     11  H   UNL     1      35.492 -23.818 -16.477  0.00  0.00    +0.150 HD
ENDROOT
BRANCH   1  13
ATOM     12  N   UNL     1      38.531 -24.841 -15.144  0.00  0.00    +0.384 N 
ATOM     13  C   UNL     1      35.989 -23.544 -14.455  0.00  0.00    +0.068 C 
ATOM     14  C   UNL     1      36.343 -24.960 -13.993  0.00  0.00    -0.004 C 
ATOM     15  C   UNL     1      37.250 -22.754 -14.807  0.00  0.00    -0.004 C 
ATOM     16  C   UNL     1      37.334 -25.654 -14.930  0.00  0.00    -0.080 C 
ATOM     17  C   UNL     1      38.195 -23.539 -15.718  0.00  0.00    -0.080 C 
ATOM     18  H   UNL     1      39.157 -25.334 -15.781  0.00  0.00    -0.085 HD
ATOM     19  H   UNL     1      38.982 -24.688 -14.241  0.00  0.00    -0.085 HD
ENDBRANCH   1  13
BRANCH   2  20
ATOM     20  C   UNL     1      33.495 -23.742 -18.010  0.00  0.00    +0.126 C 
BRANCH  20  22
ATOM     21  F   UNL     1      34.968 -19.103 -20.820  0.00  0.00    -0.204 F 
ATOM     22  C   UNL     1      33.889 -22.500 -18.761  0.00  0.00    -0.002 C 
ATOM     23  C   UNL     1      35.233 -22.174 -18.889  0.00  0.00    -0.000 C 
ATOM     24  C   UNL     1      32.904 -21.695 -19.319  0.00  0.00    -0.000 C 
ATOM     25  C   UNL     1      35.598 -21.024 -19.586  0.00  0.00    +0.029 C 
ATOM     26  C   UNL     1      33.269 -20.545 -20.016  0.00  0.00    +0.029 C 
ATOM     27  C   UNL     1      34.616 -20.209 -20.149  0.00  0.00    +0.140 C 
ENDBRANCH  20  22
ENDBRANCH   2  20
TORSDOF 3
ENDMDL
MODEL 2
REMARK VINA RESULT:      -8.8      1.464      5.141
REMARK  Name = 123618
REMARK  3 active torsions:
REMARK  status: ('A' for Active; 'I' for Inactive)
REMARK    1  A    between atoms: N_1  and  C_13
REMARK    2  A    between atoms: N_2  and  C_20
REMARK    3  A    between atoms: C_20  and  C_22
REMARK                            x       y       z     vdW  Elec       q    Type
REMARK                         _______ _______ _______ _____ _____    ______ ____
ROOT
ATOM      1  N   UNL     1      31.610 -23.106 -16.174  0.00  0.00    -0.298 N 
ATOM      2  N   UNL     1      33.898 -23.449 -16.590  0.00  0.00    -0.244 N 
ATOM      3  N   UNL     1      33.322 -23.002 -14.490  0.00  0.00    -0.376 NA
ATOM      4  C   UNL     1      32.889 -23.173 -15.714  0.00  0.00    +0.242 C 
ATOM      5  C   UNL     1      35.070 -23.458 -15.879  0.00  0.00    +0.081 C 
ATOM      6  C   UNL     1      34.685 -23.178 -14.572  0.00  0.00    +0.130 C 
ATOM      7  C   UNL     1      36.395 -23.683 -16.256  0.00  0.00    +0.017 C 
ATOM      8  C   UNL     1      35.665 -23.111 -13.568  0.00  0.00    +0.086 C 
ATOM      9  C   UNL     1      37.358 -23.613 -15.244  0.00  0.00    -0.003 C 
ATOM     10  C   UNL     1      37.002 -23.332 -13.923  0.00  0.00    -0.019 C 
ATOM     11  H   UNL     1      31.453 -23.260 -17.133  0.00  0.00    +0.150 HD
ENDROOT
BRANCH   1  13
ATOM     12  N   UNL     1      28.332 -24.753 -15.927  0.00  0.00    +0.384 N 
ATOM     13  C   UNL     1      30.461 -22.822 -15.335  0.00  0.00    +0.068 C 
ATOM     14  C   UNL     1      29.246 -22.469 -16.197  0.00  0.00    -0.004 C 
ATOM     15  C   UNL     1      30.162 -24.023 -14.436  0.00  0.00    -0.004 C 
ATOM     16  C   UNL     1      28.639 -23.693 -16.887  0.00  0.00    -0.080 C 
ATOM     17  C   UNL     1      29.528 -25.183 -15.205  0.00  0.00    -0.080 C 
ATOM     18  H   UNL     1      27.942 -25.551 -16.429  0.00  0.00    -0.085 HD
ATOM     19  H   UNL     1      27.660 -24.390 -15.250  0.00  0.00    -0.085 HD
ENDBRANCH   1  13
BRANCH   2  20
ATOM     20  C   UNL     1      33.774 -23.692 -18.011  0.00  0.00    +0.126 C 
BRANCH  20  22
ATOM     21  F   UNL     1      34.717 -19.016 -20.983  0.00  0.00    -0.204 F 
ATOM     22  C   UNL     1      34.026 -22.440 -18.806  0.00  0.00    -0.002 C 
ATOM     23  C   UNL     1      35.330 -22.083 -19.125  0.00  0.00    -0.000 C 
ATOM     24  C   UNL     1      32.953 -21.658 -19.211  0.00  0.00    -0.000 C 
ATOM     25  C   UNL     1      35.563 -20.923 -19.863  0.00  0.00    +0.029 C 
ATOM     26  C   UNL     1      33.186 -20.499 -19.949  0.00  0.00    +0.029 C 
ATOM     27  C   UNL     1      34.492 -20.131 -20.274  0.00  0.00    +0.140 C 
ENDBRANCH  20  22
ENDBRANCH   2  20
TORSDOF 3
ENDMDL
MODEL 3
REMARK VINA RESULT:      -8.8      2.667      6.436
REMARK  Name = 123618
REMARK  3 active torsions:
REMARK  status: ('A' for Active; 'I' for Inactive)
REMARK    1  A    between atoms: N_1  and  C_13
REMARK    2  A    between atoms: N_2  and  C_20
REMARK    3  A    between atoms: C_20  and  C_22
REMARK                            x       y       z     vdW  Elec       q    Type
REMARK                         _______ _______ _______ _____ _____    ______ ____
ROOT
ATOM      1  N   UNL     1      32.582 -23.756 -15.841  0.00  0.00    -0.298 N 
ATOM      2  N   UNL     1      34.643 -22.791 -16.433  0.00  0.00    -0.244 N 
ATOM      3  N   UNL     1      33.152 -23.035 -18.063  0.00  0.00    -0.376 NA
ATOM      4  C   UNL     1      33.397 -23.217 -16.790  0.00  0.00    +0.242 C 
ATOM      5  C   UNL     1      35.248 -22.297 -17.560  0.00  0.00    +0.081 C 
ATOM      6  C   UNL     1      34.298 -22.460 -18.563  0.00  0.00    +0.130 C 
ATOM      7  C   UNL     1      36.507 -21.737 -17.780  0.00  0.00    +0.017 C 
ATOM      8  C   UNL     1      34.604 -22.047 -19.871  0.00  0.00    +0.086 C 
ATOM      9  C   UNL     1      36.795 -21.332 -19.088  0.00  0.00    -0.003 C 
ATOM     10  C   UNL     1      35.862 -21.483 -20.116  0.00  0.00    -0.019 C 
ATOM     11  H   UNL     1      32.923 -23.822 -14.921  0.00  0.00    +0.150 HD
ENDROOT
BRANCH   1  13
ATOM     12  N   UNL     1      29.489 -23.493 -13.872  0.00  0.00    +0.384 N 
ATOM     13  C   UNL     1      31.241 -24.239 -16.106  0.00  0.00    +0.068 C 
ATOM     14  C   UNL     1      30.812 -25.236 -15.027  0.00  0.00    -0.004 C 
ATOM     15  C   UNL     1      30.267 -23.061 -16.178  0.00  0.00    -0.004 C 
ATOM     16  C   UNL     1      30.477 -24.557 -13.697  0.00  0.00    -0.080 C 
ATOM     17  C   UNL     1      29.966 -22.469 -14.800  0.00  0.00    -0.080 C 
ATOM     18  H   UNL     1      29.304 -23.060 -12.966  0.00  0.00    -0.085 HD
ATOM     19  H   UNL     1      28.638 -23.903 -14.256  0.00  0.00    -0.085 HD
ENDBRANCH   1  13
BRANCH   2  20
ATOM     20  C   UNL     1      35.236 -22.842 -15.114  0.00  0.00    +0.126 C 
BRANCH  20  22
ATOM     21  F   UNL     1      38.952 -27.037 -14.692  0.00  0.00    -0.204 F 
ATOM     22  C   UNL     1      36.230 -23.965 -15.002  0.00  0.00    -0.002 C 
ATOM     23  C   UNL     1      37.580 -23.671 -14.855  0.00  0.00    -0.000 C 
ATOM     24  C   UNL     1      35.786 -25.280 -15.045  0.00  0.00    -0.000 C 
ATOM     25  C   UNL     1      38.501 -24.712 -14.750  0.00  0.00    +0.029 C 
ATOM     26  C   UNL     1      36.708 -26.320 -14.939  0.00  0.00    +0.029 C 
ATOM     27  C   UNL     1      38.066 -26.036 -14.793  0.00  0.00    +0.140 C 
ENDBRANCH  20  22
ENDBRANCH   2  20
TORSDOF 3
ENDMDL
MODEL 4
REMARK VINA RESULT:      -8.8      2.316      4.829
REMARK  Name = 123618
REMARK  3 active torsions:
REMARK  status: ('A' for Active; 'I' for Inactive)
REMARK    1  A    between atoms: N_1  and  C_13
REMARK    2  A    between atoms: N_2  and  C_20
REMARK    3  A    between atoms: C_20  and  C_22
REMARK                            x       y       z     vdW  Elec       q    Type
REMARK                         _______ _______ _______ _____ _____    ______ ____
ROOT
ATOM      1  N   UNL     1      36.094 -23.736 -14.825  0.00  0.00    -0.298 N 
ATOM      2  N   UNL     1      34.840 -23.375 -16.780  0.00  0.00    -0.244 N 
ATOM      3  N   UNL     1      36.704 -22.185 -16.558  0.00  0.00    -0.376 NA
ATOM      4  C   UNL     1      35.930 -23.090 -16.012  0.00  0.00    +0.242 C 
ATOM      5  C   UNL     1      34.915 -22.597 -17.907  0.00  0.00    +0.081 C 
ATOM      6  C   UNL     1      36.087 -21.865 -17.745  0.00  0.00    +0.130 C 
ATOM      7  C   UNL     1      34.084 -22.477 -19.021  0.00  0.00    +0.017 C 
ATOM      8  C   UNL     1      36.468 -20.951 -18.742  0.00  0.00    +0.086 C 
ATOM      9  C   UNL     1      34.478 -21.563 -20.004  0.00  0.00    -0.003 C 
ATOM     10  C   UNL     1      35.648 -20.812 -19.870  0.00  0.00    -0.019 C 
ATOM     11  H   UNL     1      35.413 -24.394 -14.557  0.00  0.00    +0.150 HD
ENDROOT
BRANCH   1  13
ATOM     12  N   UNL     1      37.536 -25.857 -12.190  0.00  0.00    +0.384 N 
ATOM     13  C   UNL     1      37.213 -23.514 -13.929  0.00  0.00    +0.068 C 
ATOM     14  C   UNL     1      36.741 -23.530 -12.473  0.00  0.00    -0.004 C 
ATOM     15  C   UNL     1      38.288 -24.576 -14.166  0.00  0.00    -0.004 C 
ATOM     16  C   UNL     1      36.417 -24.940 -11.975  0.00  0.00    -0.080 C 
ATOM     17  C   UNL     1      37.891 -25.943 -13.606  0.00  0.00    -0.080 C 
ATOM     18  H   UNL     1      37.274 -26.785 -11.857  0.00  0.00    -0.085 HD
ATOM     19  H   UNL     1      38.344 -25.504 -11.677  0.00  0.00    -0.085 HD
ENDBRANCH   1  13
BRANCH   2  20
ATOM     20  C   UNL     1      33.787 -24.321 -16.480  0.00  0.00    +0.126 C 
BRANCH  20  22
ATOM     21  F   UNL     1      29.173 -21.728 -14.589  0.00  0.00    -0.204 F 
ATOM     22  C   UNL     1      32.553 -23.626 -15.974  0.00  0.00    -0.002 C 
ATOM     23  C   UNL     1      31.498 -23.386 -16.844  0.00  0.00    -0.000 C 
ATOM     24  C   UNL     1      32.484 -23.235 -14.643  0.00  0.00    -0.000 C 
ATOM     25  C   UNL     1      30.353 -22.743 -16.374  0.00  0.00    +0.029 C 
ATOM     26  C   UNL     1      31.339 -22.593 -14.174  0.00  0.00    +0.029 C 
ATOM     27  C   UNL     1      30.274 -22.346 -15.040  0.00  0.00    +0.140 C 
ENDBRANCH  20  22
ENDBRANCH   2  20
TORSDOF 3
ENDMDL
MODEL 5
REMARK VINA RESULT:      -8.6      2.649      6.045
REMARK  Name = 123618
REMARK  3 active torsions:
REMARK  status: ('A' for Active; 'I' for Inactive)
REMARK    1  A    between atoms: N_1  and  C_13
REMARK    2  A    between atoms: N_2  and  C_20
REMARK    3  A    between atoms: C_20  and  C_22
REMARK                            x       y       z     vdW  Elec       q    Type
REMARK                         _______ _______ _______ _____ _____    ______ ____
ROOT
ATOM      1  N   UNL     1      31.803 -23.625 -16.428  0.00  0.00    -0.298 N 
ATOM      2  N   UNL     1      33.736 -23.210 -17.700  0.00  0.00    -0.244 N 
ATOM      3  N   UNL     1      31.995 -21.877 -18.068  0.00  0.00    -0.376 NA
ATOM      4  C   UNL     1      32.449 -22.894 -17.378  0.00  0.00    +0.242 C 
ATOM      5  C   UNL     1      34.145 -22.332 -18.670  0.00  0.00    +0.081 C 
ATOM      6  C   UNL     1      33.042 -21.510 -18.882  0.00  0.00    +0.130 C 
ATOM      7  C   UNL     1      35.351 -22.189 -19.358  0.00  0.00    +0.017 C 
ATOM      8  C   UNL     1      33.127 -20.481 -19.835  0.00  0.00    +0.086 C 
ATOM      9  C   UNL     1      35.418 -21.158 -20.303  0.00  0.00    -0.003 C 
ATOM     10  C   UNL     1      34.327 -20.319 -20.539  0.00  0.00    -0.019 C 
ATOM     11  H   UNL     1      32.291 -24.365 -16.002  0.00  0.00    +0.150 HD
ENDROOT
BRANCH   1  13
ATOM     12  N   UNL     1      29.877 -24.946 -13.589  0.00  0.00    +0.384 N 
ATOM     13  C   UNL     1      30.437 -23.379 -16.006  0.00  0.00    +0.068 C 
ATOM     14  C   UNL     1      29.628 -24.678 -16.036  0.00  0.00    -0.004 C 
ATOM     15  C   UNL     1      30.428 -22.762 -14.606  0.00  0.00    -0.004 C 
ATOM     16  C   UNL     1      29.984 -25.619 -14.883  0.00  0.00    -0.080 C 
ATOM     17  C   UNL     1      30.761 -23.783 -13.517  0.00  0.00    -0.080 C 
ATOM     18  H   UNL     1      30.134 -25.604 -12.851  0.00  0.00    -0.085 HD
ATOM     19  H   UNL     1      28.916 -24.627 -13.470  0.00  0.00    -0.085 HD
ENDBRANCH   1  13
BRANCH   2  20
ATOM     20  C   UNL     1      34.539 -24.271 -17.133  0.00  0.00    +0.126 C 
BRANCH  20  22
ATOM     21  F   UNL     1      36.662 -22.798 -12.143  0.00  0.00    -0.204 F 
ATOM     22  C   UNL     1      35.107 -23.876 -15.798  0.00  0.00    -0.002 C 
ATOM     23  C   UNL     1      34.465 -24.279 -14.635  0.00  0.00    -0.000 C 
ATOM     24  C   UNL     1      36.267 -23.114 -15.745  0.00  0.00    -0.000 C 
ATOM     25  C   UNL     1      34.992 -23.914 -13.397  0.00  0.00    +0.029 C 
ATOM     26  C   UNL     1      36.794 -22.749 -14.507  0.00  0.00    +0.029 C 
ATOM     27  C   UNL     1      36.156 -23.149 -13.333  0.00  0.00    +0.140 C 
ENDBRANCH  20  22
ENDBRANCH   2  20
TORSDOF 3
ENDMDL
MODEL 6
REMARK VINA RESULT:      -8.4      2.082      2.707
REMARK  Name = 123618
REMARK  3 active torsions:
REMARK  status: ('A' for Active; 'I' for Inactive)
REMARK    1  A    between atoms: N_1  and  C_13
REMARK    2  A    between atoms: N_2  and  C_20
REMARK    3  A    between atoms: C_20  and  C_22
REMARK                            x       y       z     vdW  Elec       q    Type
REMARK                         _______ _______ _______ _____ _____    ______ ____
ROOT
ATOM      1  N   UNL     1      35.380 -24.750 -13.413  0.00  0.00    -0.298 N 
ATOM      2  N   UNL     1      33.854 -24.178 -15.107  0.00  0.00    -0.244 N 
ATOM      3  N   UNL     1      33.162 -23.915 -13.011  0.00  0.00    -0.376 NA
ATOM      4  C   UNL     1      34.153 -24.289 -13.781  0.00  0.00    +0.242 C 
ATOM      5  C   UNL     1      32.574 -23.696 -15.202  0.00  0.00    +0.081 C 
ATOM      6  C   UNL     1      32.164 -23.540 -13.881  0.00  0.00    +0.130 C 
ATOM      7  C   UNL     1      31.764 -23.391 -16.296  0.00  0.00    +0.017 C 
ATOM      8  C   UNL     1      30.872 -23.053 -13.617  0.00  0.00    +0.086 C 
ATOM      9  C   UNL     1      30.481 -22.908 -16.016  0.00  0.00    -0.003 C 
ATOM     10  C   UNL     1      30.041 -22.742 -14.701  0.00  0.00    -0.019 C 
ATOM     11  H   UNL     1      36.017 -24.991 -14.123  0.00  0.00    +0.150 HD
ENDROOT
BRANCH   1  13
ATOM     12  N   UNL     1      38.512 -23.809 -11.733  0.00  0.00    +0.384 N 
ATOM     13  C   UNL     1      35.807 -24.907 -12.036  0.00  0.00    +0.068 C 
ATOM     14  C   UNL     1      37.052 -25.794 -11.962  0.00  0.00    -0.004 C 
ATOM     15  C   UNL     1      36.077 -23.536 -11.413  0.00  0.00    -0.004 C 
ATOM     16  C   UNL     1      38.316 -25.075 -12.439  0.00  0.00    -0.080 C 
ATOM     17  C   UNL     1      37.376 -22.910 -11.923  0.00  0.00    -0.080 C 
ATOM     18  H   UNL     1      39.356 -23.359 -12.088  0.00  0.00    -0.085 HD
ATOM     19  H   UNL     1      38.602 -24.007 -10.736  0.00  0.00    -0.085 HD
ENDBRANCH   1  13
BRANCH   2  20
ATOM     20  C   UNL     1      34.715 -24.502 -16.223  0.00  0.00    +0.126 C 
BRANCH  20  22
ATOM     21  F   UNL     1      37.680 -20.030 -17.896  0.00  0.00    -0.204 F 
ATOM     22  C   UNL     1      35.508 -23.305 -16.671  0.00  0.00    -0.002 C 
ATOM     23  C   UNL     1      36.587 -22.876 -15.910  0.00  0.00    -0.000 C 
ATOM     24  C   UNL     1      35.151 -22.645 -17.839  0.00  0.00    -0.000 C 
ATOM     25  C   UNL     1      37.323 -21.767 -16.326  0.00  0.00    +0.029 C 
ATOM     26  C   UNL     1      35.887 -21.536 -18.255  0.00  0.00    +0.029 C 
ATOM     27  C   UNL     1      36.973 -21.096 -17.497  0.00  0.00    +0.140 C 
ENDBRANCH  20  22
ENDBRANCH   2  20
TORSDOF 3
ENDMDL
MODEL 7
REMARK VINA RESULT:      -8.3      2.869      5.778
REMARK  Name = 123618
REMARK  3 active torsions:
REMARK  status: ('A' for Active; 'I' for Inactive)
REMARK    1  A    between atoms: N_1  and  C_13
REMARK    2  A    between atoms: N_2  and  C_20
REMARK    3  A    between atoms: C_20  and  C_22
REMARK                            x       y       z     vdW  Elec       q    Type
REMARK                         _______ _______ _______ _____ _____    ______ ____
ROOT
ATOM      1  N   UNL     1      34.567 -22.572 -18.129  0.00  0.00    -0.298 N 
ATOM      2  N   UNL     1      33.789 -22.867 -15.930  0.00  0.00    -0.244 N 
ATOM      3  N   UNL     1      32.342 -23.286 -17.565  0.00  0.00    -0.376 NA
ATOM      4  C   UNL     1      33.562 -22.908 -17.275  0.00  0.00    +0.242 C 
ATOM      5  C   UNL     1      32.630 -23.247 -15.305  0.00  0.00    +0.081 C 
ATOM      6  C   UNL     1      31.743 -23.504 -16.346  0.00  0.00    +0.130 C 
ATOM      7  C   UNL     1      32.292 -23.386 -13.958  0.00  0.00    +0.017 C 
ATOM      8  C   UNL     1      30.436 -23.923 -16.044  0.00  0.00    +0.086 C 
ATOM      9  C   UNL     1      30.987 -23.804 -13.676  0.00  0.00    -0.003 C 
ATOM     10  C   UNL     1      30.074 -24.068 -14.699  0.00  0.00    -0.019 C 
ATOM     11  H   UNL     1      35.433 -22.307 -17.744  0.00  0.00    +0.150 HD
ENDROOT
BRANCH   1  13
ATOM     12  N   UNL     1      34.770 -19.847 -20.589  0.00  0.00    +0.384 N 
ATOM     13  C   UNL     1      34.440 -22.581 -19.574  0.00  0.00    +0.068 C 
ATOM     14  C   UNL     1      33.255 -21.715 -20.009  0.00  0.00    -0.004 C 
ATOM     15  C   UNL     1      35.739 -22.090 -20.215  0.00  0.00    -0.004 C 
ATOM     16  C   UNL     1      33.543 -20.218 -19.885  0.00  0.00    -0.080 C 
ATOM     17  C   UNL     1      35.925 -20.578 -20.070  0.00  0.00    -0.080 C 
ATOM     18  H   UNL     1      34.930 -18.846 -20.471  0.00  0.00    -0.085 HD
ATOM     19  H   UNL     1      34.658 -20.080 -21.576  0.00  0.00    -0.085 HD
ENDBRANCH   1  13
BRANCH   2  20
ATOM     20  C   UNL     1      35.020 -22.495 -15.267  0.00  0.00    +0.126 C 
BRANCH  20  22
ATOM     21  F   UNL     1      37.310 -26.871 -12.585  0.00  0.00    -0.204 F 
ATOM     22  C   UNL     1      35.632 -23.666 -14.548  0.00  0.00    -0.002 C 
ATOM     23  C   UNL     1      35.981 -24.802 -15.266  0.00  0.00    -0.000 C 
ATOM     24  C   UNL     1      35.841 -23.596 -13.178  0.00  0.00    -0.000 C 
ATOM     25  C   UNL     1      36.550 -25.888 -14.601  0.00  0.00    +0.029 C 
ATOM     26  C   UNL     1      36.410 -24.681 -12.512  0.00  0.00    +0.029 C 
ATOM     27  C   UNL     1      36.764 -25.827 -13.224  0.00  0.00    +0.140 C 
ENDBRANCH  20  22
ENDBRANCH   2  20
TORSDOF 3
ENDMDL
MODEL 8
REMARK VINA RESULT:      -8.2     12.909     16.132
REMARK  Name = 123618
REMARK  3 active torsions:
REMARK  status: ('A' for Active; 'I' for Inactive)
REMARK    1  A    between atoms: N_1  and  C_13
REMARK    2  A    between atoms: N_2  and  C_20
REMARK    3  A    between atoms: C_20  and  C_22
REMARK                            x       y       z     vdW  Elec       q    Type
REMARK                         _______ _______ _______ _____ _____    ______ ____
ROOT
ATOM      1  N   UNL     1      32.463  -9.317 -22.286  0.00  0.00    -0.298 N 
ATOM      2  N   UNL     1      33.778  -8.169 -23.861  0.00  0.00    -0.244 N 
ATOM      3  N   UNL     1      31.803  -7.275 -23.369  0.00  0.00    -0.376 NA
ATOM      4  C   UNL     1      32.628  -8.264 -23.134  0.00  0.00    +0.242 C 
ATOM      5  C   UNL     1      33.690  -7.033 -24.623  0.00  0.00    +0.081 C 
ATOM      6  C   UNL     1      32.450  -6.492 -24.298  0.00  0.00    +0.130 C 
ATOM      7  C   UNL     1      34.565  -6.448 -25.540  0.00  0.00    +0.017 C 
ATOM      8  C   UNL     1      32.039  -5.299 -24.916  0.00  0.00    +0.086 C 
ATOM      9  C   UNL     1      34.139  -5.261 -26.146  0.00  0.00    -0.003 C 
ATOM     10  C   UNL     1      32.900  -4.695 -25.841  0.00  0.00    -0.019 C 
ATOM     11  H   UNL     1      33.186  -9.981 -22.226  0.00  0.00    +0.150 HD
ENDROOT
BRANCH   1  13
ATOM     12  N   UNL     1      31.819 -11.652 -19.520  0.00  0.00    +0.384 N 
ATOM     13  C   UNL     1      31.285  -9.519 -21.465  0.00  0.00    +0.068 C 
ATOM     14  C   UNL     1      30.753 -10.944 -21.638  0.00  0.00    -0.004 C 
ATOM     15  C   UNL     1      31.617  -9.236 -19.999  0.00  0.00    -0.004 C 
ATOM     16  C   UNL     1      31.620 -11.987 -20.930  0.00  0.00    -0.080 C 
ATOM     17  C   UNL     1      32.458 -10.346 -19.366  0.00  0.00    -0.080 C 
ATOM     18  H   UNL     1      32.410 -12.364 -19.091  0.00  0.00    -0.085 HD
ATOM     19  H   UNL     1      30.906 -11.619 -19.066  0.00  0.00    -0.085 HD
ENDBRANCH   1  13
BRANCH   2  20
ATOM     20  C   UNL     1      34.897  -9.087 -23.845  0.00  0.00    +0.126 C 
BRANCH  20  22
ATOM     21  F   UNL     1      34.344 -13.058 -27.783  0.00  0.00    -0.204 F 
ATOM     22  C   UNL     1      34.749 -10.150 -24.898  0.00  0.00    -0.002 C 
ATOM     23  C   UNL     1      33.811 -11.159 -24.726  0.00  0.00    -0.000 C 
ATOM     24  C   UNL     1      35.553 -10.108 -26.030  0.00  0.00    -0.000 C 
ATOM     25  C   UNL     1      33.674 -12.144 -25.704  0.00  0.00    +0.029 C 
ATOM     26  C   UNL     1      35.415 -11.093 -27.008  0.00  0.00    +0.029 C 
ATOM     27  C   UNL     1      34.476 -12.111 -26.844  0.00  0.00    +0.140 C 
ENDBRANCH  20  22
ENDBRANCH   2  20
TORSDOF 3
ENDMDL
MODEL 9
REMARK VINA RESULT:      -8.2      8.224     11.891
REMARK  Name = 123618
REMARK  3 active torsions:
REMARK  status: ('A' for Active; 'I' for Inactive)
REMARK    1  A    between atoms: N_1  and  C_13
REMARK    2  A    between atoms: N_2  and  C_20
REMARK    3  A    between atoms: C_20  and  C_22
REMARK                            x       y       z     vdW  Elec       q    Type
REMARK                         _______ _______ _______ _____ _____    ______ ____
ROOT
ATOM      1  N   UNL     1      31.977 -12.609 -21.220  0.00  0.00    -0.298 N 
ATOM      2  N   UNL     1      33.300 -14.249 -22.264  0.00  0.00    -0.244 N 
ATOM      3  N   UNL     1      31.958 -13.063 -23.581  0.00  0.00    -0.376 NA
ATOM      4  C   UNL     1      32.367 -13.258 -22.352  0.00  0.00    +0.242 C 
ATOM      5  C   UNL     1      33.510 -14.731 -23.530  0.00  0.00    +0.081 C 
ATOM      6  C   UNL     1      32.662 -13.974 -24.334  0.00  0.00    +0.130 C 
ATOM      7  C   UNL     1      34.346 -15.731 -24.026  0.00  0.00    +0.017 C 
ATOM      8  C   UNL     1      32.631 -14.218 -25.717  0.00  0.00    +0.086 C 
ATOM      9  C   UNL     1      34.302 -15.961 -25.406  0.00  0.00    -0.003 C 
ATOM     10  C   UNL     1      33.461 -15.220 -26.238  0.00  0.00    -0.019 C 
ATOM     11  H   UNL     1      32.386 -12.880 -20.367  0.00  0.00    +0.150 HD
ENDROOT
BRANCH   1  13
ATOM     12  N   UNL     1      32.326  -9.027 -20.469  0.00  0.00    +0.384 N 
ATOM     13  C   UNL     1      30.996 -11.541 -21.195  0.00  0.00    +0.068 C 
ATOM     14  C   UNL     1      30.904 -10.936 -19.792  0.00  0.00    -0.004 C 
ATOM     15  C   UNL     1      31.362 -10.473 -22.227  0.00  0.00    -0.004 C 
ATOM     16  C   UNL     1      32.107 -10.054 -19.451  0.00  0.00    -0.080 C 
ATOM     17  C   UNL     1      32.553  -9.620 -21.786  0.00  0.00    -0.080 C 
ATOM     18  H   UNL     1      33.141  -8.471 -20.210  0.00  0.00    -0.085 HD
ATOM     19  H   UNL     1      31.492  -8.441 -20.520  0.00  0.00    -0.085 HD
ENDBRANCH   1  13
BRANCH   2  20
ATOM     20  C   UNL     1      33.959 -14.719 -21.064  0.00  0.00    +0.126 C 
BRANCH  20  22
ATOM     21  F   UNL     1      34.190 -20.333 -20.925  0.00  0.00    -0.204 F 
ATOM     22  C   UNL     1      34.021 -16.222 -21.026  0.00  0.00    -0.002 C 
ATOM     23  C   UNL     1      32.845 -16.953 -20.917  0.00  0.00    -0.000 C 
ATOM     24  C   UNL     1      35.253 -16.858 -21.102  0.00  0.00    -0.000 C 
ATOM     25  C   UNL     1      32.903 -18.345 -20.884  0.00  0.00    +0.029 C 
ATOM     26  C   UNL     1      35.310 -18.251 -21.068  0.00  0.00    +0.029 C 
ATOM     27  C   UNL     1      34.135 -18.995 -20.958  0.00  0.00    +0.140 C 
ENDBRANCH  20  22
ENDBRANCH   2  20
TORSDOF 3
ENDMDL
