MODEL 1
REMARK VINA RESULT:     -14.2      0.000      0.000
REMARK  Name = 21081761
REMARK  5 active torsions:
REMARK  status: ('A' for Active; 'I' for Inactive)
REMARK    1  A    between atoms: N_2  and  C_6
REMARK    2  A    between atoms: C_3  and  C_25
REMARK    3  A    between atoms: C_7  and  O_12
REMARK    4  A    between atoms: O_12  and  C_16
REMARK    5  A    between atoms: N_24  and  C_31
REMARK                            x       y       z     vdW  Elec       q    Type
REMARK                         _______ _______ _______ _____ _____    ______ ____
ROOT
ATOM      1  O   UNL     1      35.312 -16.902 -20.414  0.00  0.00    -0.270 OA
ATOM      2  N   UNL     1      34.041 -18.509 -21.583  0.00  0.00    -0.280 N 
ATOM      3  C   UNL     1      34.593 -17.249 -21.343  0.00  0.00    +0.254 C 
ATOM      4  H   UNL     1      33.483 -18.591 -22.390  0.00  0.00    +0.155 HD
ENDROOT
BRANCH   2   6
ATOM      5  F   UNL     1      36.827 -21.764 -19.459  0.00  0.00    -0.201 F 
ATOM      6  C   UNL     1      34.184 -19.667 -20.819  0.00  0.00    +0.053 C 
ATOM      7  C   UNL     1      34.471 -21.984 -19.292  0.00  0.00    +0.173 C 
ATOM      8  C   UNL     1      35.458 -20.149 -20.513  0.00  0.00    +0.047 C 
ATOM      9  C   UNL     1      33.054 -20.344 -20.360  0.00  0.00    +0.018 C 
ATOM     10  C   UNL     1      35.601 -21.308 -19.750  0.00  0.00    +0.176 C 
ATOM     11  C   UNL     1      33.197 -21.503 -19.598  0.00  0.00    +0.041 C 
BRANCH   7  12
ATOM     12  O   UNL     1      34.612 -23.133 -18.537  0.00  0.00    -0.451 OA
BRANCH  12  16
ATOM     13  N   UNL     1      35.020 -23.128 -13.899  0.00  0.00    -0.297 N 
ATOM     14  N   UNL     1      32.764 -23.192 -14.740  0.00  0.00    -0.229 NA
ATOM     15  C   UNL     1      34.791 -23.132 -16.120  0.00  0.00    +0.067 C 
ATOM     16  C   UNL     1      34.030 -23.151 -17.301  0.00  0.00    +0.150 C 
ATOM     17  C   UNL     1      34.099 -23.153 -14.913  0.00  0.00    +0.135 C 
ATOM     18  C   UNL     1      36.174 -23.093 -15.801  0.00  0.00    +0.022 C 
ATOM     19  C   UNL     1      36.285 -23.092 -14.428  0.00  0.00    +0.063 C 
ATOM     20  C   UNL     1      32.642 -23.191 -17.180  0.00  0.00    +0.058 C 
ATOM     21  C   UNL     1      32.082 -23.210 -15.909  0.00  0.00    +0.103 C 
ATOM     22  H   UNL     1      34.808 -23.135 -12.937  0.00  0.00    +0.154 HD
ENDBRANCH  12  16
ENDBRANCH   7  12
ENDBRANCH   2   6
BRANCH   3  25
ATOM     23  O   UNL     1      33.382 -14.691 -20.857  0.00  0.00    -0.269 OA
ATOM     24  N   UNL     1      33.370 -14.066 -23.138  0.00  0.00    -0.233 N 
ATOM     25  C   UNL     1      34.222 -16.269 -22.370  0.00  0.00    +0.108 C 
ATOM     26  C   UNL     1      33.633 -14.927 -22.039  0.00  0.00    +0.261 C 
ATOM     27  C   UNL     1      33.592 -14.517 -24.440  0.00  0.00    +0.072 C 
ATOM     28  C   UNL     1      34.414 -16.627 -23.645  0.00  0.00    +0.010 C 
ATOM     29  C   UNL     1      34.082 -15.731 -24.712  0.00  0.00    +0.017 C 
BRANCH  24  31
ATOM     30  F   UNL     1      31.371  -8.937 -22.230  0.00  0.00    -0.204 F 
ATOM     31  C   UNL     1      32.851 -12.733 -22.902  0.00  0.00    +0.059 C 
ATOM     32  C   UNL     1      33.386 -11.644 -23.591  0.00  0.00    +0.018 C 
ATOM     33  C   UNL     1      31.815 -12.540 -21.986  0.00  0.00    +0.018 C 
ATOM     34  C   UNL     1      32.885 -10.362 -23.364  0.00  0.00    +0.031 C 
ATOM     35  C   UNL     1      31.315 -11.258 -21.760  0.00  0.00    +0.031 C 
ATOM     36  C   UNL     1      31.850 -10.169 -22.449  0.00  0.00    +0.140 C 
ENDBRANCH  24  31
ENDBRANCH   3  25
TORSDOF 5
ENDMDL
MODEL 2
REMARK VINA RESULT:     -14.0      0.732      1.814
REMARK  Name = 21081761
REMARK  5 active torsions:
REMARK  status: ('A' for Active; 'I' for Inactive)
REMARK    1  A    between atoms: N_2  and  C_6
REMARK    2  A    between atoms: C_3  and  C_25
REMARK    3  A    between atoms: C_7  and  O_12
REMARK    4  A    between atoms: O_12  and  C_16
REMARK    5  A    between atoms: N_24  and  C_31
REMARK                            x       y       z     vdW  Elec       q    Type
REMARK                         _______ _______ _______ _____ _____    ______ ____
ROOT
ATOM      1  O   UNL     1      34.984 -16.397 -20.371  0.00  0.00    -0.270 OA
ATOM      2  N   UNL     1      34.071 -18.070 -21.762  0.00  0.00    -0.280 N 
ATOM      3  C   UNL     1      34.415 -16.768 -21.390  0.00  0.00    +0.254 C 
ATOM      4  H   UNL     1      33.612 -18.166 -22.627  0.00  0.00    +0.155 HD
ENDROOT
BRANCH   2   6
ATOM      5  F   UNL     1      37.065 -21.428 -20.140  0.00  0.00    -0.201 F 
ATOM      6  C   UNL     1      34.298 -19.251 -21.055  0.00  0.00    +0.053 C 
ATOM      7  C   UNL     1      34.752 -21.614 -19.644  0.00  0.00    +0.173 C 
ATOM      8  C   UNL     1      35.592 -19.762 -20.947  0.00  0.00    +0.047 C 
ATOM      9  C   UNL     1      33.232 -19.922 -20.457  0.00  0.00    +0.018 C 
ATOM     10  C   UNL     1      35.820 -20.944 -20.241  0.00  0.00    +0.176 C 
ATOM     11  C   UNL     1      33.458 -21.104 -19.752  0.00  0.00    +0.041 C 
BRANCH   7  12
ATOM     12  O   UNL     1      34.976 -22.786 -18.946  0.00  0.00    -0.451 OA
BRANCH  12  16
ATOM     13  N   UNL     1      33.533 -23.202 -14.540  0.00  0.00    -0.297 N 
ATOM     14  N   UNL     1      35.805 -22.455 -14.819  0.00  0.00    -0.229 NA
ATOM     15  C   UNL     1      34.256 -22.992 -16.642  0.00  0.00    +0.067 C 
ATOM     16  C   UNL     1      35.228 -22.685 -17.607  0.00  0.00    +0.150 C 
ATOM     17  C   UNL     1      34.615 -22.855 -15.305  0.00  0.00    +0.135 C 
ATOM     18  C   UNL     1      32.907 -23.437 -16.662  0.00  0.00    +0.022 C 
ATOM     19  C   UNL     1      32.489 -23.557 -15.355  0.00  0.00    +0.063 C 
ATOM     20  C   UNL     1      36.480 -22.265 -17.158  0.00  0.00    +0.058 C 
ATOM     21  C   UNL     1      36.703 -22.172 -15.791  0.00  0.00    +0.103 C 
ATOM     22  H   UNL     1      33.507 -23.198 -13.555  0.00  0.00    +0.154 HD
ENDBRANCH  12  16
ENDBRANCH   7  12
ENDBRANCH   2   6
BRANCH   3  25
ATOM     23  O   UNL     1      33.297 -14.183 -20.831  0.00  0.00    -0.269 OA
ATOM     24  N   UNL     1      33.179 -13.547 -23.105  0.00  0.00    -0.233 N 
ATOM     25  C   UNL     1      34.015 -15.774 -22.392  0.00  0.00    +0.108 C 
ATOM     26  C   UNL     1      33.478 -14.420 -22.025  0.00  0.00    +0.261 C 
ATOM     27  C   UNL     1      33.319 -13.997 -24.419  0.00  0.00    +0.072 C 
ATOM     28  C   UNL     1      34.130 -16.131 -23.677  0.00  0.00    +0.010 C 
ATOM     29  C   UNL     1      33.763 -15.221 -24.721  0.00  0.00    +0.017 C 
BRANCH  24  31
ATOM     30  F   UNL     1      31.361  -8.375 -22.070  0.00  0.00    -0.204 F 
ATOM     31  C   UNL     1      32.706 -12.203 -22.837  0.00  0.00    +0.059 C 
ATOM     32  C   UNL     1      31.689 -11.995 -21.905  0.00  0.00    +0.018 C 
ATOM     33  C   UNL     1      33.270 -11.118 -23.509  0.00  0.00    +0.018 C 
ATOM     34  C   UNL     1      31.235 -10.701 -21.646  0.00  0.00    +0.031 C 
ATOM     35  C   UNL     1      32.816  -9.825 -23.250  0.00  0.00    +0.031 C 
ATOM     36  C   UNL     1      31.798  -9.616 -22.318  0.00  0.00    +0.140 C 
ENDBRANCH  24  31
ENDBRANCH   3  25
TORSDOF 5
ENDMDL
MODEL 3
REMARK VINA RESULT:     -13.7      3.231     11.967
REMARK  Name = 21081761
REMARK  5 active torsions:
REMARK  status: ('A' for Active; 'I' for Inactive)
REMARK    1  A    between atoms: N_2  and  C_6
REMARK    2  A    between atoms: C_3  and  C_25
REMARK    3  A    between atoms: C_7  and  O_12
REMARK    4  A    between atoms: O_12  and  C_16
REMARK    5  A    between atoms: N_24  and  C_31
REMARK                            x       y       z     vdW  Elec       q    Type
REMARK                         _______ _______ _______ _____ _____    ______ ____
ROOT
ATOM      1  O   UNL     1      35.097 -14.430 -21.558  0.00  0.00    -0.270 OA
ATOM      2  N   UNL     1      33.709 -14.289 -23.461  0.00  0.00    -0.280 N 
ATOM      3  C   UNL     1      34.513 -14.927 -22.514  0.00  0.00    +0.254 C 
ATOM      4  H   UNL     1      33.324 -14.865 -24.161  0.00  0.00    +0.155 HD
ENDROOT
BRANCH   2   6
ATOM      5  F   UNL     1      34.567  -9.902 -25.160  0.00  0.00    -0.201 F 
ATOM      6  C   UNL     1      33.384 -12.935 -23.537  0.00  0.00    +0.053 C 
ATOM      7  C   UNL     1      32.736 -10.225 -23.686  0.00  0.00    +0.173 C 
ATOM      8  C   UNL     1      34.151 -12.076 -24.325  0.00  0.00    +0.047 C 
ATOM      9  C   UNL     1      32.293 -12.438 -22.824  0.00  0.00    +0.018 C 
ATOM     10  C   UNL     1      33.827 -10.721 -24.400  0.00  0.00    +0.176 C 
ATOM     11  C   UNL     1      31.969 -11.083 -22.898  0.00  0.00    +0.041 C 
BRANCH   7  12
ATOM     12  O   UNL     1      32.416  -8.883 -23.759  0.00  0.00    -0.451 OA
BRANCH  12  16
ATOM     13  N   UNL     1      31.122  -5.052 -21.451  0.00  0.00    -0.297 N 
ATOM     14  N   UNL     1      32.056  -6.811 -20.097  0.00  0.00    -0.229 NA
ATOM     15  C   UNL     1      31.752  -6.903 -22.528  0.00  0.00    +0.067 C 
ATOM     16  C   UNL     1      32.292  -8.199 -22.582  0.00  0.00    +0.150 C 
ATOM     17  C   UNL     1      31.672  -6.296 -21.279  0.00  0.00    +0.135 C 
ATOM     18  C   UNL     1      31.230  -5.978 -23.471  0.00  0.00    +0.022 C 
ATOM     19  C   UNL     1      30.850  -4.849 -22.779  0.00  0.00    +0.063 C 
ATOM     20  C   UNL     1      32.707  -8.781 -21.385  0.00  0.00    +0.058 C 
ATOM     21  C   UNL     1      32.568  -8.059 -20.208  0.00  0.00    +0.103 C 
ATOM     22  H   UNL     1      30.948  -4.403 -20.731  0.00  0.00    +0.154 HD
ENDBRANCH  12  16
ENDBRANCH   7  12
ENDBRANCH   2   6
BRANCH   3  25
ATOM     23  O   UNL     1      34.640 -16.958 -20.488  0.00  0.00    -0.269 OA
ATOM     24  N   UNL     1      34.708 -18.745 -22.036  0.00  0.00    -0.233 N 
ATOM     25  C   UNL     1      34.627 -16.370 -22.755  0.00  0.00    +0.108 C 
ATOM     26  C   UNL     1      34.642 -17.381 -21.645  0.00  0.00    +0.261 C 
ATOM     27  C   UNL     1      34.829 -19.074 -23.386  0.00  0.00    +0.072 C 
ATOM     28  C   UNL     1      34.738 -16.763 -24.029  0.00  0.00    +0.010 C 
ATOM     29  C   UNL     1      34.852 -18.154 -24.356  0.00  0.00    +0.017 C 
BRANCH  24  31
ATOM     30  F   UNL     1      34.574 -22.754 -18.158  0.00  0.00    -0.204 F 
ATOM     31  C   UNL     1      34.673 -19.787 -21.027  0.00  0.00    +0.059 C 
ATOM     32  C   UNL     1      33.448 -20.259 -20.554  0.00  0.00    +0.018 C 
ATOM     33  C   UNL     1      35.864 -20.318 -20.532  0.00  0.00    +0.018 C 
ATOM     34  C   UNL     1      33.415 -21.261 -19.585  0.00  0.00    +0.031 C 
ATOM     35  C   UNL     1      35.831 -21.321 -19.563  0.00  0.00    +0.031 C 
ATOM     36  C   UNL     1      34.607 -21.792 -19.089  0.00  0.00    +0.140 C 
ENDBRANCH  24  31
ENDBRANCH   3  25
TORSDOF 5
ENDMDL
MODEL 4
REMARK VINA RESULT:     -13.6      3.045      5.469
REMARK  Name = 21081761
REMARK  5 active torsions:
REMARK  status: ('A' for Active; 'I' for Inactive)
REMARK    1  A    between atoms: N_2  and  C_6
REMARK    2  A    between atoms: C_3  and  C_25
REMARK    3  A    between atoms: C_7  and  O_12
REMARK    4  A    between atoms: O_12  and  C_16
REMARK    5  A    between atoms: N_24  and  C_31
REMARK                            x       y       z     vdW  Elec       q    Type
REMARK                         _______ _______ _______ _____ _____    ______ ____
ROOT
ATOM      1  O   UNL     1      32.700 -13.241 -24.942  0.00  0.00    -0.270 OA
ATOM      2  N   UNL     1      34.264 -13.540 -23.201  0.00  0.00    -0.280 N 
ATOM      3  C   UNL     1      33.522 -12.818 -24.138  0.00  0.00    +0.254 C 
ATOM      4  H   UNL     1      34.881 -13.016 -22.640  0.00  0.00    +0.155 HD
ENDROOT
BRANCH   2   6
ATOM      5  F   UNL     1      34.938 -18.028 -24.710  0.00  0.00    -0.201 F 
ATOM      6  C   UNL     1      34.240 -14.915 -22.964  0.00  0.00    +0.053 C 
ATOM      7  C   UNL     1      34.188 -17.663 -22.489  0.00  0.00    +0.173 C 
ATOM      8  C   UNL     1      34.608 -15.805 -23.973  0.00  0.00    +0.047 C 
ATOM      9  C   UNL     1      33.847 -15.400 -21.716  0.00  0.00    +0.018 C 
ATOM     10  C   UNL     1      34.582 -17.179 -23.736  0.00  0.00    +0.176 C 
ATOM     11  C   UNL     1      33.820 -16.774 -21.479  0.00  0.00    +0.041 C 
BRANCH   7  12
ATOM     12  O   UNL     1      34.161 -19.025 -22.254  0.00  0.00    -0.451 OA
BRANCH  12  16
ATOM     13  N   UNL     1      35.015 -21.876 -18.673  0.00  0.00    -0.297 N 
ATOM     14  N   UNL     1      36.877 -20.527 -19.390  0.00  0.00    -0.229 NA
ATOM     15  C   UNL     1      34.638 -20.497 -20.389  0.00  0.00    +0.067 C 
ATOM     16  C   UNL     1      35.028 -19.522 -21.321  0.00  0.00    +0.150 C 
ATOM     17  C   UNL     1      35.598 -20.935 -19.482  0.00  0.00    +0.135 C 
ATOM     18  C   UNL     1      33.443 -21.210 -20.100  0.00  0.00    +0.022 C 
ATOM     19  C   UNL     1      33.706 -22.050 -19.040  0.00  0.00    +0.063 C 
ATOM     20  C   UNL     1      36.343 -19.063 -21.271  0.00  0.00    +0.058 C 
ATOM     21  C   UNL     1      37.197 -19.587 -20.310  0.00  0.00    +0.103 C 
ATOM     22  H   UNL     1      35.467 -22.354 -17.940  0.00  0.00    +0.154 HD
ENDBRANCH  12  16
ENDBRANCH   7  12
ENDBRANCH   2   6
BRANCH   3  25
ATOM     23  O   UNL     1      31.881 -10.810 -22.906  0.00  0.00    -0.269 OA
ATOM     24  N   UNL     1      33.370  -9.040 -23.399  0.00  0.00    -0.233 N 
ATOM     25  C   UNL     1      33.814 -11.381 -24.098  0.00  0.00    +0.108 C 
ATOM     26  C   UNL     1      32.931 -10.391 -23.394  0.00  0.00    +0.261 C 
ATOM     27  C   UNL     1      34.524  -8.689 -24.100  0.00  0.00    +0.072 C 
ATOM     28  C   UNL     1      34.913 -10.969 -24.742  0.00  0.00    +0.010 C 
ATOM     29  C   UNL     1      35.274  -9.582 -24.752  0.00  0.00    +0.017 C 
BRANCH  24  31
ATOM     30  F   UNL     1      30.416  -5.154 -20.697  0.00  0.00    -0.204 F 
ATOM     31  C   UNL     1      32.602  -8.030 -22.697  0.00  0.00    +0.059 C 
ATOM     32  C   UNL     1      31.614  -7.311 -23.370  0.00  0.00    +0.018 C 
ATOM     33  C   UNL     1      32.851  -7.777 -21.347  0.00  0.00    +0.018 C 
ATOM     34  C   UNL     1      30.876  -6.340 -22.695  0.00  0.00    +0.031 C 
ATOM     35  C   UNL     1      32.112  -6.806 -20.671  0.00  0.00    +0.031 C 
ATOM     36  C   UNL     1      31.125  -6.087 -21.345  0.00  0.00    +0.140 C 
ENDBRANCH  24  31
ENDBRANCH   3  25
TORSDOF 5
ENDMDL
MODEL 5
REMARK VINA RESULT:     -13.6      2.897      4.962
REMARK  Name = 21081761
REMARK  5 active torsions:
REMARK  status: ('A' for Active; 'I' for Inactive)
REMARK    1  A    between atoms: N_2  and  C_6
REMARK    2  A    between atoms: C_3  and  C_25
REMARK    3  A    between atoms: C_7  and  O_12
REMARK    4  A    between atoms: O_12  and  C_16
REMARK    5  A    between atoms: N_24  and  C_31
REMARK                            x       y       z     vdW  Elec       q    Type
REMARK                         _______ _______ _______ _____ _____    ______ ____
ROOT
ATOM      1  O   UNL     1      32.229 -13.706 -23.517  0.00  0.00    -0.270 OA
ATOM      2  N   UNL     1      34.569 -13.899 -23.286  0.00  0.00    -0.280 N 
ATOM      3  C   UNL     1      33.360 -13.236 -23.510  0.00  0.00    +0.254 C 
ATOM      4  H   UNL     1      35.380 -13.343 -23.323  0.00  0.00    +0.155 HD
ENDROOT
BRANCH   2   6
ATOM      5  F   UNL     1      35.016 -18.412 -24.804  0.00  0.00    -0.201 F 
ATOM      6  C   UNL     1      34.767 -15.253 -23.017  0.00  0.00    +0.053 C 
ATOM      7  C   UNL     1      35.160 -17.962 -22.479  0.00  0.00    +0.173 C 
ATOM      8  C   UNL     1      34.793 -16.176 -24.063  0.00  0.00    +0.047 C 
ATOM      9  C   UNL     1      34.938 -15.685 -21.702  0.00  0.00    +0.018 C 
ATOM     10  C   UNL     1      34.990 -17.531 -23.794  0.00  0.00    +0.176 C 
ATOM     11  C   UNL     1      35.134 -17.040 -21.433  0.00  0.00    +0.041 C 
BRANCH   7  12
ATOM     12  O   UNL     1      35.354 -19.304 -22.211  0.00  0.00    -0.451 OA
BRANCH  12  16
ATOM     13  N   UNL     1      34.875 -21.927 -18.395  0.00  0.00    -0.297 N 
ATOM     14  N   UNL     1      32.826 -21.071 -19.327  0.00  0.00    -0.229 NA
ATOM     15  C   UNL     1      35.071 -20.665 -20.226  0.00  0.00    +0.067 C 
ATOM     16  C   UNL     1      34.550 -19.883 -21.270  0.00  0.00    +0.150 C 
ATOM     17  C   UNL     1      34.165 -21.208 -19.321  0.00  0.00    +0.135 C 
ATOM     18  C   UNL     1      36.365 -21.083 -19.815  0.00  0.00    +0.022 C 
ATOM     19  C   UNL     1      36.213 -21.857 -18.686  0.00  0.00    +0.063 C 
ATOM     20  C   UNL     1      33.168 -19.707 -21.324  0.00  0.00    +0.058 C 
ATOM     21  C   UNL     1      32.380 -20.309 -20.353  0.00  0.00    +0.103 C 
ATOM     22  H   UNL     1      34.484 -22.419 -17.636  0.00  0.00    +0.154 HD
ENDBRANCH  12  16
ENDBRANCH   7  12
ENDBRANCH   2   6
BRANCH   3  25
ATOM     23  O   UNL     1      31.865 -11.116 -22.279  0.00  0.00    -0.269 OA
ATOM     24  N   UNL     1      33.079  -9.397 -23.357  0.00  0.00    -0.233 N 
ATOM     25  C   UNL     1      33.544 -11.803 -23.761  0.00  0.00    +0.108 C 
ATOM     26  C   UNL     1      32.755 -10.744 -23.044  0.00  0.00    +0.261 C 
ATOM     27  C   UNL     1      34.031  -9.123 -24.340  0.00  0.00    +0.072 C 
ATOM     28  C   UNL     1      34.449 -11.462 -24.685  0.00  0.00    +0.010 C 
ATOM     29  C   UNL     1      34.695 -10.084 -24.992  0.00  0.00    +0.017 C 
BRANCH  24  31
ATOM     30  F   UNL     1      30.469  -5.231 -20.720  0.00  0.00    -0.204 F 
ATOM     31  C   UNL     1      32.401  -8.314 -22.672  0.00  0.00    +0.059 C 
ATOM     32  C   UNL     1      31.428  -7.568 -23.338  0.00  0.00    +0.018 C 
ATOM     33  C   UNL     1      32.721  -8.019 -21.346  0.00  0.00    +0.018 C 
ATOM     34  C   UNL     1      30.775  -6.526 -22.678  0.00  0.00    +0.031 C 
ATOM     35  C   UNL     1      32.068  -6.978 -20.686  0.00  0.00    +0.031 C 
ATOM     36  C   UNL     1      31.095  -6.231 -21.352  0.00  0.00    +0.140 C 
ENDBRANCH  24  31
ENDBRANCH   3  25
TORSDOF 5
ENDMDL
MODEL 6
REMARK VINA RESULT:     -13.2      3.169     11.040
REMARK  Name = 21081761
REMARK  5 active torsions:
REMARK  status: ('A' for Active; 'I' for Inactive)
REMARK    1  A    between atoms: N_2  and  C_6
REMARK    2  A    between atoms: C_3  and  C_25
REMARK    3  A    between atoms: C_7  and  O_12
REMARK    4  A    between atoms: O_12  and  C_16
REMARK    5  A    between atoms: N_24  and  C_31
REMARK                            x       y       z     vdW  Elec       q    Type
REMARK                         _______ _______ _______ _____ _____    ______ ____
ROOT
ATOM      1  O   UNL     1      33.496 -23.210 -19.719  0.00  0.00    -0.270 OA
ATOM      2  N   UNL     1      34.484 -21.274 -18.801  0.00  0.00    -0.280 N 
ATOM      3  C   UNL     1      33.865 -22.526 -18.772  0.00  0.00    +0.254 C 
ATOM      4  H   UNL     1      34.705 -20.880 -17.926  0.00  0.00    +0.155 HD
ENDROOT
BRANCH   2   6
ATOM      5  F   UNL     1      37.759 -18.958 -21.405  0.00  0.00    -0.201 F 
ATOM      6  C   UNL     1      34.825 -20.513 -19.919  0.00  0.00    +0.053 C 
ATOM      7  C   UNL     1      35.507 -18.988 -22.153  0.00  0.00    +0.173 C 
ATOM      8  C   UNL     1      36.146 -20.106 -20.110  0.00  0.00    +0.047 C 
ATOM      9  C   UNL     1      33.846 -20.157 -20.846  0.00  0.00    +0.018 C 
ATOM     10  C   UNL     1      36.488 -19.343 -21.227  0.00  0.00    +0.176 C 
ATOM     11  C   UNL     1      34.186 -19.394 -21.963  0.00  0.00    +0.041 C 
BRANCH   7  12
ATOM     12  O   UNL     1      35.845 -18.231 -23.260  0.00  0.00    -0.451 OA
BRANCH  12  16
ATOM     13  N   UNL     1      33.622 -14.369 -21.913  0.00  0.00    -0.297 N 
ATOM     14  N   UNL     1      33.380 -14.945 -24.239  0.00  0.00    -0.229 NA
ATOM     15  C   UNL     1      34.676 -16.217 -22.591  0.00  0.00    +0.067 C 
ATOM     16  C   UNL     1      35.048 -17.162 -23.560  0.00  0.00    +0.150 C 
ATOM     17  C   UNL     1      33.862 -15.166 -23.001  0.00  0.00    +0.135 C 
ATOM     18  C   UNL     1      34.923 -16.029 -21.204  0.00  0.00    +0.022 C 
ATOM     19  C   UNL     1      34.262 -14.884 -20.815  0.00  0.00    +0.063 C 
ATOM     20  C   UNL     1      34.577 -16.982 -24.860  0.00  0.00    +0.058 C 
ATOM     21  C   UNL     1      33.769 -15.886 -25.131  0.00  0.00    +0.103 C 
ATOM     22  H   UNL     1      33.073 -13.551 -21.917  0.00  0.00    +0.154 HD
ENDBRANCH  12  16
ENDBRANCH   7  12
ENDBRANCH   2   6
BRANCH   3  25
ATOM     23  O   UNL     1      35.947 -23.238 -16.928  0.00  0.00    -0.269 OA
ATOM     24  N   UNL     1      34.454 -23.756 -15.169  0.00  0.00    -0.233 N 
ATOM     25  C   UNL     1      33.665 -23.021 -17.406  0.00  0.00    +0.108 C 
ATOM     26  C   UNL     1      34.805 -23.331 -16.478  0.00  0.00    +0.261 C 
ATOM     27  C   UNL     1      33.111 -23.934 -14.835  0.00  0.00    +0.072 C 
ATOM     28  C   UNL     1      32.401 -23.209 -17.010  0.00  0.00    +0.010 C 
ATOM     29  C   UNL     1      32.114 -23.688 -15.690  0.00  0.00    +0.017 C 
BRANCH  24  31
ATOM     30  F   UNL     1      38.454 -24.789 -11.420  0.00  0.00    -0.204 F 
ATOM     31  C   UNL     1      35.494 -24.024 -14.194  0.00  0.00    +0.059 C 
ATOM     32  C   UNL     1      35.765 -23.095 -13.190  0.00  0.00    +0.018 C 
ATOM     33  C   UNL     1      36.222 -25.213 -14.261  0.00  0.00    +0.018 C 
ATOM     34  C   UNL     1      36.765 -23.354 -12.252  0.00  0.00    +0.031 C 
ATOM     35  C   UNL     1      37.222 -25.471 -13.324  0.00  0.00    +0.031 C 
ATOM     36  C   UNL     1      37.494 -24.542 -12.319  0.00  0.00    +0.140 C 
ENDBRANCH  24  31
ENDBRANCH   3  25
TORSDOF 5
ENDMDL
MODEL 7
REMARK VINA RESULT:     -13.1      3.115      5.442
REMARK  Name = 21081761
REMARK  5 active torsions:
REMARK  status: ('A' for Active; 'I' for Inactive)
REMARK    1  A    between atoms: N_2  and  C_6
REMARK    2  A    between atoms: C_3  and  C_25
REMARK    3  A    between atoms: C_7  and  O_12
REMARK    4  A    between atoms: O_12  and  C_16
REMARK    5  A    between atoms: N_24  and  C_31
REMARK                            x       y       z     vdW  Elec       q    Type
REMARK                         _______ _______ _______ _____ _____    ______ ____
ROOT
ATOM      1  O   UNL     1      31.934 -13.406 -23.513  0.00  0.00    -0.270 OA
ATOM      2  N   UNL     1      33.583 -13.460 -21.826  0.00  0.00    -0.280 N 
ATOM      3  C   UNL     1      32.596 -12.880 -22.627  0.00  0.00    +0.254 C 
ATOM      4  H   UNL     1      34.007 -12.868 -21.164  0.00  0.00    +0.155 HD
ENDROOT
BRANCH   2   6
ATOM      5  F   UNL     1      34.739 -17.410 -24.263  0.00  0.00    -0.201 F 
ATOM      6  C   UNL     1      34.041 -14.778 -21.851  0.00  0.00    +0.053 C 
ATOM      7  C   UNL     1      34.956 -17.413 -21.901  0.00  0.00    +0.173 C 
ATOM      8  C   UNL     1      34.164 -15.451 -23.067  0.00  0.00    +0.047 C 
ATOM      9  C   UNL     1      34.377 -15.422 -20.660  0.00  0.00    +0.018 C 
ATOM     10  C   UNL     1      34.621 -16.769 -23.092  0.00  0.00    +0.176 C 
ATOM     11  C   UNL     1      34.833 -16.740 -20.685  0.00  0.00    +0.041 C 
BRANCH   7  12
ATOM     12  O   UNL     1      35.408 -18.719 -21.924  0.00  0.00    -0.451 OA
BRANCH  12  16
ATOM     13  N   UNL     1      35.445 -22.050 -18.673  0.00  0.00    -0.297 N 
ATOM     14  N   UNL     1      33.283 -21.530 -19.597  0.00  0.00    -0.229 NA
ATOM     15  C   UNL     1      35.393 -20.456 -20.235  0.00  0.00    +0.067 C 
ATOM     16  C   UNL     1      34.735 -19.633 -21.164  0.00  0.00    +0.150 C 
ATOM     17  C   UNL     1      34.615 -21.354 -19.511  0.00  0.00    +0.135 C 
ATOM     18  C   UNL     1      36.735 -20.634 -19.804  0.00  0.00    +0.022 C 
ATOM     19  C   UNL     1      36.736 -21.621 -18.843  0.00  0.00    +0.063 C 
ATOM     20  C   UNL     1      33.354 -19.774 -21.293  0.00  0.00    +0.058 C 
ATOM     21  C   UNL     1      32.702 -20.713 -20.506  0.00  0.00    +0.103 C 
ATOM     22  H   UNL     1      35.160 -22.752 -18.043  0.00  0.00    +0.154 HD
ENDBRANCH  12  16
ENDBRANCH   7  12
ENDBRANCH   2   6
BRANCH   3  25
ATOM     23  O   UNL     1      33.411 -10.660 -24.255  0.00  0.00    -0.269 OA
ATOM     24  N   UNL     1      32.474  -9.034 -22.816  0.00  0.00    -0.233 N 
ATOM     25  C   UNL     1      32.380 -11.464 -22.312  0.00  0.00    +0.108 C 
ATOM     26  C   UNL     1      32.793 -10.353 -23.235  0.00  0.00    +0.261 C 
ATOM     27  C   UNL     1      31.879  -8.827 -21.571  0.00  0.00    +0.072 C 
ATOM     28  C   UNL     1      31.804 -11.186 -21.136  0.00  0.00    +0.010 C 
ATOM     29  C   UNL     1      31.554  -9.830 -20.749  0.00  0.00    +0.017 C 
BRANCH  24  31
ATOM     30  F   UNL     1      33.694  -4.704 -26.116  0.00  0.00    -0.204 F 
ATOM     31  C   UNL     1      32.791  -7.908 -23.674  0.00  0.00    +0.059 C 
ATOM     32  C   UNL     1      34.111  -7.677 -24.062  0.00  0.00    +0.018 C 
ATOM     33  C   UNL     1      31.776  -7.057 -24.111  0.00  0.00    +0.018 C 
ATOM     34  C   UNL     1      34.416  -6.595 -24.888  0.00  0.00    +0.031 C 
ATOM     35  C   UNL     1      32.080  -5.975 -24.937  0.00  0.00    +0.031 C 
ATOM     36  C   UNL     1      33.400  -5.744 -25.325  0.00  0.00    +0.140 C 
ENDBRANCH  24  31
ENDBRANCH   3  25
TORSDOF 5
ENDMDL
MODEL 8
REMARK VINA RESULT:     -13.0      3.053     11.386
REMARK  Name = 21081761
REMARK  5 active torsions:
REMARK  status: ('A' for Active; 'I' for Inactive)
REMARK    1  A    between atoms: N_2  and  C_6
REMARK    2  A    between atoms: C_3  and  C_25
REMARK    3  A    between atoms: C_7  and  O_12
REMARK    4  A    between atoms: O_12  and  C_16
REMARK    5  A    between atoms: N_24  and  C_31
REMARK                            x       y       z     vdW  Elec       q    Type
REMARK                         _______ _______ _______ _____ _____    ______ ____
ROOT
ATOM      1  O   UNL     1      33.820 -23.477 -19.616  0.00  0.00    -0.270 OA
ATOM      2  N   UNL     1      34.100 -21.307 -18.734  0.00  0.00    -0.280 N 
ATOM      3  C   UNL     1      33.874 -22.684 -18.684  0.00  0.00    +0.254 C 
ATOM      4  H   UNL     1      34.106 -20.837 -17.869  0.00  0.00    +0.155 HD
ENDROOT
BRANCH   2   6
ATOM      5  F   UNL     1      37.079 -18.970 -21.656  0.00  0.00    -0.201 F 
ATOM      6  C   UNL     1      34.317 -20.514 -19.862  0.00  0.00    +0.053 C 
ATOM      7  C   UNL     1      34.751 -18.929 -22.115  0.00  0.00    +0.173 C 
ATOM      8  C   UNL     1      35.613 -20.129 -20.205  0.00  0.00    +0.047 C 
ATOM      9  C   UNL     1      33.238 -20.107 -20.647  0.00  0.00    +0.018 C 
ATOM     10  C   UNL     1      35.831 -19.336 -21.332  0.00  0.00    +0.176 C 
ATOM     11  C   UNL     1      33.455 -19.314 -21.773  0.00  0.00    +0.041 C 
BRANCH   7  12
ATOM     12  O   UNL     1      34.966 -18.142 -23.231  0.00  0.00    -0.451 OA
BRANCH  12  16
ATOM     13  N   UNL     1      33.315 -14.252 -25.186  0.00  0.00    -0.297 N 
ATOM     14  N   UNL     1      34.015 -14.041 -22.891  0.00  0.00    -0.229 NA
ATOM     15  C   UNL     1      34.112 -16.100 -24.219  0.00  0.00    +0.067 C 
ATOM     16  C   UNL     1      34.652 -16.815 -23.138  0.00  0.00    +0.150 C 
ATOM     17  C   UNL     1      33.829 -14.753 -24.018  0.00  0.00    +0.135 C 
ATOM     18  C   UNL     1      33.751 -16.401 -25.560  0.00  0.00    +0.022 C 
ATOM     19  C   UNL     1      33.264 -15.245 -26.129  0.00  0.00    +0.063 C 
ATOM     20  C   UNL     1      34.866 -16.126 -21.944  0.00  0.00    +0.058 C 
ATOM     21  C   UNL     1      34.538 -14.779 -21.883  0.00  0.00    +0.103 C 
ATOM     22  H   UNL     1      33.027 -13.320 -25.326  0.00  0.00    +0.154 HD
ENDBRANCH  12  16
ENDBRANCH   7  12
ENDBRANCH   2   6
BRANCH   3  25
ATOM     23  O   UNL     1      35.975 -23.329 -16.837  0.00  0.00    -0.269 OA
ATOM     24  N   UNL     1      34.497 -23.868 -15.071  0.00  0.00    -0.233 N 
ATOM     25  C   UNL     1      33.687 -23.172 -17.313  0.00  0.00    +0.108 C 
ATOM     26  C   UNL     1      34.836 -23.446 -16.384  0.00  0.00    +0.261 C 
ATOM     27  C   UNL     1      33.159 -24.076 -14.734  0.00  0.00    +0.072 C 
ATOM     28  C   UNL     1      32.429 -23.387 -16.914  0.00  0.00    +0.010 C 
ATOM     29  C   UNL     1      32.155 -23.862 -15.589  0.00  0.00    +0.017 C 
BRANCH  24  31
ATOM     30  F   UNL     1      38.528 -24.771 -11.321  0.00  0.00    -0.204 F 
ATOM     31  C   UNL     1      35.545 -24.103 -14.096  0.00  0.00    +0.059 C 
ATOM     32  C   UNL     1      36.224 -25.321 -14.082  0.00  0.00    +0.018 C 
ATOM     33  C   UNL     1      35.873 -23.110 -13.172  0.00  0.00    +0.018 C 
ATOM     34  C   UNL     1      37.232 -25.547 -13.145  0.00  0.00    +0.031 C 
ATOM     35  C   UNL     1      36.882 -23.335 -12.235  0.00  0.00    +0.031 C 
ATOM     36  C   UNL     1      37.561 -24.554 -12.222  0.00  0.00    +0.140 C 
ENDBRANCH  24  31
ENDBRANCH   3  25
TORSDOF 5
ENDMDL
MODEL 9
REMARK VINA RESULT:     -12.9      3.265      5.563
REMARK  Name = 21081761
REMARK  5 active torsions:
REMARK  status: ('A' for Active; 'I' for Inactive)
REMARK    1  A    between atoms: N_2  and  C_6
REMARK    2  A    between atoms: C_3  and  C_25
REMARK    3  A    between atoms: C_7  and  O_12
REMARK    4  A    between atoms: O_12  and  C_16
REMARK    5  A    between atoms: N_24  and  C_31
REMARK                            x       y       z     vdW  Elec       q    Type
REMARK                         _______ _______ _______ _____ _____    ______ ____
ROOT
ATOM      1  O   UNL     1      31.902 -13.804 -23.280  0.00  0.00    -0.270 OA
ATOM      2  N   UNL     1      33.734 -13.726 -21.796  0.00  0.00    -0.280 N 
ATOM      3  C   UNL     1      32.614 -13.229 -22.465  0.00  0.00    +0.254 C 
ATOM      4  H   UNL     1      34.178 -13.104 -21.174  0.00  0.00    +0.155 HD
ENDROOT
BRANCH   2   6
ATOM      5  F   UNL     1      35.341 -17.348 -24.474  0.00  0.00    -0.201 F 
ATOM      6  C   UNL     1      34.302 -14.996 -21.901  0.00  0.00    +0.053 C 
ATOM      7  C   UNL     1      35.435 -17.536 -22.110  0.00  0.00    +0.173 C 
ATOM      8  C   UNL     1      34.544 -15.551 -23.158  0.00  0.00    +0.047 C 
ATOM      9  C   UNL     1      34.628 -15.711 -20.748  0.00  0.00    +0.018 C 
ATOM     10  C   UNL     1      35.110 -16.822 -23.263  0.00  0.00    +0.176 C 
ATOM     11  C   UNL     1      35.194 -16.982 -20.853  0.00  0.00    +0.041 C 
BRANCH   7  12
ATOM     12  O   UNL     1      35.995 -18.796 -22.213  0.00  0.00    -0.451 OA
BRANCH  12  16
ATOM     13  N   UNL     1      33.133 -21.259 -19.491  0.00  0.00    -0.297 N 
ATOM     14  N   UNL     1      35.477 -21.456 -18.975  0.00  0.00    -0.229 NA
ATOM     15  C   UNL     1      34.532 -20.090 -20.779  0.00  0.00    +0.067 C 
ATOM     16  C   UNL     1      35.810 -19.656 -21.168  0.00  0.00    +0.150 C 
ATOM     17  C   UNL     1      34.455 -20.966 -19.701  0.00  0.00    +0.135 C 
ATOM     18  C   UNL     1      33.202 -19.859 -21.218  0.00  0.00    +0.022 C 
ATOM     19  C   UNL     1      32.362 -20.591 -20.407  0.00  0.00    +0.063 C 
ATOM     20  C   UNL     1      36.906 -20.133 -20.450  0.00  0.00    +0.058 C 
ATOM     21  C   UNL     1      36.683 -21.006 -19.393  0.00  0.00    +0.103 C 
ATOM     22  H   UNL     1      32.788 -21.858 -18.789  0.00  0.00    +0.154 HD
ENDBRANCH  12  16
ENDBRANCH   7  12
ENDBRANCH   2   6
BRANCH   3  25
ATOM     23  O   UNL     1      33.303 -10.903 -24.000  0.00  0.00    -0.269 OA
ATOM     24  N   UNL     1      32.261  -9.393 -22.508  0.00  0.00    -0.233 N 
ATOM     25  C   UNL     1      32.311 -11.841 -22.098  0.00  0.00    +0.108 C 
ATOM     26  C   UNL     1      32.662 -10.673 -22.974  0.00  0.00    +0.261 C 
ATOM     27  C   UNL     1      31.646  -9.270 -21.261  0.00  0.00    +0.072 C 
ATOM     28  C   UNL     1      31.712 -11.645 -20.918  0.00  0.00    +0.010 C 
ATOM     29  C   UNL     1      31.378 -10.322 -20.481  0.00  0.00    +0.017 C 
BRANCH  24  31
ATOM     30  F   UNL     1      33.238  -4.873 -25.629  0.00  0.00    -0.204 F 
ATOM     31  C   UNL     1      32.515  -8.218 -23.319  0.00  0.00    +0.059 C 
ATOM     32  C   UNL     1      33.826  -7.848 -23.620  0.00  0.00    +0.018 C 
ATOM     33  C   UNL     1      31.448  -7.457 -23.799  0.00  0.00    +0.018 C 
ATOM     34  C   UNL     1      34.070  -6.718 -24.401  0.00  0.00    +0.031 C 
ATOM     35  C   UNL     1      31.692  -6.328 -24.580  0.00  0.00    +0.031 C 
ATOM     36  C   UNL     1      33.003  -5.958 -24.881  0.00  0.00    +0.140 C 
ENDBRANCH  24  31
ENDBRANCH   3  25
TORSDOF 5
ENDMDL
