MODEL 1
REMARK VINA RESULT:      -4.1      0.000      0.000
REMARK  Name = 6215
REMARK  4 active torsions:
REMARK  status: ('A' for Active; 'I' for Inactive)
REMARK    1  A    between atoms: C_9  and  C_31
REMARK    2  A    between atoms: C_14  and  O_28
REMARK    3  A    between atoms: C_31  and  C_32
REMARK    4  A    between atoms: C_32  and  O_33
REMARK                            x       y       z     vdW  Elec       q    Type
REMARK                         _______ _______ _______ _____ _____    ______ ____
ROOT
ATOM      1  F   UNL     1      33.112 -25.382 -14.560  0.00  0.00    -0.237 F 
ATOM      2  F   UNL     1      30.941 -22.863 -11.775  0.00  0.00    -0.233 F 
ATOM      3  O   UNL     1      37.481 -25.558 -14.129  0.00  0.00    -0.330 OA
ATOM      4  O   UNL     1      38.044 -24.402 -12.161  0.00  0.00    -0.334 OA
ATOM      5  O   UNL     1      28.282 -26.027 -14.413  0.00  0.00    -0.287 OA
ATOM      6  C   UNL     1      36.152 -23.694 -15.073  0.00  0.00    +0.034 C 
ATOM      7  C   UNL     1      35.262 -23.702 -13.809  0.00  0.00    +0.008 C 
ATOM      8  C   UNL     1      33.837 -23.193 -14.067  0.00  0.00    +0.036 C 
ATOM      9  C   UNL     1      37.490 -24.170 -14.451  0.00  0.00    +0.173 C 
ATOM     10  C   UNL     1      33.152 -24.120 -15.132  0.00  0.00    +0.165 C 
ATOM     11  C   UNL     1      37.566 -23.447 -13.103  0.00  0.00    +0.149 C 
ATOM     12  C   UNL     1      36.127 -23.006 -12.756  0.00  0.00    +0.033 C 
ATOM     13  C   UNL     1      35.508 -24.651 -16.093  0.00  0.00    +0.035 C 
ATOM     14  C   UNL     1      34.034 -24.300 -16.405  0.00  0.00    +0.141 C 
ATOM     15  C   UNL     1      31.644 -23.721 -15.381  0.00  0.00    +0.066 C 
ATOM     16  C   UNL     1      33.031 -23.167 -12.758  0.00  0.00    +0.042 C 
ATOM     17  C   UNL     1      36.339 -22.278 -15.684  0.00  0.00    +0.003 C 
ATOM     18  C   UNL     1      31.575 -22.784 -12.982  0.00  0.00    +0.180 C 
ATOM     19  C   UNL     1      38.010 -25.678 -12.805  0.00  0.00    +0.188 C 
ATOM     20  C   UNL     1      30.945 -23.686 -14.014  0.00  0.00    -0.003 C 
ATOM     21  C   UNL     1      31.460 -22.336 -16.044  0.00  0.00    +0.011 C 
ATOM     22  C   UNL     1      30.983 -24.725 -16.313  0.00  0.00    -0.017 C 
ATOM     23  C   UNL     1      39.429 -26.228 -12.891  0.00  0.00    +0.061 C 
ATOM     24  C   UNL     1      37.126 -26.615 -11.987  0.00  0.00    +0.061 C 
ATOM     25  C   UNL     1      29.870 -24.431 -13.712  0.00  0.00    +0.036 C 
ATOM     26  C   UNL     1      29.914 -25.469 -16.016  0.00  0.00    +0.038 C 
ATOM     27  C   UNL     1      29.273 -25.362 -14.693  0.00  0.00    +0.195 C 
ENDROOT
BRANCH  14  28
ATOM     28  O   UNL     1      33.981 -23.155 -17.244  0.00  0.00    -0.382 OA
ATOM     29  H   UNL     1      33.315 -22.537 -16.904  0.00  0.00    +0.210 HD
ENDBRANCH  14  28
BRANCH   9  31
ATOM     30  O   UNL     1      38.674 -23.111 -16.229  0.00  0.00    -0.291 OA
ATOM     31  C   UNL     1      38.684 -23.954 -15.333  0.00  0.00    +0.207 C 
BRANCH  31  32
ATOM     32  C   UNL     1      39.889 -24.829 -15.057  0.00  0.00    +0.204 C 
BRANCH  32  33
ATOM     33  O   UNL     1      40.102 -25.736 -16.117  0.00  0.00    -0.375 OA
ATOM     34  H   UNL     1      39.449 -25.576 -16.815  0.00  0.00    +0.211 HD
ENDBRANCH  32  33
ENDBRANCH  31  32
ENDBRANCH   9  31
TORSDOF 4
ENDMDL
MODEL 2
REMARK VINA RESULT:      -3.2     16.109     18.916
REMARK  Name = 6215
REMARK  4 active torsions:
REMARK  status: ('A' for Active; 'I' for Inactive)
REMARK    1  A    between atoms: C_9  and  C_31
REMARK    2  A    between atoms: C_14  and  O_28
REMARK    3  A    between atoms: C_31  and  C_32
REMARK    4  A    between atoms: C_32  and  O_33
REMARK                            x       y       z     vdW  Elec       q    Type
REMARK                         _______ _______ _______ _____ _____    ______ ____
ROOT
ATOM      1  F   UNL     1      32.178 -10.274 -25.141  0.00  0.00    -0.237 F 
ATOM      2  F   UNL     1      36.288 -10.563 -26.498  0.00  0.00    -0.233 F 
ATOM      3  O   UNL     1      30.912  -6.465 -23.356  0.00  0.00    -0.330 OA
ATOM      4  O   UNL     1      32.668  -4.930 -23.645  0.00  0.00    -0.334 OA
ATOM      5  O   UNL     1      33.220 -14.077 -28.008  0.00  0.00    -0.287 OA
ATOM      6  C   UNL     1      32.340  -8.196 -22.311  0.00  0.00    +0.034 C 
ATOM      7  C   UNL     1      33.250  -8.186 -23.560  0.00  0.00    +0.008 C 
ATOM      8  C   UNL     1      33.966  -9.522 -23.801  0.00  0.00    +0.036 C 
ATOM      9  C   UNL     1      31.861  -6.722 -22.325  0.00  0.00    +0.173 C 
ATOM     10  C   UNL     1      32.890 -10.645 -24.010  0.00  0.00    +0.165 C 
ATOM     11  C   UNL     1      33.104  -5.919 -22.718  0.00  0.00    +0.149 C 
ATOM     12  C   UNL     1      34.079  -6.911 -23.390  0.00  0.00    +0.033 C 
ATOM     13  C   UNL     1      31.250  -9.258 -22.547  0.00  0.00    +0.035 C 
ATOM     14  C   UNL     1      31.827 -10.657 -22.870  0.00  0.00    +0.141 C 
ATOM     15  C   UNL     1      33.549 -12.036 -24.363  0.00  0.00    +0.066 C 
ATOM     16  C   UNL     1      34.900  -9.418 -25.017  0.00  0.00    +0.042 C 
ATOM     17  C   UNL     1      33.110  -8.478 -20.992  0.00  0.00    +0.003 C 
ATOM     18  C   UNL     1      35.542 -10.753 -25.369  0.00  0.00    +0.180 C 
ATOM     19  C   UNL     1      31.325  -5.260 -24.007  0.00  0.00    +0.188 C 
ATOM     20  C   UNL     1      34.487 -11.813 -25.558  0.00  0.00    -0.003 C 
ATOM     21  C   UNL     1      34.382 -12.648 -23.213  0.00  0.00    +0.011 C 
ATOM     22  C   UNL     1      32.470 -13.058 -24.691  0.00  0.00    -0.017 C 
ATOM     23  C   UNL     1      30.403  -4.126 -23.575  0.00  0.00    +0.061 C 
ATOM     24  C   UNL     1      31.259  -5.451 -25.520  0.00  0.00    +0.061 C 
ATOM     25  C   UNL     1      34.372 -12.470 -26.723  0.00  0.00    +0.036 C 
ATOM     26  C   UNL     1      32.352 -13.713 -25.849  0.00  0.00    +0.038 C 
ATOM     27  C   UNL     1      33.308 -13.471 -26.945  0.00  0.00    +0.195 C 
ENDROOT
BRANCH  14  28
ATOM     28  O   UNL     1      32.338 -11.250 -21.686  0.00  0.00    -0.382 OA
ATOM     29  H   UNL     1      32.192 -10.652 -20.936  0.00  0.00    +0.210 HD
ENDBRANCH  14  28
BRANCH   9  31
ATOM     30  O   UNL     1      30.233  -5.540 -21.047  0.00  0.00    -0.291 OA
ATOM     31  C   UNL     1      31.219  -6.276 -21.045  0.00  0.00    +0.207 C 
BRANCH  31  32
ATOM     32  C   UNL     1      31.852  -6.782 -19.765  0.00  0.00    +0.204 C 
BRANCH  32  33
ATOM     33  O   UNL     1      32.735  -5.820 -19.231  0.00  0.00    -0.375 OA
ATOM     34  H   UNL     1      32.497  -5.640 -18.308  0.00  0.00    +0.211 HD
ENDBRANCH  32  33
ENDBRANCH  31  32
ENDBRANCH   9  31
TORSDOF 4
ENDMDL
MODEL 3
REMARK VINA RESULT:      -3.0     18.682     20.976
REMARK  Name = 6215
REMARK  4 active torsions:
REMARK  status: ('A' for Active; 'I' for Inactive)
REMARK    1  A    between atoms: C_9  and  C_31
REMARK    2  A    between atoms: C_14  and  O_28
REMARK    3  A    between atoms: C_31  and  C_32
REMARK    4  A    between atoms: C_32  and  O_33
REMARK                            x       y       z     vdW  Elec       q    Type
REMARK                         _______ _______ _______ _____ _____    ______ ____
ROOT
ATOM      1  F   UNL     1      30.573  -5.565 -25.098  0.00  0.00    -0.237 F 
ATOM      2  F   UNL     1      30.063  -2.598 -21.976  0.00  0.00    -0.233 F 
ATOM      3  O   UNL     1      32.351  -9.414 -23.946  0.00  0.00    -0.330 OA
ATOM      4  O   UNL     1      32.545  -9.430 -21.604  0.00  0.00    -0.334 OA
ATOM      5  O   UNL     1      27.694  -1.786 -26.190  0.00  0.00    -0.287 OA
ATOM      6  C   UNL     1      33.528  -7.253 -24.221  0.00  0.00    +0.034 C 
ATOM      7  C   UNL     1      32.495  -6.582 -23.288  0.00  0.00    +0.008 C 
ATOM      8  C   UNL     1      32.303  -5.086 -23.570  0.00  0.00    +0.036 C 
ATOM      9  C   UNL     1      33.531  -8.683 -23.622  0.00  0.00    +0.173 C 
ATOM     10  C   UNL     1      31.793  -4.908 -25.043  0.00  0.00    +0.165 C 
ATOM     11  C   UNL     1      33.462  -8.465 -22.108  0.00  0.00    +0.149 C 
ATOM     12  C   UNL     1      32.928  -7.032 -21.891  0.00  0.00    +0.033 C 
ATOM     13  C   UNL     1      32.994  -7.129 -25.661  0.00  0.00    +0.035 C 
ATOM     14  C   UNL     1      32.688  -5.668 -26.069  0.00  0.00    +0.141 C 
ATOM     15  C   UNL     1      31.476  -3.398 -25.381  0.00  0.00    +0.066 C 
ATOM     16  C   UNL     1      31.314  -4.473 -22.565  0.00  0.00    +0.042 C 
ATOM     17  C   UNL     1      34.951  -6.640 -24.105  0.00  0.00    +0.003 C 
ATOM     18  C   UNL     1      30.999  -3.018 -22.878  0.00  0.00    +0.180 C 
ATOM     19  C   UNL     1      31.893 -10.017 -22.732  0.00  0.00    +0.188 C 
ATOM     20  C   UNL     1      30.518  -2.876 -24.301  0.00  0.00    -0.003 C 
ATOM     21  C   UNL     1      32.721  -2.481 -25.396  0.00  0.00    +0.011 C 
ATOM     22  C   UNL     1      30.857  -3.291 -26.767  0.00  0.00    -0.017 C 
ATOM     23  C   UNL     1      32.214 -11.506 -22.771  0.00  0.00    +0.061 C 
ATOM     24  C   UNL     1      30.388  -9.802 -22.594  0.00  0.00    +0.061 C 
ATOM     25  C   UNL     1      29.306  -2.363 -24.570  0.00  0.00    +0.036 C 
ATOM     26  C   UNL     1      29.652  -2.782 -27.038  0.00  0.00    +0.038 C 
ATOM     27  C   UNL     1      28.795  -2.269 -25.954  0.00  0.00    +0.195 C 
ENDROOT
BRANCH  14  28
ATOM     28  O   UNL     1      33.902  -4.975 -26.316  0.00  0.00    -0.382 OA
ATOM     29  H   UNL     1      34.432  -4.950 -25.503  0.00  0.00    +0.210 HD
ENDBRANCH  14  28
BRANCH   9  31
ATOM     30  O   UNL     1      35.803  -9.403 -23.577  0.00  0.00    -0.291 OA
ATOM     31  C   UNL     1      34.684  -9.531 -24.071  0.00  0.00    +0.207 C 
BRANCH  31  32
ATOM     32  C   UNL     1      34.388 -10.544 -25.158  0.00  0.00    +0.204 C 
BRANCH  32  33
ATOM     33  O   UNL     1      35.424 -10.564 -26.116  0.00  0.00    -0.375 OA
ATOM     34  H   UNL     1      35.738  -9.661 -26.272  0.00  0.00    +0.211 HD
ENDBRANCH  32  33
ENDBRANCH  31  32
ENDBRANCH   9  31
TORSDOF 4
ENDMDL
MODEL 4
REMARK VINA RESULT:      -3.0      1.992      7.459
REMARK  Name = 6215
REMARK  4 active torsions:
REMARK  status: ('A' for Active; 'I' for Inactive)
REMARK    1  A    between atoms: C_9  and  C_31
REMARK    2  A    between atoms: C_14  and  O_28
REMARK    3  A    between atoms: C_31  and  C_32
REMARK    4  A    between atoms: C_32  and  O_33
REMARK                            x       y       z     vdW  Elec       q    Type
REMARK                         _______ _______ _______ _____ _____    ______ ____
ROOT
ATOM      1  F   UNL     1      35.180 -25.408 -14.646  0.00  0.00    -0.237 F 
ATOM      2  F   UNL     1      37.715 -22.826 -17.037  0.00  0.00    -0.233 F 
ATOM      3  O   UNL     1      30.836 -25.026 -15.188  0.00  0.00    -0.330 OA
ATOM      4  O   UNL     1      30.475 -23.576 -17.002  0.00  0.00    -0.334 OA
ATOM      5  O   UNL     1      39.910 -26.580 -14.772  0.00  0.00    -0.287 OA
ATOM      6  C   UNL     1      32.329 -23.460 -13.984  0.00  0.00    +0.034 C 
ATOM      7  C   UNL     1      33.258 -23.412 -15.219  0.00  0.00    +0.008 C 
ATOM      8  C   UNL     1      34.721 -23.107 -14.868  0.00  0.00    +0.036 C 
ATOM      9  C   UNL     1      30.970 -23.698 -14.690  0.00  0.00    +0.173 C 
ATOM     10  C   UNL     1      35.260 -24.232 -13.916  0.00  0.00    +0.165 C 
ATOM     11  C   UNL     1      31.023 -22.808 -15.935  0.00  0.00    +0.149 C 
ATOM     12  C   UNL     1      32.513 -22.495 -16.192  0.00  0.00    +0.033 C 
ATOM     13  C   UNL     1      32.827 -24.605 -13.082  0.00  0.00    +0.035 C 
ATOM     14  C   UNL     1      34.319 -24.468 -12.696  0.00  0.00    +0.141 C 
ATOM     15  C   UNL     1      36.793 -24.042 -13.587  0.00  0.00    +0.066 C 
ATOM     16  C   UNL     1      35.570 -23.009 -16.145  0.00  0.00    +0.042 C 
ATOM     17  C   UNL     1      32.279 -22.120 -13.200  0.00  0.00    +0.003 C 
ATOM     18  C   UNL     1      37.050 -22.827 -15.843  0.00  0.00    +0.180 C 
ATOM     19  C   UNL     1      30.344 -24.918 -16.527  0.00  0.00    +0.188 C 
ATOM     20  C   UNL     1      37.539 -23.917 -14.922  0.00  0.00    -0.003 C 
ATOM     21  C   UNL     1      37.106 -22.782 -12.747  0.00  0.00    +0.011 C 
ATOM     22  C   UNL     1      37.304 -25.225 -12.778  0.00  0.00    -0.017 C 
ATOM     23  C   UNL     1      28.871 -25.307 -16.543  0.00  0.00    +0.061 C 
ATOM     24  C   UNL     1      31.147 -25.840 -17.440  0.00  0.00    +0.061 C 
ATOM     25  C   UNL     1      38.535 -24.737 -15.295  0.00  0.00    +0.036 C 
ATOM     26  C   UNL     1      38.294 -26.044 -13.145  0.00  0.00    +0.038 C 
ATOM     27  C   UNL     1      38.989 -25.846 -14.430  0.00  0.00    +0.195 C 
ENDROOT
BRANCH  14  28
ATOM     28  O   UNL     1      34.468 -23.451 -11.717  0.00  0.00    -0.382 OA
ATOM     29  H   UNL     1      34.620 -22.599 -12.156  0.00  0.00    +0.210 HD
ENDBRANCH  14  28
BRANCH   9  31
ATOM     30  O   UNL     1      29.605 -24.101 -12.778  0.00  0.00    -0.291 OA
ATOM     31  C   UNL     1      29.777 -23.459 -13.813  0.00  0.00    +0.207 C 
BRANCH  31  32
ATOM     32  C   UNL     1      28.808 -22.389 -14.274  0.00  0.00    +0.204 C 
BRANCH  32  33
ATOM     33  O   UNL     1      27.829 -22.939 -15.129  0.00  0.00    -0.375 OA
ATOM     34  H   UNL     1      27.164 -23.406 -14.601  0.00  0.00    +0.211 HD
ENDBRANCH  32  33
ENDBRANCH  31  32
ENDBRANCH   9  31
TORSDOF 4
ENDMDL
MODEL 5
REMARK VINA RESULT:      -3.0      2.271      4.157
REMARK  Name = 6215
REMARK  4 active torsions:
REMARK  status: ('A' for Active; 'I' for Inactive)
REMARK    1  A    between atoms: C_9  and  C_31
REMARK    2  A    between atoms: C_14  and  O_28
REMARK    3  A    between atoms: C_31  and  C_32
REMARK    4  A    between atoms: C_32  and  O_33
REMARK                            x       y       z     vdW  Elec       q    Type
REMARK                         _______ _______ _______ _____ _____    ______ ____
ROOT
ATOM      1  F   UNL     1      31.361 -22.555 -15.701  0.00  0.00    -0.237 F 
ATOM      2  F   UNL     1      29.712 -26.103 -17.572  0.00  0.00    -0.233 F 
ATOM      3  O   UNL     1      35.691 -22.498 -14.961  0.00  0.00    -0.330 OA
ATOM      4  O   UNL     1      36.609 -24.403 -15.987  0.00  0.00    -0.334 OA
ATOM      5  O   UNL     1      26.818 -22.149 -17.422  0.00  0.00    -0.287 OA
ATOM      6  C   UNL     1      33.982 -23.765 -13.696  0.00  0.00    +0.034 C 
ATOM      7  C   UNL     1      33.444 -24.346 -15.024  0.00  0.00    +0.008 C 
ATOM      8  C   UNL     1      31.955 -24.715 -14.967  0.00  0.00    +0.036 C 
ATOM      9  C   UNL     1      35.475 -23.591 -14.074  0.00  0.00    +0.173 C 
ATOM     10  C   UNL     1      31.124 -23.423 -14.646  0.00  0.00    +0.165 C 
ATOM     11  C   UNL     1      35.812 -24.841 -14.891  0.00  0.00    +0.149 C 
ATOM     12  C   UNL     1      34.470 -25.423 -15.386  0.00  0.00    +0.033 C 
ATOM     13  C   UNL     1      33.204 -22.466 -13.416  0.00  0.00    +0.035 C 
ATOM     14  C   UNL     1      31.671 -22.670 -13.395  0.00  0.00    +0.141 C 
ATOM     15  C   UNL     1      29.569 -23.700 -14.668  0.00  0.00    +0.066 C 
ATOM     16  C   UNL     1      31.507 -25.344 -16.295  0.00  0.00    +0.042 C 
ATOM     17  C   UNL     1      33.861 -24.750 -12.501  0.00  0.00    +0.003 C 
ATOM     18  C   UNL     1      30.010 -25.617 -16.331  0.00  0.00    +0.180 C 
ATOM     19  C   UNL     1      36.547 -22.975 -16.004  0.00  0.00    +0.188 C 
ATOM     20  C   UNL     1      29.238 -24.361 -16.013  0.00  0.00    -0.003 C 
ATOM     21  C   UNL     1      29.081 -24.641 -13.542  0.00  0.00    +0.011 C 
ATOM     22  C   UNL     1      28.803 -22.397 -14.489  0.00  0.00    -0.017 C 
ATOM     23  C   UNL     1      37.947 -22.415 -15.786  0.00  0.00    +0.061 C 
ATOM     24  C   UNL     1      36.000 -22.525 -17.355  0.00  0.00    +0.061 C 
ATOM     25  C   UNL     1      28.356 -23.855 -16.890  0.00  0.00    +0.036 C 
ATOM     26  C   UNL     1      27.926 -21.890 -15.360  0.00  0.00    +0.038 C 
ATOM     27  C   UNL     1      27.632 -22.595 -16.621  0.00  0.00    +0.195 C 
ENDROOT
BRANCH  14  28
ATOM     28  O   UNL     1      31.290 -23.316 -12.189  0.00  0.00    -0.382 OA
ATOM     29  H   UNL     1      31.027 -22.650 -11.535  0.00  0.00    +0.210 HD
ENDBRANCH  14  28
BRANCH   9  31
ATOM     30  O   UNL     1      36.298 -22.339 -12.220  0.00  0.00    -0.291 OA
ATOM     31  C   UNL     1      36.379 -23.361 -12.899  0.00  0.00    +0.207 C 
BRANCH  31  32
ATOM     32  C   UNL     1      37.386 -24.453 -12.603  0.00  0.00    +0.204 C 
BRANCH  32  33
ATOM     33  O   UNL     1      37.652 -24.526 -11.219  0.00  0.00    -0.375 OA
ATOM     34  H   UNL     1      38.519 -24.134 -11.035  0.00  0.00    +0.211 HD
ENDBRANCH  32  33
ENDBRANCH  31  32
ENDBRANCH   9  31
TORSDOF 4
ENDMDL
MODEL 6
REMARK VINA RESULT:      -2.8     11.825     14.672
REMARK  Name = 6215
REMARK  4 active torsions:
REMARK  status: ('A' for Active; 'I' for Inactive)
REMARK    1  A    between atoms: C_9  and  C_31
REMARK    2  A    between atoms: C_14  and  O_28
REMARK    3  A    between atoms: C_31  and  C_32
REMARK    4  A    between atoms: C_32  and  O_33
REMARK                            x       y       z     vdW  Elec       q    Type
REMARK                         _______ _______ _______ _____ _____    ______ ____
ROOT
ATOM      1  F   UNL     1      34.427 -14.214 -21.251  0.00  0.00    -0.237 F 
ATOM      2  F   UNL     1      31.573 -17.304 -20.191  0.00  0.00    -0.233 F 
ATOM      3  O   UNL     1      33.033 -10.050 -21.100  0.00  0.00    -0.330 OA
ATOM      4  O   UNL     1      30.883 -10.058 -20.151  0.00  0.00    -0.334 OA
ATOM      5  O   UNL     1      36.282 -18.648 -20.434  0.00  0.00    -0.287 OA
ATOM      6  C   UNL     1      32.488 -11.741 -22.825  0.00  0.00    +0.034 C 
ATOM      7  C   UNL     1      32.065 -12.726 -21.711  0.00  0.00    +0.008 C 
ATOM      8  C   UNL     1      32.231 -14.199 -22.108  0.00  0.00    +0.036 C 
ATOM      9  C   UNL     1      32.123 -10.400 -22.139  0.00  0.00    +0.173 C 
ATOM     10  C   UNL     1      33.742 -14.471 -22.429  0.00  0.00    +0.165 C 
ATOM     11  C   UNL     1      30.796 -10.681 -21.428  0.00  0.00    +0.149 C 
ATOM     12  C   UNL     1      30.686 -12.215 -21.285  0.00  0.00    +0.033 C 
ATOM     13  C   UNL     1      33.987 -11.971 -23.095  0.00  0.00    +0.035 C 
ATOM     14  C   UNL     1      34.321 -13.440 -23.445  0.00  0.00    +0.141 C 
ATOM     15  C   UNL     1      34.014 -15.994 -22.752  0.00  0.00    +0.066 C 
ATOM     16  C   UNL     1      31.731 -15.118 -20.982  0.00  0.00    +0.042 C 
ATOM     17  C   UNL     1      31.661 -11.897 -24.131  0.00  0.00    +0.003 C 
ATOM     18  C   UNL     1      31.986 -16.589 -21.279  0.00  0.00    +0.180 C 
ATOM     19  C   UNL     1      32.244  -9.657 -19.974  0.00  0.00    +0.188 C 
ATOM     20  C   UNL     1      33.444 -16.820 -21.590  0.00  0.00    -0.003 C 
ATOM     21  C   UNL     1      33.350 -16.489 -24.057  0.00  0.00    +0.011 C 
ATOM     22  C   UNL     1      35.507 -16.235 -22.920  0.00  0.00    -0.017 C 
ATOM     23  C   UNL     1      32.300  -8.141 -19.838  0.00  0.00    +0.061 C 
ATOM     24  C   UNL     1      32.789 -10.324 -18.714  0.00  0.00    +0.061 C 
ATOM     25  C   UNL     1      34.179 -17.666 -20.851  0.00  0.00    +0.036 C 
ATOM     26  C   UNL     1      36.242 -17.075 -22.186  0.00  0.00    +0.038 C 
ATOM     27  C   UNL     1      35.622 -17.862 -21.105  0.00  0.00    +0.195 C 
ENDROOT
BRANCH  14  28
ATOM     28  O   UNL     1      33.901 -13.723 -24.772  0.00  0.00    -0.382 OA
ATOM     29  H   UNL     1      33.025 -14.140 -24.752  0.00  0.00    +0.210 HD
ENDBRANCH  14  28
BRANCH   9  31
ATOM     30  O   UNL     1      31.024  -8.678 -23.368  0.00  0.00    -0.291 OA
ATOM     31  C   UNL     1      32.084  -9.227 -23.073  0.00  0.00    +0.207 C 
BRANCH  31  32
ATOM     32  C   UNL     1      33.417  -8.764 -23.624  0.00  0.00    +0.204 C 
BRANCH  32  33
ATOM     33  O   UNL     1      33.973  -7.758 -22.805  0.00  0.00    -0.375 OA
ATOM     34  H   UNL     1      33.292  -7.103 -22.590  0.00  0.00    +0.211 HD
ENDBRANCH  32  33
ENDBRANCH  31  32
ENDBRANCH   9  31
TORSDOF 4
ENDMDL
MODEL 7
REMARK VINA RESULT:      -2.6      6.885      9.808
REMARK  Name = 6215
REMARK  4 active torsions:
REMARK  status: ('A' for Active; 'I' for Inactive)
REMARK    1  A    between atoms: C_9  and  C_31
REMARK    2  A    between atoms: C_14  and  O_28
REMARK    3  A    between atoms: C_31  and  C_32
REMARK    4  A    between atoms: C_32  and  O_33
REMARK                            x       y       z     vdW  Elec       q    Type
REMARK                         _______ _______ _______ _____ _____    ______ ____
ROOT
ATOM      1  F   UNL     1      35.418 -19.602 -18.778  0.00  0.00    -0.237 F 
ATOM      2  F   UNL     1      32.110 -22.302 -18.014  0.00  0.00    -0.233 F 
ATOM      3  O   UNL     1      34.600 -16.070 -21.261  0.00  0.00    -0.330 OA
ATOM      4  O   UNL     1      32.281 -15.988 -21.632  0.00  0.00    -0.334 OA
ATOM      5  O   UNL     1      36.105 -22.872 -15.229  0.00  0.00    -0.287 OA
ATOM      6  C   UNL     1      34.836 -18.411 -22.033  0.00  0.00    +0.034 C 
ATOM      7  C   UNL     1      33.799 -18.854 -20.975  0.00  0.00    +0.008 C 
ATOM      8  C   UNL     1      33.985 -20.306 -20.513  0.00  0.00    +0.036 C 
ATOM      9  C   UNL     1      34.317 -16.979 -22.322  0.00  0.00    +0.173 C 
ATOM     10  C   UNL     1      35.409 -20.455 -19.871  0.00  0.00    +0.165 C 
ATOM     11  C   UNL     1      32.792 -17.117 -22.332  0.00  0.00    +0.149 C 
ATOM     12  C   UNL     1      32.461 -18.426 -21.583  0.00  0.00    +0.033 C 
ATOM     13  C   UNL     1      36.227 -18.503 -21.379  0.00  0.00    +0.035 C 
ATOM     14  C   UNL     1      36.533 -19.905 -20.801  0.00  0.00    +0.141 C 
ATOM     15  C   UNL     1      35.642 -21.901 -19.279  0.00  0.00    +0.066 C 
ATOM     16  C   UNL     1      32.885 -20.696 -19.515  0.00  0.00    +0.042 C 
ATOM     17  C   UNL     1      34.782 -19.254 -23.337  0.00  0.00    +0.003 C 
ATOM     18  C   UNL     1      33.096 -22.088 -18.935  0.00  0.00    +0.180 C 
ATOM     19  C   UNL     1      33.393 -15.346 -21.004  0.00  0.00    +0.188 C 
ATOM     20  C   UNL     1      34.473 -22.205 -18.331  0.00  0.00    -0.003 C 
ATOM     21  C   UNL     1      35.690 -23.019 -20.347  0.00  0.00    +0.011 C 
ATOM     22  C   UNL     1      36.975 -21.959 -18.548  0.00  0.00    -0.017 C 
ATOM     23  C   UNL     1      33.535 -13.938 -21.568  0.00  0.00    +0.061 C 
ATOM     24  C   UNL     1      33.142 -15.294 -19.500  0.00  0.00    +0.061 C 
ATOM     25  C   UNL     1      34.631 -22.513 -17.034  0.00  0.00    +0.036 C 
ATOM     26  C   UNL     1      37.136 -22.264 -17.257  0.00  0.00    +0.038 C 
ATOM     27  C   UNL     1      35.970 -22.576 -16.411  0.00  0.00    +0.195 C 
ENDROOT
BRANCH  14  28
ATOM     28  O   UNL     1      36.823 -20.806 -21.859  0.00  0.00    -0.382 OA
ATOM     29  H   UNL     1      37.729 -21.138 -21.760  0.00  0.00    +0.210 HD
ENDBRANCH  14  28
BRANCH   9  31
ATOM     30  O   UNL     1      36.073 -16.039 -23.631  0.00  0.00    -0.291 OA
ATOM     31  C   UNL     1      34.888 -16.361 -23.564  0.00  0.00    +0.207 C 
BRANCH  31  32
ATOM     32  C   UNL     1      33.927 -16.162 -24.717  0.00  0.00    +0.204 C 
BRANCH  32  33
ATOM     33  O   UNL     1      34.421 -16.773 -25.890  0.00  0.00    -0.375 OA
ATOM     34  H   UNL     1      35.367 -16.582 -25.980  0.00  0.00    +0.211 HD
ENDBRANCH  32  33
ENDBRANCH  31  32
ENDBRANCH   9  31
TORSDOF 4
ENDMDL
MODEL 8
REMARK VINA RESULT:      -2.3      1.704      1.915
REMARK  Name = 6215
REMARK  4 active torsions:
REMARK  status: ('A' for Active; 'I' for Inactive)
REMARK    1  A    between atoms: C_9  and  C_31
REMARK    2  A    between atoms: C_14  and  O_28
REMARK    3  A    between atoms: C_31  and  C_32
REMARK    4  A    between atoms: C_32  and  O_33
REMARK                            x       y       z     vdW  Elec       q    Type
REMARK                         _______ _______ _______ _____ _____    ______ ____
ROOT
ATOM      1  F   UNL     1      32.863 -24.782 -15.865  0.00  0.00    -0.237 F 
ATOM      2  F   UNL     1      30.251 -25.363 -12.451  0.00  0.00    -0.233 F 
ATOM      3  O   UNL     1      37.099 -25.834 -15.359  0.00  0.00    -0.330 OA
ATOM      4  O   UNL     1      37.323 -26.880 -13.267  0.00  0.00    -0.334 OA
ATOM      5  O   UNL     1      28.078 -24.598 -16.779  0.00  0.00    -0.287 OA
ATOM      6  C   UNL     1      35.942 -23.840 -14.455  0.00  0.00    +0.034 C 
ATOM      7  C   UNL     1      34.853 -24.758 -13.853  0.00  0.00    +0.008 C 
ATOM      8  C   UNL     1      33.490 -24.068 -13.707  0.00  0.00    +0.036 C 
ATOM      9  C   UNL     1      37.159 -24.798 -14.382  0.00  0.00    +0.173 C 
ATOM     10  C   UNL     1      32.995 -23.616 -15.126  0.00  0.00    +0.165 C 
ATOM     11  C   UNL     1      37.006 -25.511 -13.036  0.00  0.00    +0.149 C 
ATOM     12  C   UNL     1      35.529 -25.352 -12.615  0.00  0.00    +0.033 C 
ATOM     13  C   UNL     1      35.480 -23.448 -15.871  0.00  0.00    +0.035 C 
ATOM     14  C   UNL     1      34.078 -22.795 -15.891  0.00  0.00    +0.141 C 
ATOM     15  C   UNL     1      31.549 -22.983 -15.074  0.00  0.00    +0.066 C 
ATOM     16  C   UNL     1      32.477 -25.015 -13.045  0.00  0.00    +0.042 C 
ATOM     17  C   UNL     1      36.225 -22.577 -13.596  0.00  0.00    +0.003 C 
ATOM     18  C   UNL     1      31.078 -24.418 -12.987  0.00  0.00    +0.180 C 
ATOM     19  C   UNL     1      37.401 -27.058 -14.683  0.00  0.00    +0.188 C 
ATOM     20  C   UNL     1      30.632 -23.987 -14.362  0.00  0.00    -0.003 C 
ATOM     21  C   UNL     1      31.475 -21.644 -14.305  0.00  0.00    +0.011 C 
ATOM     22  C   UNL     1      31.056 -22.688 -16.483  0.00  0.00    -0.017 C 
ATOM     23  C   UNL     1      38.815 -27.489 -15.052  0.00  0.00    +0.061 C 
ATOM     24  C   UNL     1      36.395 -28.128 -15.097  0.00  0.00    +0.061 C 
ATOM     25  C   UNL     1      29.523 -24.502 -14.918  0.00  0.00    +0.036 C 
ATOM     26  C   UNL     1      29.954 -23.198 -17.040  0.00  0.00    +0.038 C 
ATOM     27  C   UNL     1      29.101 -24.135 -16.286  0.00  0.00    +0.195 C 
ENDROOT
BRANCH  14  28
ATOM     28  O   UNL     1      34.163 -21.463 -15.404  0.00  0.00    -0.382 OA
ATOM     29  H   UNL     1      34.609 -20.907 -16.062  0.00  0.00    +0.210 HD
ENDBRANCH  14  28
BRANCH   9  31
ATOM     30  O   UNL     1      38.712 -23.432 -15.568  0.00  0.00    -0.291 OA
ATOM     31  C   UNL     1      38.482 -24.119 -14.573  0.00  0.00    +0.207 C 
BRANCH  31  32
ATOM     32  C   UNL     1      39.509 -24.330 -13.479  0.00  0.00    +0.204 C 
BRANCH  32  33
ATOM     33  O   UNL     1      40.744 -24.740 -14.025  0.00  0.00    -0.375 OA
ATOM     34  H   UNL     1      40.749 -25.704 -14.125  0.00  0.00    +0.211 HD
ENDBRANCH  32  33
ENDBRANCH  31  32
ENDBRANCH   9  31
TORSDOF 4
ENDMDL
MODEL 9
REMARK VINA RESULT:      -1.8     10.235     12.750
REMARK  Name = 6215
REMARK  4 active torsions:
REMARK  status: ('A' for Active; 'I' for Inactive)
REMARK    1  A    between atoms: C_9  and  C_31
REMARK    2  A    between atoms: C_14  and  O_28
REMARK    3  A    between atoms: C_31  and  C_32
REMARK    4  A    between atoms: C_32  and  O_33
REMARK                            x       y       z     vdW  Elec       q    Type
REMARK                         _______ _______ _______ _____ _____    ______ ____
ROOT
ATOM      1  F   UNL     1      34.990 -14.348 -22.772  0.00  0.00    -0.237 F 
ATOM      2  F   UNL     1      34.104 -14.189 -27.014  0.00  0.00    -0.233 F 
ATOM      3  O   UNL     1      36.037 -18.265 -21.080  0.00  0.00    -0.330 OA
ATOM      4  O   UNL     1      36.246 -19.776 -22.869  0.00  0.00    -0.334 OA
ATOM      5  O   UNL     1      34.865  -9.901 -24.764  0.00  0.00    -0.287 OA
ATOM      6  C   UNL     1      33.784 -17.486 -21.747  0.00  0.00    +0.034 C 
ATOM      7  C   UNL     1      34.344 -17.080 -23.129  0.00  0.00    +0.008 C 
ATOM      8  C   UNL     1      33.567 -15.931 -23.785  0.00  0.00    +0.036 C 
ATOM      9  C   UNL     1      34.719 -18.680 -21.428  0.00  0.00    +0.173 C 
ATOM     10  C   UNL     1      33.644 -14.669 -22.855  0.00  0.00    +0.165 C 
ATOM     11  C   UNL     1      34.872 -19.416 -22.762  0.00  0.00    +0.149 C 
ATOM     12  C   UNL     1      34.478 -18.413 -23.868  0.00  0.00    +0.033 C 
ATOM     13  C   UNL     1      33.916 -16.263 -20.821  0.00  0.00    +0.035 C 
ATOM     14  C   UNL     1      33.232 -14.997 -21.388  0.00  0.00    +0.141 C 
ATOM     15  C   UNL     1      32.949 -13.410 -23.509  0.00  0.00    +0.066 C 
ATOM     16  C   UNL     1      34.137 -15.625 -25.179  0.00  0.00    +0.042 C 
ATOM     17  C   UNL     1      32.312 -17.981 -21.802  0.00  0.00    +0.003 C 
ATOM     18  C   UNL     1      33.477 -14.413 -25.822  0.00  0.00    +0.180 C 
ATOM     19  C   UNL     1      36.940 -19.088 -21.825  0.00  0.00    +0.188 C 
ATOM     20  C   UNL     1      33.560 -13.219 -24.904  0.00  0.00    -0.003 C 
ATOM     21  C   UNL     1      31.418 -13.550 -23.675  0.00  0.00    +0.011 C 
ATOM     22  C   UNL     1      33.167 -12.181 -22.638  0.00  0.00    -0.017 C 
ATOM     23  C   UNL     1      37.562 -20.113 -20.885  0.00  0.00    +0.061 C 
ATOM     24  C   UNL     1      38.023 -18.215 -22.452  0.00  0.00    +0.061 C 
ATOM     25  C   UNL     1      34.175 -12.091 -25.296  0.00  0.00    +0.036 C 
ATOM     26  C   UNL     1      33.779 -11.058 -23.024  0.00  0.00    +0.038 C 
ATOM     27  C   UNL     1      34.316 -10.931 -24.391  0.00  0.00    +0.195 C 
ENDROOT
BRANCH  14  28
ATOM     28  O   UNL     1      31.823 -15.114 -21.255  0.00  0.00    -0.382 OA
ATOM     29  H   UNL     1      31.585 -15.100 -20.314  0.00  0.00    +0.210 HD
ENDBRANCH  14  28
BRANCH   9  31
ATOM     30  O   UNL     1      35.026 -20.009 -19.472  0.00  0.00    -0.291 OA
ATOM     31  C   UNL     1      34.242 -19.545 -20.299  0.00  0.00    +0.207 C 
BRANCH  31  32
ATOM     32  C   UNL     1      32.751 -19.809 -20.239  0.00  0.00    +0.204 C 
BRANCH  32  33
ATOM     33  O   UNL     1      32.476 -20.934 -19.433  0.00  0.00    -0.375 OA
ATOM     34  H   UNL     1      32.301 -21.702 -19.998  0.00  0.00    +0.211 HD
ENDBRANCH  32  33
ENDBRANCH  31  32
ENDBRANCH   9  31
TORSDOF 4
ENDMDL
