MODEL 1
REMARK VINA RESULT:      -4.7      0.000      0.000
REMARK  Name = 673
REMARK  3 active torsions:
REMARK  status: ('A' for Active; 'I' for Inactive)
REMARK    1  A    between atoms: C_1  and  N_2
REMARK    2  A    between atoms: C_1  and  C_7
REMARK    3  A    between atoms: C_7  and  O_8
REMARK                            x       y       z     vdW  Elec       q    Type
REMARK                         _______ _______ _______ _____ _____    ______ ____
ROOT
ATOM      1  C   UNL     1      38.896 -25.808 -14.248  0.00  0.00    +0.034 C 
ENDROOT
BRANCH   1   2
ATOM      2  N   UNL     1      37.845 -25.598 -15.244  0.00  0.00    +0.391 N 
ATOM      3  C   UNL     1      37.188 -24.310 -15.030  0.00  0.00    -0.100 C 
ATOM      4  C   UNL     1      36.869 -26.685 -15.193  0.00  0.00    -0.100 C 
ATOM      5  H   UNL     1      38.274 -25.593 -16.169  0.00  0.00    -0.079 HD
ENDBRANCH   1   2
BRANCH   1   7
ATOM      6  O   UNL     1      40.994 -24.623 -14.317  0.00  0.00    -0.253 OA
ATOM      7  C   UNL     1      40.214 -25.405 -14.848  0.00  0.00    +0.293 C 
BRANCH   7   8
ATOM      8  O   UNL     1      40.437 -25.965 -16.064  0.00  0.00    -0.482 OA
ATOM      9  H   UNL     1      39.833 -26.594 -16.407  0.00  0.00    +0.295 HD
ENDBRANCH   7   8
ENDBRANCH   1   7
TORSDOF 3
ENDMDL
MODEL 2
REMARK VINA RESULT:      -4.3     10.701     11.388
REMARK  Name = 673
REMARK  3 active torsions:
REMARK  status: ('A' for Active; 'I' for Inactive)
REMARK    1  A    between atoms: C_1  and  N_2
REMARK    2  A    between atoms: C_1  and  C_7
REMARK    3  A    between atoms: C_7  and  O_8
REMARK                            x       y       z     vdW  Elec       q    Type
REMARK                         _______ _______ _______ _____ _____    ______ ____
ROOT
ATOM      1  C   UNL     1      41.276 -14.255 -15.628  0.00  0.00    +0.034 C 
ENDROOT
BRANCH   1   2
ATOM      2  N   UNL     1      42.006 -13.935 -16.854  0.00  0.00    +0.391 N 
ATOM      3  C   UNL     1      42.399 -12.527 -16.862  0.00  0.00    -0.100 C 
ATOM      4  C   UNL     1      41.194 -14.247 -18.029  0.00  0.00    -0.100 C 
ATOM      5  H   UNL     1      42.851 -14.506 -16.885  0.00  0.00    -0.079 HD
ENDBRANCH   1   2
BRANCH   1   7
ATOM      6  O   UNL     1      42.227 -16.469 -15.583  0.00  0.00    -0.253 OA
ATOM      7  C   UNL     1      41.243 -15.748 -15.463  0.00  0.00    +0.293 C 
BRANCH   7   8
ATOM      8  O   UNL     1      39.999 -16.227 -15.206  0.00  0.00    -0.482 OA
ATOM      9  H   UNL     1      39.450 -15.792 -14.584  0.00  0.00    +0.295 HD
ENDBRANCH   7   8
ENDBRANCH   1   7
TORSDOF 3
ENDMDL
MODEL 3
REMARK VINA RESULT:      -4.2      9.791     10.628
REMARK  Name = 673
REMARK  3 active torsions:
REMARK  status: ('A' for Active; 'I' for Inactive)
REMARK    1  A    between atoms: C_1  and  N_2
REMARK    2  A    between atoms: C_1  and  C_7
REMARK    3  A    between atoms: C_7  and  O_8
REMARK                            x       y       z     vdW  Elec       q    Type
REMARK                         _______ _______ _______ _____ _____    ______ ____
ROOT
ATOM      1  C   UNL     1      28.615 -23.602 -15.563  0.00  0.00    +0.034 C 
ENDROOT
BRANCH   1   2
ATOM      2  N   UNL     1      29.815 -24.363 -15.914  0.00  0.00    +0.391 N 
ATOM      3  C   UNL     1      30.063 -25.410 -14.924  0.00  0.00    -0.100 C 
ATOM      4  C   UNL     1      30.970 -23.474 -16.019  0.00  0.00    -0.100 C 
ATOM      5  H   UNL     1      29.663 -24.804 -16.821  0.00  0.00    -0.079 HD
ENDBRANCH   1   2
BRANCH   1   7
ATOM      6  O   UNL     1      27.940 -21.783 -16.993  0.00  0.00    -0.253 OA
ATOM      7  C   UNL     1      28.051 -22.990 -16.814  0.00  0.00    +0.293 C 
BRANCH   7   8
ATOM      8  O   UNL     1      27.635 -23.915 -17.717  0.00  0.00    -0.482 OA
ATOM      9  H   UNL     1      28.242 -24.269 -18.337  0.00  0.00    +0.295 HD
ENDBRANCH   7   8
ENDBRANCH   1   7
TORSDOF 3
ENDMDL
MODEL 4
REMARK VINA RESULT:      -4.1      1.340      1.797
REMARK  Name = 673
REMARK  3 active torsions:
REMARK  status: ('A' for Active; 'I' for Inactive)
REMARK    1  A    between atoms: C_1  and  N_2
REMARK    2  A    between atoms: C_1  and  C_7
REMARK    3  A    between atoms: C_7  and  O_8
REMARK                            x       y       z     vdW  Elec       q    Type
REMARK                         _______ _______ _______ _____ _____    ______ ____
ROOT
ATOM      1  C   UNL     1      38.884 -25.780 -14.665  0.00  0.00    +0.034 C 
ENDROOT
BRANCH   1   2
ATOM      2  N   UNL     1      38.220 -24.969 -13.645  0.00  0.00    +0.391 N 
ATOM      3  C   UNL     1      37.689 -25.820 -12.581  0.00  0.00    -0.100 C 
ATOM      4  C   UNL     1      37.152 -24.170 -14.243  0.00  0.00    -0.100 C 
ATOM      5  H   UNL     1      38.909 -24.335 -13.239  0.00  0.00    -0.079 HD
ENDBRANCH   1   2
BRANCH   1   7
ATOM      6  O   UNL     1      40.943 -24.570 -14.339  0.00  0.00    -0.253 OA
ATOM      7  C   UNL     1      40.371 -25.642 -14.497  0.00  0.00    +0.293 C 
BRANCH   7   8
ATOM      8  O   UNL     1      41.027 -26.829 -14.580  0.00  0.00    -0.482 OA
ATOM      9  H   UNL     1      41.863 -26.930 -14.170  0.00  0.00    +0.295 HD
ENDBRANCH   7   8
ENDBRANCH   1   7
TORSDOF 3
ENDMDL
MODEL 5
REMARK VINA RESULT:      -4.0      2.463      3.052
REMARK  Name = 673
REMARK  3 active torsions:
REMARK  status: ('A' for Active; 'I' for Inactive)
REMARK    1  A    between atoms: C_1  and  N_2
REMARK    2  A    between atoms: C_1  and  C_7
REMARK    3  A    between atoms: C_7  and  O_8
REMARK                            x       y       z     vdW  Elec       q    Type
REMARK                         _______ _______ _______ _____ _____    ______ ____
ROOT
ATOM      1  C   UNL     1      36.409 -25.444 -14.800  0.00  0.00    +0.034 C 
ENDROOT
BRANCH   1   2
ATOM      2  N   UNL     1      37.362 -24.415 -14.386  0.00  0.00    +0.391 N 
ATOM      3  C   UNL     1      36.933 -23.795 -13.134  0.00  0.00    -0.100 C 
ATOM      4  C   UNL     1      37.512 -23.406 -15.433  0.00  0.00    -0.100 C 
ATOM      5  H   UNL     1      38.269 -24.859 -14.233  0.00  0.00    -0.079 HD
ENDBRANCH   1   2
BRANCH   1   7
ATOM      6  O   UNL     1      38.134 -27.109 -14.554  0.00  0.00    -0.253 OA
ATOM      7  C   UNL     1      37.171 -26.682 -15.180  0.00  0.00    +0.293 C 
BRANCH   7   8
ATOM      8  O   UNL     1      36.708 -27.262 -16.317  0.00  0.00    -0.482 OA
ATOM      9  H   UNL     1      36.824 -28.182 -16.453  0.00  0.00    +0.295 HD
ENDBRANCH   7   8
ENDBRANCH   1   7
TORSDOF 3
ENDMDL
MODEL 6
REMARK VINA RESULT:      -4.0      2.704      3.472
REMARK  Name = 673
REMARK  3 active torsions:
REMARK  status: ('A' for Active; 'I' for Inactive)
REMARK    1  A    between atoms: C_1  and  N_2
REMARK    2  A    between atoms: C_1  and  C_7
REMARK    3  A    between atoms: C_7  and  O_8
REMARK                            x       y       z     vdW  Elec       q    Type
REMARK                         _______ _______ _______ _____ _____    ______ ____
ROOT
ATOM      1  C   UNL     1      37.358 -26.616 -14.045  0.00  0.00    +0.034 C 
ENDROOT
BRANCH   1   2
ATOM      2  N   UNL     1      38.191 -25.438 -13.801  0.00  0.00    +0.391 N 
ATOM      3  C   UNL     1      39.586 -25.721 -14.135  0.00  0.00    -0.100 C 
ATOM      4  C   UNL     1      38.075 -25.011 -12.408  0.00  0.00    -0.100 C 
ATOM      5  H   UNL     1      37.862 -24.681 -14.400  0.00  0.00    -0.079 HD
ENDBRANCH   1   2
BRANCH   1   7
ATOM      6  O   UNL     1      35.745 -25.524 -15.465  0.00  0.00    -0.253 OA
ATOM      7  C   UNL     1      36.586 -26.403 -15.317  0.00  0.00    +0.293 C 
BRANCH   7   8
ATOM      8  O   UNL     1      36.885 -27.314 -16.278  0.00  0.00    -0.482 OA
ATOM      9  H   UNL     1      36.244 -27.943 -16.543  0.00  0.00    +0.295 HD
ENDBRANCH   7   8
ENDBRANCH   1   7
TORSDOF 3
ENDMDL
MODEL 7
REMARK VINA RESULT:      -4.0      4.274      4.977
REMARK  Name = 673
REMARK  3 active torsions:
REMARK  status: ('A' for Active; 'I' for Inactive)
REMARK    1  A    between atoms: C_1  and  N_2
REMARK    2  A    between atoms: C_1  and  C_7
REMARK    3  A    between atoms: C_7  and  O_8
REMARK                            x       y       z     vdW  Elec       q    Type
REMARK                         _______ _______ _______ _____ _____    ______ ____
ROOT
ATOM      1  C   UNL     1      35.474 -23.804 -12.419  0.00  0.00    +0.034 C 
ENDROOT
BRANCH   1   2
ATOM      2  N   UNL     1      35.361 -24.926 -13.350  0.00  0.00    +0.391 N 
ATOM      3  C   UNL     1      36.687 -25.419 -13.719  0.00  0.00    -0.100 C 
ATOM      4  C   UNL     1      34.614 -24.528 -14.542  0.00  0.00    -0.100 C 
ATOM      5  H   UNL     1      34.853 -25.680 -12.887  0.00  0.00    -0.079 HD
ENDBRANCH   1   2
BRANCH   1   7
ATOM      6  O   UNL     1      35.208 -25.201 -10.472  0.00  0.00    -0.253 OA
ATOM      7  C   UNL     1      35.847 -24.339 -11.064  0.00  0.00    +0.293 C 
BRANCH   7   8
ATOM      8  O   UNL     1      36.946 -23.738 -10.541  0.00  0.00    -0.482 OA
ATOM      9  H   UNL     1      37.321 -22.994 -10.970  0.00  0.00    +0.295 HD
ENDBRANCH   7   8
ENDBRANCH   1   7
TORSDOF 3
ENDMDL
MODEL 8
REMARK VINA RESULT:      -4.0      2.884      3.505
REMARK  Name = 673
REMARK  3 active torsions:
REMARK  status: ('A' for Active; 'I' for Inactive)
REMARK    1  A    between atoms: C_1  and  N_2
REMARK    2  A    between atoms: C_1  and  C_7
REMARK    3  A    between atoms: C_7  and  O_8
REMARK                            x       y       z     vdW  Elec       q    Type
REMARK                         _______ _______ _______ _____ _____    ______ ____
ROOT
ATOM      1  C   UNL     1      37.809 -24.387 -13.368  0.00  0.00    +0.034 C 
ENDROOT
BRANCH   1   2
ATOM      2  N   UNL     1      38.412 -25.716 -13.462  0.00  0.00    +0.391 N 
ATOM      3  C   UNL     1      39.764 -25.625 -14.009  0.00  0.00    -0.100 C 
ATOM      4  C   UNL     1      37.584 -26.595 -14.286  0.00  0.00    -0.100 C 
ATOM      5  H   UNL     1      38.468 -26.111 -12.523  0.00  0.00    -0.079 HD
ENDBRANCH   1   2
BRANCH   1   7
ATOM      6  O   UNL     1      38.696 -22.932 -11.664  0.00  0.00    -0.253 OA
ATOM      7  C   UNL     1      37.979 -23.879 -11.964  0.00  0.00    +0.293 C 
BRANCH   7   8
ATOM      8  O   UNL     1      37.286 -24.605 -11.049  0.00  0.00    -0.482 OA
ATOM      9  H   UNL     1      36.636 -24.190 -10.518  0.00  0.00    +0.295 HD
ENDBRANCH   7   8
ENDBRANCH   1   7
TORSDOF 3
ENDMDL
MODEL 9
REMARK VINA RESULT:      -3.9      1.550      2.007
REMARK  Name = 673
REMARK  3 active torsions:
REMARK  status: ('A' for Active; 'I' for Inactive)
REMARK    1  A    between atoms: C_1  and  N_2
REMARK    2  A    between atoms: C_1  and  C_7
REMARK    3  A    between atoms: C_7  and  O_8
REMARK                            x       y       z     vdW  Elec       q    Type
REMARK                         _______ _______ _______ _____ _____    ______ ____
ROOT
ATOM      1  C   UNL     1      38.162 -24.652 -14.404  0.00  0.00    +0.034 C 
ENDROOT
BRANCH   1   2
ATOM      2  N   UNL     1      37.251 -24.215 -15.462  0.00  0.00    +0.391 N 
ATOM      3  C   UNL     1      37.479 -22.807 -15.783  0.00  0.00    -0.100 C 
ATOM      4  C   UNL     1      35.862 -24.431 -15.062  0.00  0.00    -0.100 C 
ATOM      5  H   UNL     1      37.437 -24.771 -16.297  0.00  0.00    -0.079 HD
ENDBRANCH   1   2
BRANCH   1   7
ATOM      6  O   UNL     1      38.468 -27.041 -14.503  0.00  0.00    -0.253 OA
ATOM      7  C   UNL     1      38.836 -25.922 -14.842  0.00  0.00    +0.293 C 
BRANCH   7   8
ATOM      8  O   UNL     1      39.924 -25.702 -15.624  0.00  0.00    -0.482 OA
ATOM      9  H   UNL     1      39.931 -24.984 -16.225  0.00  0.00    +0.295 HD
ENDBRANCH   7   8
ENDBRANCH   1   7
TORSDOF 3
ENDMDL
