MODEL 1
REMARK VINA RESULT:      -8.7      0.000      0.000
REMARK  Name = 134019
REMARK  8 active torsions:
REMARK  status: ('A' for Active; 'I' for Inactive)
REMARK    1  A    between atoms: C_6  and  N_17
REMARK    2  A    between atoms: C_7  and  N_25
REMARK    3  A    between atoms: N_17  and  C_19
REMARK    4  A    between atoms: C_19  and  C_20
REMARK    5  A    between atoms: C_20  and  N_21
REMARK    6  A    between atoms: N_25  and  C_27
REMARK    7  A    between atoms: C_27  and  C_28
REMARK    8  A    between atoms: C_28  and  N_29
REMARK                            x       y       z     vdW  Elec       q    Type
REMARK                         _______ _______ _______ _____ _____    ______ ____
ROOT
ATOM      1  O   UNL     1      32.337 -22.707 -18.078  0.00  0.00    -0.287 OA
ATOM      2  O   UNL     1      34.711 -24.141 -13.511  0.00  0.00    -0.286 OA
ATOM      3  N   UNL     1      30.644 -24.740 -13.863  0.00  0.00    -0.242 NA
ATOM      4  C   UNL     1      34.375 -22.834 -16.870  0.00  0.00    +0.056 C 
ATOM      5  C   UNL     1      34.997 -23.208 -15.676  0.00  0.00    +0.056 C 
ATOM      6  C   UNL     1      35.131 -22.275 -17.906  0.00  0.00    +0.048 C 
ATOM      7  C   UNL     1      36.375 -23.024 -15.518  0.00  0.00    +0.048 C 
ATOM      8  C   UNL     1      32.919 -23.023 -17.049  0.00  0.00    +0.197 C 
ATOM      9  C   UNL     1      34.209 -23.799 -14.574  0.00  0.00    +0.198 C 
ATOM     10  C   UNL     1      32.135 -23.616 -15.948  0.00  0.00    +0.045 C 
ATOM     11  C   UNL     1      32.759 -23.988 -14.761  0.00  0.00    +0.061 C 
ATOM     12  C   UNL     1      36.506 -22.093 -17.745  0.00  0.00    +0.016 C 
ATOM     13  C   UNL     1      37.126 -22.466 -16.554  0.00  0.00    +0.016 C 
ATOM     14  C   UNL     1      30.761 -23.807 -16.092  0.00  0.00    +0.024 C 
ATOM     15  C   UNL     1      31.977 -24.541 -13.755  0.00  0.00    +0.102 C 
ATOM     16  C   UNL     1      30.072 -24.368 -15.029  0.00  0.00    +0.099 C 
ENDROOT
BRANCH   6  17
ATOM     17  N   UNL     1      34.574 -21.872 -19.140  0.00  0.00    -0.335 N 
ATOM     18  H   UNL     1      33.762 -22.327 -19.462  0.00  0.00    +0.147 HD
BRANCH  17  19
ATOM     19  C   UNL     1      35.137 -20.832 -19.941  0.00  0.00    +0.063 C 
BRANCH  19  20
ATOM     20  C   UNL     1      34.022 -20.035 -20.605  0.00  0.00    -0.065 C 
BRANCH  20  21
ATOM     21  N   UNL     1      32.726 -20.437 -20.074  0.00  0.00    +0.382 N 
ATOM     22  H   UNL     1      32.637 -20.113 -19.112  0.00  0.00    -0.089 HD
ATOM     23  H   UNL     1      32.649 -21.454 -20.099  0.00  0.00    -0.089 HD
ATOM     24  H   UNL     1      31.984 -20.026 -20.642  0.00  0.00    -0.089 HD
ENDBRANCH  20  21
ENDBRANCH  19  20
ENDBRANCH  17  19
ENDBRANCH   6  17
BRANCH   7  25
ATOM     25  N   UNL     1      37.073 -23.377 -14.341  0.00  0.00    -0.335 N 
ATOM     26  H   UNL     1      36.853 -22.907 -13.503  0.00  0.00    +0.147 HD
BRANCH  25  27
ATOM     27  C   UNL     1      38.082 -24.388 -14.313  0.00  0.00    +0.063 C 
BRANCH  27  28
ATOM     28  C   UNL     1      37.490 -25.715 -14.770  0.00  0.00    -0.065 C 
BRANCH  28  29
ATOM     29  N   UNL     1      36.803 -26.370 -13.664  0.00  0.00    +0.382 N 
ATOM     30  H   UNL     1      36.710 -27.367 -13.864  0.00  0.00    -0.089 HD
ATOM     31  H   UNL     1      35.876 -25.960 -13.547  0.00  0.00    -0.089 HD
ATOM     32  H   UNL     1      37.341 -26.245 -12.807  0.00  0.00    -0.089 HD
ENDBRANCH  28  29
ENDBRANCH  27  28
ENDBRANCH  25  27
ENDBRANCH   7  25
TORSDOF 8
ENDMDL
MODEL 2
REMARK VINA RESULT:      -8.6      1.610      4.723
REMARK  Name = 134019
REMARK  8 active torsions:
REMARK  status: ('A' for Active; 'I' for Inactive)
REMARK    1  A    between atoms: C_6  and  N_17
REMARK    2  A    between atoms: C_7  and  N_25
REMARK    3  A    between atoms: N_17  and  C_19
REMARK    4  A    between atoms: C_19  and  C_20
REMARK    5  A    between atoms: C_20  and  N_21
REMARK    6  A    between atoms: N_25  and  C_27
REMARK    7  A    between atoms: C_27  and  C_28
REMARK    8  A    between atoms: C_28  and  N_29
REMARK                            x       y       z     vdW  Elec       q    Type
REMARK                         _______ _______ _______ _____ _____    ______ ____
ROOT
ATOM      1  O   UNL     1      32.212 -22.865 -17.877  0.00  0.00    -0.287 OA
ATOM      2  O   UNL     1      37.161 -22.554 -15.885  0.00  0.00    -0.286 OA
ATOM      3  N   UNL     1      36.507 -21.140 -19.706  0.00  0.00    -0.242 NA
ATOM      4  C   UNL     1      33.621 -23.299 -16.019  0.00  0.00    +0.056 C 
ATOM      5  C   UNL     1      34.915 -23.220 -15.497  0.00  0.00    +0.056 C 
ATOM      6  C   UNL     1      32.590 -23.847 -15.247  0.00  0.00    +0.048 C 
ATOM      7  C   UNL     1      35.177 -23.686 -14.203  0.00  0.00    +0.048 C 
ATOM      8  C   UNL     1      33.331 -22.811 -17.384  0.00  0.00    +0.197 C 
ATOM      9  C   UNL     1      36.013 -22.644 -16.301  0.00  0.00    +0.198 C 
ATOM     10  C   UNL     1      34.429 -22.234 -18.184  0.00  0.00    +0.045 C 
ATOM     11  C   UNL     1      35.715 -22.156 -17.660  0.00  0.00    +0.061 C 
ATOM     12  C   UNL     1      32.855 -24.310 -13.957  0.00  0.00    +0.016 C 
ATOM     13  C   UNL     1      34.145 -24.230 -13.438  0.00  0.00    +0.016 C 
ATOM     14  C   UNL     1      34.181 -21.764 -19.474  0.00  0.00    +0.024 C 
ATOM     15  C   UNL     1      36.714 -21.605 -18.453  0.00  0.00    +0.102 C 
ATOM     16  C   UNL     1      35.246 -21.232 -20.183  0.00  0.00    +0.099 C 
ENDROOT
BRANCH   6  17
ATOM     17  N   UNL     1      31.258 -23.962 -15.706  0.00  0.00    -0.335 N 
ATOM     18  H   UNL     1      31.103 -24.188 -16.651  0.00  0.00    +0.147 HD
BRANCH  17  19
ATOM     19  C   UNL     1      30.126 -23.763 -14.856  0.00  0.00    +0.063 C 
BRANCH  19  20
ATOM     20  C   UNL     1      29.201 -22.721 -15.471  0.00  0.00    -0.065 C 
BRANCH  20  21
ATOM     21  N   UNL     1      29.366 -22.687 -16.919  0.00  0.00    +0.382 N 
ATOM     22  H   UNL     1      28.787 -23.409 -17.344  0.00  0.00    -0.089 HD
ATOM     23  H   UNL     1      30.345 -22.855 -17.153  0.00  0.00    -0.089 HD
ATOM     24  H   UNL     1      29.084 -21.772 -17.271  0.00  0.00    -0.089 HD
ENDBRANCH  20  21
ENDBRANCH  19  20
ENDBRANCH  17  19
ENDBRANCH   6  17
BRANCH   7  25
ATOM     25  N   UNL     1      36.459 -23.638 -13.609  0.00  0.00    -0.335 N 
ATOM     26  H   UNL     1      36.905 -22.764 -13.521  0.00  0.00    +0.147 HD
BRANCH  25  27
ATOM     27  C   UNL     1      37.133 -24.802 -13.130  0.00  0.00    +0.063 C 
BRANCH  27  28
ATOM     28  C   UNL     1      37.436 -25.734 -14.297  0.00  0.00    -0.065 C 
BRANCH  28  29
ATOM     29  N   UNL     1      38.452 -25.148 -15.163  0.00  0.00    +0.382 N 
ATOM     30  H   UNL     1      38.772 -25.849 -15.833  0.00  0.00    -0.089 HD
ATOM     31  H   UNL     1      39.241 -24.833 -14.598  0.00  0.00    -0.089 HD
ATOM     32  H   UNL     1      38.054 -24.355 -15.665  0.00  0.00    -0.089 HD
ENDBRANCH  28  29
ENDBRANCH  27  28
ENDBRANCH  25  27
ENDBRANCH   7  25
TORSDOF 8
ENDMDL
MODEL 3
REMARK VINA RESULT:      -8.5      1.606      6.293
REMARK  Name = 134019
REMARK  8 active torsions:
REMARK  status: ('A' for Active; 'I' for Inactive)
REMARK    1  A    between atoms: C_6  and  N_17
REMARK    2  A    between atoms: C_7  and  N_25
REMARK    3  A    between atoms: N_17  and  C_19
REMARK    4  A    between atoms: C_19  and  C_20
REMARK    5  A    between atoms: C_20  and  N_21
REMARK    6  A    between atoms: N_25  and  C_27
REMARK    7  A    between atoms: C_27  and  C_28
REMARK    8  A    between atoms: C_28  and  N_29
REMARK                            x       y       z     vdW  Elec       q    Type
REMARK                         _______ _______ _______ _____ _____    ______ ____
ROOT
ATOM      1  O   UNL     1      37.299 -22.435 -16.108  0.00  0.00    -0.287 OA
ATOM      2  O   UNL     1      32.280 -22.840 -17.897  0.00  0.00    -0.286 OA
ATOM      3  N   UNL     1      35.108 -21.166 -20.392  0.00  0.00    -0.242 NA
ATOM      4  C   UNL     1      35.085 -23.142 -15.629  0.00  0.00    +0.056 C 
ATOM      5  C   UNL     1      33.772 -23.248 -16.096  0.00  0.00    +0.056 C 
ATOM      6  C   UNL     1      35.410 -23.600 -14.347  0.00  0.00    +0.048 C 
ATOM      7  C   UNL     1      32.784 -23.813 -15.281  0.00  0.00    +0.048 C 
ATOM      8  C   UNL     1      36.139 -22.548 -16.480  0.00  0.00    +0.197 C 
ATOM      9  C   UNL     1      33.416 -22.769 -17.447  0.00  0.00    +0.198 C 
ATOM     10  C   UNL     1      35.781 -22.071 -17.831  0.00  0.00    +0.045 C 
ATOM     11  C   UNL     1      34.472 -22.180 -18.291  0.00  0.00    +0.061 C 
ATOM     12  C   UNL     1      34.421 -24.163 -13.538  0.00  0.00    +0.016 C 
ATOM     13  C   UNL     1      33.112 -24.268 -14.003  0.00  0.00    +0.016 C 
ATOM     14  C   UNL     1      36.756 -21.508 -18.654  0.00  0.00    +0.024 C 
ATOM     15  C   UNL     1      34.186 -21.716 -19.570  0.00  0.00    +0.102 C 
ATOM     16  C   UNL     1      36.368 -21.077 -19.913  0.00  0.00    +0.099 C 
ENDROOT
BRANCH   6  17
ATOM     17  N   UNL     1      36.713 -23.526 -13.807  0.00  0.00    -0.335 N 
ATOM     18  H   UNL     1      37.151 -22.646 -13.750  0.00  0.00    +0.147 HD
BRANCH  17  19
ATOM     19  C   UNL     1      37.424 -24.675 -13.339  0.00  0.00    +0.063 C 
BRANCH  19  20
ATOM     20  C   UNL     1      37.817 -25.550 -14.522  0.00  0.00    -0.065 C 
BRANCH  20  21
ATOM     21  N   UNL     1      38.878 -24.915 -15.293  0.00  0.00    +0.382 N 
ATOM     22  H   UNL     1      39.583 -25.609 -15.537  0.00  0.00    -0.089 HD
ATOM     23  H   UNL     1      39.306 -24.175 -14.736  0.00  0.00    -0.089 HD
ATOM     24  H   UNL     1      38.485 -24.515 -16.145  0.00  0.00    -0.089 HD
ENDBRANCH  20  21
ENDBRANCH  19  20
ENDBRANCH  17  19
ENDBRANCH   6  17
BRANCH   7  25
ATOM     25  N   UNL     1      31.437 -23.953 -15.684  0.00  0.00    -0.335 N 
ATOM     26  H   UNL     1      31.247 -24.180 -16.623  0.00  0.00    +0.147 HD
BRANCH  25  27
ATOM     27  C   UNL     1      30.339 -23.779 -14.787  0.00  0.00    +0.063 C 
BRANCH  27  28
ATOM     28  C   UNL     1      29.333 -22.808 -15.391  0.00  0.00    -0.065 C 
BRANCH  28  29
ATOM     29  N   UNL     1      29.535 -22.700 -16.831  0.00  0.00    +0.382 N 
ATOM     30  H   UNL     1      29.881 -21.766 -17.055  0.00  0.00    -0.089 HD
ATOM     31  H   UNL     1      28.649 -22.858 -17.311  0.00  0.00    -0.089 HD
ATOM     32  H   UNL     1      30.215 -23.397 -17.132  0.00  0.00    -0.089 HD
ENDBRANCH  28  29
ENDBRANCH  27  28
ENDBRANCH  25  27
ENDBRANCH   7  25
TORSDOF 8
ENDMDL
MODEL 4
REMARK VINA RESULT:      -8.3      1.683      2.235
REMARK  Name = 134019
REMARK  8 active torsions:
REMARK  status: ('A' for Active; 'I' for Inactive)
REMARK    1  A    between atoms: C_6  and  N_17
REMARK    2  A    between atoms: C_7  and  N_25
REMARK    3  A    between atoms: N_17  and  C_19
REMARK    4  A    between atoms: C_19  and  C_20
REMARK    5  A    between atoms: C_20  and  N_21
REMARK    6  A    between atoms: N_25  and  C_27
REMARK    7  A    between atoms: C_27  and  C_28
REMARK    8  A    between atoms: C_28  and  N_29
REMARK                            x       y       z     vdW  Elec       q    Type
REMARK                         _______ _______ _______ _____ _____    ______ ____
ROOT
ATOM      1  O   UNL     1      32.250 -22.622 -17.864  0.00  0.00    -0.287 OA
ATOM      2  O   UNL     1      32.436 -24.964 -13.065  0.00  0.00    -0.286 OA
ATOM      3  N   UNL     1      28.751 -24.495 -14.861  0.00  0.00    -0.242 NA
ATOM      4  C   UNL     1      33.630 -23.352 -16.078  0.00  0.00    +0.056 C 
ATOM      5  C   UNL     1      33.680 -23.963 -14.822  0.00  0.00    +0.056 C 
ATOM      6  C   UNL     1      34.811 -22.919 -16.691  0.00  0.00    +0.048 C 
ATOM      7  C   UNL     1      34.910 -24.143 -14.181  0.00  0.00    +0.048 C 
ATOM      8  C   UNL     1      32.335 -23.155 -16.766  0.00  0.00    +0.197 C 
ATOM      9  C   UNL     1      32.440 -24.424 -14.164  0.00  0.00    +0.198 C 
ATOM     10  C   UNL     1      31.099 -23.618 -16.107  0.00  0.00    +0.045 C 
ATOM     11  C   UNL     1      31.154 -24.228 -14.857  0.00  0.00    +0.061 C 
ATOM     12  C   UNL     1      36.037 -23.101 -16.048  0.00  0.00    +0.016 C 
ATOM     13  C   UNL     1      36.086 -23.711 -14.797  0.00  0.00    +0.016 C 
ATOM     14  C   UNL     1      29.865 -23.447 -16.735  0.00  0.00    +0.024 C 
ATOM     15  C   UNL     1      29.962 -24.646 -14.279  0.00  0.00    +0.102 C 
ATOM     16  C   UNL     1      28.735 -23.900 -16.074  0.00  0.00    +0.099 C 
ENDROOT
BRANCH   6  17
ATOM     17  N   UNL     1      34.840 -22.292 -17.957  0.00  0.00    -0.335 N 
ATOM     18  H   UNL     1      34.002 -22.225 -18.470  0.00  0.00    +0.147 HD
BRANCH  17  19
ATOM     19  C   UNL     1      36.035 -21.753 -18.527  0.00  0.00    +0.063 C 
BRANCH  19  20
ATOM     20  C   UNL     1      35.703 -21.036 -19.829  0.00  0.00    -0.065 C 
BRANCH  20  21
ATOM     21  N   UNL     1      36.604 -19.909 -20.032  0.00  0.00    +0.382 N 
ATOM     22  H   UNL     1      37.142 -19.746 -19.182  0.00  0.00    -0.089 HD
ATOM     23  H   UNL     1      36.059 -19.075 -20.255  0.00  0.00    -0.089 HD
ATOM     24  H   UNL     1      37.239 -20.117 -20.803  0.00  0.00    -0.089 HD
ENDBRANCH  20  21
ENDBRANCH  19  20
ENDBRANCH  17  19
ENDBRANCH   6  17
BRANCH   7  25
ATOM     25  N   UNL     1      35.039 -24.753 -12.912  0.00  0.00    -0.335 N 
ATOM     26  H   UNL     1      34.221 -24.991 -12.418  0.00  0.00    +0.147 HD
BRANCH  25  27
ATOM     27  C   UNL     1      36.306 -25.039 -12.316  0.00  0.00    +0.063 C 
BRANCH  27  28
ATOM     28  C   UNL     1      36.651 -23.956 -11.303  0.00  0.00    -0.065 C 
BRANCH  28  29
ATOM     29  N   UNL     1      38.000 -23.455 -11.535  0.00  0.00    +0.382 N 
ATOM     30  H   UNL     1      38.658 -24.236 -11.525  0.00  0.00    -0.089 HD
ATOM     31  H   UNL     1      38.248 -22.792 -10.800  0.00  0.00    -0.089 HD
ATOM     32  H   UNL     1      38.039 -22.990 -12.442  0.00  0.00    -0.089 HD
ENDBRANCH  28  29
ENDBRANCH  27  28
ENDBRANCH  25  27
ENDBRANCH   7  25
TORSDOF 8
ENDMDL
MODEL 5
REMARK VINA RESULT:      -8.2      1.893      5.731
REMARK  Name = 134019
REMARK  8 active torsions:
REMARK  status: ('A' for Active; 'I' for Inactive)
REMARK    1  A    between atoms: C_6  and  N_17
REMARK    2  A    between atoms: C_7  and  N_25
REMARK    3  A    between atoms: N_17  and  C_19
REMARK    4  A    between atoms: C_19  and  C_20
REMARK    5  A    between atoms: C_20  and  N_21
REMARK    6  A    between atoms: N_25  and  C_27
REMARK    7  A    between atoms: C_27  and  C_28
REMARK    8  A    between atoms: C_28  and  N_29
REMARK                            x       y       z     vdW  Elec       q    Type
REMARK                         _______ _______ _______ _____ _____    ______ ____
ROOT
ATOM      1  O   UNL     1      33.009 -24.250 -13.136  0.00  0.00    -0.287 OA
ATOM      2  O   UNL     1      36.946 -22.813 -16.452  0.00  0.00    -0.286 OA
ATOM      3  N   UNL     1      37.951 -23.967 -12.619  0.00  0.00    -0.242 NA
ATOM      4  C   UNL     1      33.579 -23.496 -15.313  0.00  0.00    +0.056 C 
ATOM      5  C   UNL     1      34.607 -23.119 -16.180  0.00  0.00    +0.056 C 
ATOM      6  C   UNL     1      32.251 -23.476 -15.754  0.00  0.00    +0.048 C 
ATOM      7  C   UNL     1      34.308 -22.724 -17.489  0.00  0.00    +0.048 C 
ATOM      8  C   UNL     1      33.881 -23.915 -13.927  0.00  0.00    +0.197 C 
ATOM      9  C   UNL     1      36.013 -23.135 -15.727  0.00  0.00    +0.198 C 
ATOM     10  C   UNL     1      35.287 -23.933 -13.477  0.00  0.00    +0.045 C 
ATOM     11  C   UNL     1      36.308 -23.558 -14.345  0.00  0.00    +0.061 C 
ATOM     12  C   UNL     1      31.956 -23.081 -17.060  0.00  0.00    +0.016 C 
ATOM     13  C   UNL     1      32.982 -22.706 -17.925  0.00  0.00    +0.016 C 
ATOM     14  C   UNL     1      35.600 -24.326 -12.176  0.00  0.00    +0.024 C 
ATOM     15  C   UNL     1      37.614 -23.591 -13.874  0.00  0.00    +0.102 C 
ATOM     16  C   UNL     1      36.934 -24.325 -11.804  0.00  0.00    +0.099 C 
ENDROOT
BRANCH   6  17
ATOM     17  N   UNL     1      31.158 -23.842 -14.935  0.00  0.00    -0.335 N 
ATOM     18  H   UNL     1      31.300 -24.517 -14.233  0.00  0.00    +0.147 HD
BRANCH  17  19
ATOM     19  C   UNL     1      29.855 -23.273 -15.084  0.00  0.00    +0.063 C 
BRANCH  19  20
ATOM     20  C   UNL     1      28.848 -24.374 -15.389  0.00  0.00    -0.065 C 
BRANCH  20  21
ATOM     21  N   UNL     1      28.978 -25.462 -14.428  0.00  0.00    +0.382 N 
ATOM     22  H   UNL     1      28.768 -26.348 -14.886  0.00  0.00    -0.089 HD
ATOM     23  H   UNL     1      28.325 -25.314 -13.658  0.00  0.00    -0.089 HD
ATOM     24  H   UNL     1      29.932 -25.483 -14.067  0.00  0.00    -0.089 HD
ENDBRANCH  20  21
ENDBRANCH  19  20
ENDBRANCH  17  19
ENDBRANCH   6  17
BRANCH   7  25
ATOM     25  N   UNL     1      35.294 -22.330 -18.422  0.00  0.00    -0.335 N 
ATOM     26  H   UNL     1      36.213 -22.666 -18.308  0.00  0.00    +0.147 HD
BRANCH  25  27
ATOM     27  C   UNL     1      35.014 -21.466 -19.525  0.00  0.00    +0.063 C 
BRANCH  27  28
ATOM     28  C   UNL     1      36.307 -20.828 -20.016  0.00  0.00    -0.065 C 
BRANCH  28  29
ATOM     29  N   UNL     1      36.074 -19.441 -20.399  0.00  0.00    +0.382 N 
ATOM     30  H   UNL     1      36.867 -18.869 -20.105  0.00  0.00    -0.089 HD
ATOM     31  H   UNL     1      35.225 -19.101 -19.948  0.00  0.00    -0.089 HD
ATOM     32  H   UNL     1      35.969 -19.381 -21.412  0.00  0.00    -0.089 HD
ENDBRANCH  28  29
ENDBRANCH  27  28
ENDBRANCH  25  27
ENDBRANCH   7  25
TORSDOF 8
ENDMDL
MODEL 6
REMARK VINA RESULT:      -6.8      1.960      6.682
REMARK  Name = 134019
REMARK  8 active torsions:
REMARK  status: ('A' for Active; 'I' for Inactive)
REMARK    1  A    between atoms: C_6  and  N_17
REMARK    2  A    between atoms: C_7  and  N_25
REMARK    3  A    between atoms: N_17  and  C_19
REMARK    4  A    between atoms: C_19  and  C_20
REMARK    5  A    between atoms: C_20  and  N_21
REMARK    6  A    between atoms: N_25  and  C_27
REMARK    7  A    between atoms: C_27  and  C_28
REMARK    8  A    between atoms: C_28  and  N_29
REMARK                            x       y       z     vdW  Elec       q    Type
REMARK                         _______ _______ _______ _____ _____    ______ ____
ROOT
ATOM      1  O   UNL     1      37.319 -22.104 -17.434  0.00  0.00    -0.287 OA
ATOM      2  O   UNL     1      32.202 -21.886 -18.956  0.00  0.00    -0.286 OA
ATOM      3  N   UNL     1      35.017 -20.008 -21.317  0.00  0.00    -0.242 NA
ATOM      4  C   UNL     1      35.087 -22.737 -16.942  0.00  0.00    +0.056 C 
ATOM      5  C   UNL     1      33.748 -22.681 -17.338  0.00  0.00    +0.056 C 
ATOM      6  C   UNL     1      35.440 -23.420 -15.772  0.00  0.00    +0.048 C 
ATOM      7  C   UNL     1      32.763 -23.307 -16.566  0.00  0.00    +0.048 C 
ATOM      8  C   UNL     1      36.137 -22.079 -17.749  0.00  0.00    +0.197 C 
ATOM      9  C   UNL     1      33.361 -21.963 -18.571  0.00  0.00    +0.198 C 
ATOM     10  C   UNL     1      35.748 -21.365 -18.981  0.00  0.00    +0.045 C 
ATOM     11  C   UNL     1      34.414 -21.312 -19.371  0.00  0.00    +0.061 C 
ATOM     12  C   UNL     1      34.455 -24.044 -15.005  0.00  0.00    +0.016 C 
ATOM     13  C   UNL     1      33.120 -23.987 -15.401  0.00  0.00    +0.016 C 
ATOM     14  C   UNL     1      36.720 -20.737 -19.760  0.00  0.00    +0.024 C 
ATOM     15  C   UNL     1      34.100 -20.627 -20.538  0.00  0.00    +0.102 C 
ATOM     16  C   UNL     1      36.302 -20.081 -20.907  0.00  0.00    +0.099 C 
ENDROOT
BRANCH   6  17
ATOM     17  N   UNL     1      36.771 -23.520 -15.308  0.00  0.00    -0.335 N 
ATOM     18  H   UNL     1      37.439 -22.884 -15.650  0.00  0.00    +0.147 HD
BRANCH  17  19
ATOM     19  C   UNL     1      37.188 -24.506 -14.361  0.00  0.00    +0.063 C 
BRANCH  19  20
ATOM     20  C   UNL     1      37.566 -23.830 -13.050  0.00  0.00    -0.065 C 
BRANCH  20  21
ATOM     21  N   UNL     1      37.826 -24.828 -12.021  0.00  0.00    +0.382 N 
ATOM     22  H   UNL     1      38.829 -24.881 -11.844  0.00  0.00    -0.089 HD
ATOM     23  H   UNL     1      37.488 -25.738 -12.337  0.00  0.00    -0.089 HD
ATOM     24  H   UNL     1      37.343 -24.565 -11.162  0.00  0.00    -0.089 HD
ENDBRANCH  20  21
ENDBRANCH  19  20
ENDBRANCH  17  19
ENDBRANCH   6  17
BRANCH   7  25
ATOM     25  N   UNL     1      31.390 -23.292 -16.903  0.00  0.00    -0.335 N 
ATOM     26  H   UNL     1      31.133 -23.463 -17.838  0.00  0.00    +0.147 HD
BRANCH  25  27
ATOM     27  C   UNL     1      30.361 -23.041 -15.945  0.00  0.00    +0.063 C 
BRANCH  27  28
ATOM     28  C   UNL     1      29.132 -23.874 -16.285  0.00  0.00    -0.065 C 
BRANCH  28  29
ATOM     29  N   UNL     1      28.029 -23.009 -16.686  0.00  0.00    +0.382 N 
ATOM     30  H   UNL     1      27.945 -23.015 -17.703  0.00  0.00    -0.089 HD
ATOM     31  H   UNL     1      28.209 -22.057 -16.366  0.00  0.00    -0.089 HD
ATOM     32  H   UNL     1      27.161 -23.349 -16.271  0.00  0.00    -0.089 HD
ENDBRANCH  28  29
ENDBRANCH  27  28
ENDBRANCH  25  27
ENDBRANCH   7  25
TORSDOF 8
ENDMDL
MODEL 7
REMARK VINA RESULT:      -6.8      8.641     13.313
REMARK  Name = 134019
REMARK  8 active torsions:
REMARK  status: ('A' for Active; 'I' for Inactive)
REMARK    1  A    between atoms: C_6  and  N_17
REMARK    2  A    between atoms: C_7  and  N_25
REMARK    3  A    between atoms: N_17  and  C_19
REMARK    4  A    between atoms: C_19  and  C_20
REMARK    5  A    between atoms: C_20  and  N_21
REMARK    6  A    between atoms: N_25  and  C_27
REMARK    7  A    between atoms: C_27  and  C_28
REMARK    8  A    between atoms: C_28  and  N_29
REMARK                            x       y       z     vdW  Elec       q    Type
REMARK                         _______ _______ _______ _____ _____    ______ ____
ROOT
ATOM      1  O   UNL     1      32.377 -14.207 -20.120  0.00  0.00    -0.287 OA
ATOM      2  O   UNL     1      32.665 -10.244 -23.692  0.00  0.00    -0.286 OA
ATOM      3  N   UNL     1      31.330  -9.347 -19.892  0.00  0.00    -0.242 NA
ATOM      4  C   UNL     1      32.933 -13.592 -22.343  0.00  0.00    +0.056 C 
ATOM      5  C   UNL     1      33.008 -12.556 -23.278  0.00  0.00    +0.056 C 
ATOM      6  C   UNL     1      33.308 -14.890 -22.707  0.00  0.00    +0.048 C 
ATOM      7  C   UNL     1      33.459 -12.819 -24.577  0.00  0.00    +0.048 C 
ATOM      8  C   UNL     1      32.459 -13.328 -20.967  0.00  0.00    +0.197 C 
ATOM      9  C   UNL     1      32.616 -11.181 -22.906  0.00  0.00    +0.198 C 
ATOM     10  C   UNL     1      32.069 -11.952 -20.598  0.00  0.00    +0.045 C 
ATOM     11  C   UNL     1      32.147 -10.925 -21.532  0.00  0.00    +0.061 C 
ATOM     12  C   UNL     1      33.757 -15.148 -24.003  0.00  0.00    +0.016 C 
ATOM     13  C   UNL     1      33.831 -14.115 -24.935  0.00  0.00    +0.016 C 
ATOM     14  C   UNL     1      31.620 -11.676 -19.306  0.00  0.00    +0.024 C 
ATOM     15  C   UNL     1      31.769  -9.648 -21.135  0.00  0.00    +0.102 C 
ATOM     16  C   UNL     1      31.267 -10.369 -19.011  0.00  0.00    +0.099 C 
ENDROOT
BRANCH   6  17
ATOM     17  N   UNL     1      33.258 -15.987 -21.818  0.00  0.00    -0.335 N 
ATOM     18  H   UNL     1      32.382 -16.384 -21.606  0.00  0.00    +0.147 HD
BRANCH  17  19
ATOM     19  C   UNL     1      34.426 -16.546 -21.212  0.00  0.00    +0.063 C 
BRANCH  19  20
ATOM     20  C   UNL     1      34.473 -18.045 -21.477  0.00  0.00    -0.065 C 
BRANCH  20  21
ATOM     21  N   UNL     1      35.596 -18.650 -20.774  0.00  0.00    +0.382 N 
ATOM     22  H   UNL     1      36.450 -18.509 -21.313  0.00  0.00    -0.089 HD
ATOM     23  H   UNL     1      35.427 -19.650 -20.659  0.00  0.00    -0.089 HD
ATOM     24  H   UNL     1      35.697 -18.214 -19.857  0.00  0.00    -0.089 HD
ENDBRANCH  20  21
ENDBRANCH  19  20
ENDBRANCH  17  19
ENDBRANCH   6  17
BRANCH   7  25
ATOM     25  N   UNL     1      33.562 -11.824 -25.575  0.00  0.00    -0.335 N 
ATOM     26  H   UNL     1      32.817 -11.189 -25.687  0.00  0.00    +0.147 HD
BRANCH  25  27
ATOM     27  C   UNL     1      34.700 -11.699 -26.429  0.00  0.00    +0.063 C 
BRANCH  27  28
ATOM     28  C   UNL     1      35.423 -10.392 -26.129  0.00  0.00    -0.065 C 
BRANCH  28  29
ATOM     29  N   UNL     1      35.533 -10.192 -24.689  0.00  0.00    +0.382 N 
ATOM     30  H   UNL     1      34.693 -10.547 -24.232  0.00  0.00    -0.089 HD
ATOM     31  H   UNL     1      35.633  -9.196 -24.491  0.00  0.00    -0.089 HD
ATOM     32  H   UNL     1      36.349 -10.693 -24.338  0.00  0.00    -0.089 HD
ENDBRANCH  28  29
ENDBRANCH  27  28
ENDBRANCH  25  27
ENDBRANCH   7  25
TORSDOF 8
ENDMDL
MODEL 8
REMARK VINA RESULT:      -6.8      8.459     12.217
REMARK  Name = 134019
REMARK  8 active torsions:
REMARK  status: ('A' for Active; 'I' for Inactive)
REMARK    1  A    between atoms: C_6  and  N_17
REMARK    2  A    between atoms: C_7  and  N_25
REMARK    3  A    between atoms: N_17  and  C_19
REMARK    4  A    between atoms: C_19  and  C_20
REMARK    5  A    between atoms: C_20  and  N_21
REMARK    6  A    between atoms: N_25  and  C_27
REMARK    7  A    between atoms: C_27  and  C_28
REMARK    8  A    between atoms: C_28  and  N_29
REMARK                            x       y       z     vdW  Elec       q    Type
REMARK                         _______ _______ _______ _____ _____    ______ ____
ROOT
ATOM      1  O   UNL     1      32.390 -11.600 -23.396  0.00  0.00    -0.287 OA
ATOM      2  O   UNL     1      34.041 -16.629 -24.131  0.00  0.00    -0.286 OA
ATOM      3  N   UNL     1      33.831 -14.148 -27.421  0.00  0.00    -0.242 NA
ATOM      4  C   UNL     1      32.862 -13.690 -22.377  0.00  0.00    +0.056 C 
ATOM      5  C   UNL     1      33.293 -15.005 -22.568  0.00  0.00    +0.056 C 
ATOM      6  C   UNL     1      32.518 -13.247 -21.094  0.00  0.00    +0.048 C 
ATOM      7  C   UNL     1      33.381 -15.878 -21.477  0.00  0.00    +0.048 C 
ATOM      8  C   UNL     1      32.765 -12.758 -23.521  0.00  0.00    +0.197 C 
ATOM      9  C   UNL     1      33.659 -15.485 -23.916  0.00  0.00    +0.198 C 
ATOM     10  C   UNL     1      33.133 -13.240 -24.867  0.00  0.00    +0.045 C 
ATOM     11  C   UNL     1      33.563 -14.550 -25.052  0.00  0.00    +0.061 C 
ATOM     12  C   UNL     1      32.607 -14.120 -20.009  0.00  0.00    +0.016 C 
ATOM     13  C   UNL     1      33.037 -15.432 -20.200  0.00  0.00    +0.016 C 
ATOM     14  C   UNL     1      33.052 -12.381 -25.963  0.00  0.00    +0.024 C 
ATOM     15  C   UNL     1      33.898 -14.955 -26.338  0.00  0.00    +0.102 C 
ATOM     16  C   UNL     1      33.410 -12.882 -27.204  0.00  0.00    +0.099 C 
ENDROOT
BRANCH   6  17
ATOM     17  N   UNL     1      32.073 -11.934 -20.823  0.00  0.00    -0.335 N 
ATOM     18  H   UNL     1      32.113 -11.264 -21.544  0.00  0.00    +0.147 HD
BRANCH  17  19
ATOM     19  C   UNL     1      31.570 -11.535 -19.547  0.00  0.00    +0.063 C 
BRANCH  19  20
ATOM     20  C   UNL     1      31.331 -10.030 -19.538  0.00  0.00    -0.065 C 
BRANCH  20  21
ATOM     21  N   UNL     1      32.575  -9.321 -19.263  0.00  0.00    +0.382 N 
ATOM     22  H   UNL     1      33.115  -9.838 -18.570  0.00  0.00    -0.089 HD
ATOM     23  H   UNL     1      32.362  -8.390 -18.904  0.00  0.00    -0.089 HD
ATOM     24  H   UNL     1      33.115  -9.239 -20.124  0.00  0.00    -0.089 HD
ENDBRANCH  20  21
ENDBRANCH  19  20
ENDBRANCH  17  19
ENDBRANCH   6  17
BRANCH   7  25
ATOM     25  N   UNL     1      33.808 -17.220 -21.592  0.00  0.00    -0.335 N 
ATOM     26  H   UNL     1      33.244 -17.852 -22.096  0.00  0.00    +0.147 HD
BRANCH  25  27
ATOM     27  C   UNL     1      35.022 -17.699 -21.012  0.00  0.00    +0.063 C 
BRANCH  27  28
ATOM     28  C   UNL     1      35.616 -18.789 -21.894  0.00  0.00    -0.065 C 
BRANCH  28  29
ATOM     29  N   UNL     1      36.324 -18.198 -23.023  0.00  0.00    +0.382 N 
ATOM     30  H   UNL     1      35.702 -17.557 -23.515  0.00  0.00    -0.089 HD
ATOM     31  H   UNL     1      36.625 -18.936 -23.660  0.00  0.00    -0.089 HD
ATOM     32  H   UNL     1      37.140 -17.688 -22.683  0.00  0.00    -0.089 HD
ENDBRANCH  28  29
ENDBRANCH  27  28
ENDBRANCH  25  27
ENDBRANCH   7  25
TORSDOF 8
ENDMDL
MODEL 9
REMARK VINA RESULT:      -6.8      8.142     12.509
REMARK  Name = 134019
REMARK  8 active torsions:
REMARK  status: ('A' for Active; 'I' for Inactive)
REMARK    1  A    between atoms: C_6  and  N_17
REMARK    2  A    between atoms: C_7  and  N_25
REMARK    3  A    between atoms: N_17  and  C_19
REMARK    4  A    between atoms: C_19  and  C_20
REMARK    5  A    between atoms: C_20  and  N_21
REMARK    6  A    between atoms: N_25  and  C_27
REMARK    7  A    between atoms: C_27  and  C_28
REMARK    8  A    between atoms: C_28  and  N_29
REMARK                            x       y       z     vdW  Elec       q    Type
REMARK                         _______ _______ _______ _____ _____    ______ ____
ROOT
ATOM      1  O   UNL     1      32.421 -14.811 -19.983  0.00  0.00    -0.287 OA
ATOM      2  O   UNL     1      34.795 -15.029 -24.765  0.00  0.00    -0.286 OA
ATOM      3  N   UNL     1      34.872 -18.407 -22.397  0.00  0.00    -0.242 NA
ATOM      4  C   UNL     1      32.952 -13.640 -21.977  0.00  0.00    +0.056 C 
ATOM      5  C   UNL     1      33.573 -13.695 -23.227  0.00  0.00    +0.056 C 
ATOM      6  C   UNL     1      32.325 -12.460 -21.561  0.00  0.00    +0.048 C 
ATOM      7  C   UNL     1      33.567 -12.571 -24.061  0.00  0.00    +0.048 C 
ATOM      8  C   UNL     1      32.951 -14.820 -21.086  0.00  0.00    +0.197 C 
ATOM      9  C   UNL     1      34.238 -14.935 -23.679  0.00  0.00    +0.198 C 
ATOM     10  C   UNL     1      33.615 -16.058 -21.541  0.00  0.00    +0.045 C 
ATOM     11  C   UNL     1      34.231 -16.109 -22.787  0.00  0.00    +0.061 C 
ATOM     12  C   UNL     1      32.321 -11.341 -22.395  0.00  0.00    +0.016 C 
ATOM     13  C   UNL     1      32.940 -11.397 -23.642  0.00  0.00    +0.016 C 
ATOM     14  C   UNL     1      33.627 -17.186 -20.720  0.00  0.00    +0.024 C 
ATOM     15  C   UNL     1      34.842 -17.297 -23.168  0.00  0.00    +0.102 C 
ATOM     16  C   UNL     1      34.263 -18.322 -21.194  0.00  0.00    +0.099 C 
ENDROOT
BRANCH   6  17
ATOM     17  N   UNL     1      31.678 -12.327 -20.311  0.00  0.00    -0.335 N 
ATOM     18  H   UNL     1      31.713 -13.082 -19.679  0.00  0.00    +0.147 HD
BRANCH  17  19
ATOM     19  C   UNL     1      30.973 -11.146 -19.926  0.00  0.00    +0.063 C 
BRANCH  19  20
ATOM     20  C   UNL     1      31.714 -10.455 -18.788  0.00  0.00    -0.065 C 
BRANCH  20  21
ATOM     21  N   UNL     1      32.503  -9.341 -19.299  0.00  0.00    +0.382 N 
ATOM     22  H   UNL     1      33.494  -9.535 -19.160  0.00  0.00    -0.089 HD
ATOM     23  H   UNL     1      32.250  -8.488 -18.800  0.00  0.00    -0.089 HD
ATOM     24  H   UNL     1      32.316  -9.221 -20.295  0.00  0.00    -0.089 HD
ENDBRANCH  20  21
ENDBRANCH  19  20
ENDBRANCH  17  19
ENDBRANCH   6  17
BRANCH   7  25
ATOM     25  N   UNL     1      34.173 -12.552 -25.338  0.00  0.00    -0.335 N 
ATOM     26  H   UNL     1      35.136 -12.752 -25.405  0.00  0.00    +0.147 HD
BRANCH  25  27
ATOM     27  C   UNL     1      33.450 -12.258 -26.534  0.00  0.00    +0.063 C 
BRANCH  27  28
ATOM     28  C   UNL     1      33.235 -13.538 -27.331  0.00  0.00    -0.065 C 
BRANCH  28  29
ATOM     29  N   UNL     1      32.344 -14.440 -26.611  0.00  0.00    +0.382 N 
ATOM     30  H   UNL     1      31.599 -14.751 -27.235  0.00  0.00    -0.089 HD
ATOM     31  H   UNL     1      31.937 -13.950 -25.814  0.00  0.00    -0.089 HD
ATOM     32  H   UNL     1      32.872 -15.248 -26.281  0.00  0.00    -0.089 HD
ENDBRANCH  28  29
ENDBRANCH  27  28
ENDBRANCH  25  27
ENDBRANCH   7  25
TORSDOF 8
ENDMDL
