MODEL 1
REMARK VINA RESULT:      -7.8      0.000      0.000
REMARK  Name = 63306
REMARK  1 active torsions:
REMARK  status: ('A' for Active; 'I' for Inactive)
REMARK    1  A    between atoms: C_6  and  O_14
REMARK                            x       y       z     vdW  Elec       q    Type
REMARK                         _______ _______ _______ _____ _____    ______ ____
ROOT
ATOM      1  O   UNL     1      34.861 -15.609 -20.127  0.00  0.00    -0.209 OA
ATOM      2  N   UNL     1      34.233 -15.381 -24.079  0.00  0.00    -0.288 N 
ATOM      3  N   UNL     1      34.342 -14.318 -21.949  0.00  0.00    -0.322 NA
ATOM      4  C   UNL     1      34.555 -16.632 -23.549  0.00  0.00    +0.096 C 
ATOM      5  C   UNL     1      34.780 -16.745 -22.170  0.00  0.00    +0.111 C 
ATOM      6  C   UNL     1      34.656 -17.769 -24.354  0.00  0.00    +0.148 C 
ATOM      7  C   UNL     1      34.146 -14.300 -23.235  0.00  0.00    +0.174 C 
ATOM      8  C   UNL     1      35.103 -17.978 -21.600  0.00  0.00    +0.014 C 
ATOM      9  C   UNL     1      34.665 -15.517 -21.335  0.00  0.00    +0.207 C 
ATOM     10  C   UNL     1      34.980 -19.003 -23.787  0.00  0.00    +0.038 C 
ATOM     11  C   UNL     1      35.203 -19.107 -22.414  0.00  0.00    +0.004 C 
ATOM     12  C   UNL     1      33.795 -12.977 -23.869  0.00  0.00    +0.085 C 
ATOM     13  H   UNL     1      34.070 -15.276 -25.045  0.00  0.00    +0.154 HD
ENDROOT
BRANCH   6  14
ATOM     14  O   UNL     1      34.442 -17.692 -25.698  0.00  0.00    -0.504 OA
ATOM     15  H   UNL     1      35.138 -17.885 -26.295  0.00  0.00    +0.292 HD
ENDBRANCH   6  14
TORSDOF 1
ENDMDL
MODEL 2
REMARK VINA RESULT:      -7.7      0.756      3.056
REMARK  Name = 63306
REMARK  1 active torsions:
REMARK  status: ('A' for Active; 'I' for Inactive)
REMARK    1  A    between atoms: C_6  and  O_14
REMARK                            x       y       z     vdW  Elec       q    Type
REMARK                         _______ _______ _______ _____ _____    ______ ____
ROOT
ATOM      1  O   UNL     1      34.198 -16.821 -25.925  0.00  0.00    -0.209 OA
ATOM      2  N   UNL     1      34.261 -14.808 -22.459  0.00  0.00    -0.288 N 
ATOM      3  N   UNL     1      33.863 -14.846 -24.809  0.00  0.00    -0.322 NA
ATOM      4  C   UNL     1      34.626 -16.155 -22.428  0.00  0.00    +0.096 C 
ATOM      5  C   UNL     1      34.615 -16.887 -23.624  0.00  0.00    +0.111 C 
ATOM      6  C   UNL     1      35.003 -16.790 -21.242  0.00  0.00    +0.148 C 
ATOM      7  C   UNL     1      33.903 -14.240 -23.658  0.00  0.00    +0.174 C 
ATOM      8  C   UNL     1      34.974 -18.236 -23.637  0.00  0.00    +0.014 C 
ATOM      9  C   UNL     1      34.211 -16.185 -24.875  0.00  0.00    +0.207 C 
ATOM     10  C   UNL     1      35.361 -18.138 -21.252  0.00  0.00    +0.038 C 
ATOM     11  C   UNL     1      35.347 -18.860 -22.445  0.00  0.00    +0.004 C 
ATOM     12  C   UNL     1      33.520 -12.781 -23.625  0.00  0.00    +0.085 C 
ATOM     13  H   UNL     1      34.262 -14.272 -21.633  0.00  0.00    +0.154 HD
ENDROOT
BRANCH   6  14
ATOM     14  O   UNL     1      35.025 -16.105 -20.064  0.00  0.00    -0.504 OA
ATOM     15  H   UNL     1      34.689 -15.231 -20.023  0.00  0.00    +0.292 HD
ENDBRANCH   6  14
TORSDOF 1
ENDMDL
MODEL 3
REMARK VINA RESULT:      -7.6      1.871      4.529
REMARK  Name = 63306
REMARK  1 active torsions:
REMARK  status: ('A' for Active; 'I' for Inactive)
REMARK    1  A    between atoms: C_6  and  O_14
REMARK                            x       y       z     vdW  Elec       q    Type
REMARK                         _______ _______ _______ _____ _____    ______ ____
ROOT
ATOM      1  O   UNL     1      33.789 -15.641 -26.207  0.00  0.00    -0.209 OA
ATOM      2  N   UNL     1      34.846 -18.127 -23.246  0.00  0.00    -0.288 N 
ATOM      3  N   UNL     1      34.338 -17.767 -25.546  0.00  0.00    -0.322 NA
ATOM      4  C   UNL     1      34.642 -16.785 -22.918  0.00  0.00    +0.096 C 
ATOM      5  C   UNL     1      34.271 -15.891 -23.932  0.00  0.00    +0.111 C 
ATOM      6  C   UNL     1      34.796 -16.314 -21.612  0.00  0.00    +0.148 C 
ATOM      7  C   UNL     1      34.677 -18.531 -24.549  0.00  0.00    +0.174 C 
ATOM      8  C   UNL     1      34.056 -14.540 -23.646  0.00  0.00    +0.014 C 
ATOM      9  C   UNL     1      34.113 -16.420 -25.316  0.00  0.00    +0.207 C 
ATOM     10  C   UNL     1      34.583 -14.965 -21.325  0.00  0.00    +0.038 C 
ATOM     11  C   UNL     1      34.214 -14.081 -22.338  0.00  0.00    +0.004 C 
ATOM     12  C   UNL     1      34.912 -19.993 -24.838  0.00  0.00    +0.085 C 
ATOM     13  H   UNL     1      35.107 -18.776 -22.552  0.00  0.00    +0.154 HD
ENDROOT
BRANCH   6  14
ATOM     14  O   UNL     1      35.155 -17.159 -20.605  0.00  0.00    -0.504 OA
ATOM     15  H   UNL     1      35.858 -17.766 -20.731  0.00  0.00    +0.292 HD
ENDBRANCH   6  14
TORSDOF 1
ENDMDL
MODEL 4
REMARK VINA RESULT:      -7.5      1.618      3.496
REMARK  Name = 63306
REMARK  1 active torsions:
REMARK  status: ('A' for Active; 'I' for Inactive)
REMARK    1  A    between atoms: C_6  and  O_14
REMARK                            x       y       z     vdW  Elec       q    Type
REMARK                         _______ _______ _______ _____ _____    ______ ____
ROOT
ATOM      1  O   UNL     1      34.746 -15.201 -20.220  0.00  0.00    -0.209 OA
ATOM      2  N   UNL     1      35.072 -18.206 -22.852  0.00  0.00    -0.288 N 
ATOM      3  N   UNL     1      35.294 -17.390 -20.624  0.00  0.00    -0.322 NA
ATOM      4  C   UNL     1      34.618 -16.976 -23.332  0.00  0.00    +0.096 C 
ATOM      5  C   UNL     1      34.494 -15.905 -22.437  0.00  0.00    +0.111 C 
ATOM      6  C   UNL     1      34.288 -16.787 -24.676  0.00  0.00    +0.148 C 
ATOM      7  C   UNL     1      35.384 -18.330 -21.519  0.00  0.00    +0.174 C 
ATOM      8  C   UNL     1      34.044 -14.658 -22.876  0.00  0.00    +0.014 C 
ATOM      9  C   UNL     1      34.854 -16.135 -21.009  0.00  0.00    +0.207 C 
ATOM     10  C   UNL     1      33.837 -15.542 -25.118  0.00  0.00    +0.038 C 
ATOM     11  C   UNL     1      33.715 -14.481 -24.221  0.00  0.00    +0.004 C 
ATOM     12  C   UNL     1      35.869 -19.685 -21.064  0.00  0.00    +0.085 C 
ATOM     13  H   UNL     1      35.169 -18.975 -23.461  0.00  0.00    +0.154 HD
ENDROOT
BRANCH   6  14
ATOM     14  O   UNL     1      34.399 -17.808 -25.571  0.00  0.00    -0.504 OA
ATOM     15  H   UNL     1      35.043 -18.477 -25.441  0.00  0.00    +0.292 HD
ENDBRANCH   6  14
TORSDOF 1
ENDMDL
MODEL 5
REMARK VINA RESULT:      -7.5      1.859      4.797
REMARK  Name = 63306
REMARK  1 active torsions:
REMARK  status: ('A' for Active; 'I' for Inactive)
REMARK    1  A    between atoms: C_6  and  O_14
REMARK                            x       y       z     vdW  Elec       q    Type
REMARK                         _______ _______ _______ _____ _____    ______ ____
ROOT
ATOM      1  O   UNL     1      34.539 -18.726 -24.862  0.00  0.00    -0.209 OA
ATOM      2  N   UNL     1      35.053 -17.950 -20.963  0.00  0.00    -0.288 N 
ATOM      3  N   UNL     1      34.969 -19.520 -22.754  0.00  0.00    -0.322 NA
ATOM      4  C   UNL     1      34.786 -16.869 -21.805  0.00  0.00    +0.096 C 
ATOM      5  C   UNL     1      34.601 -17.107 -23.174  0.00  0.00    +0.111 C 
ATOM      6  C   UNL     1      34.698 -15.562 -21.320  0.00  0.00    +0.148 C 
ATOM      7  C   UNL     1      35.124 -19.213 -21.499  0.00  0.00    +0.174 C 
ATOM      8  C   UNL     1      34.331 -16.054 -24.050  0.00  0.00    +0.014 C 
ATOM      9  C   UNL     1      34.699 -18.511 -23.664  0.00  0.00    +0.207 C 
ATOM     10  C   UNL     1      34.429 -14.507 -22.194  0.00  0.00    +0.038 C 
ATOM     11  C   UNL     1      34.247 -14.752 -23.554  0.00  0.00    +0.004 C 
ATOM     12  C   UNL     1      35.415 -20.339 -20.537  0.00  0.00    +0.085 C 
ATOM     13  H   UNL     1      35.186 -17.809 -19.997  0.00  0.00    +0.154 HD
ENDROOT
BRANCH   6  14
ATOM     14  O   UNL     1      34.872 -15.298 -19.994  0.00  0.00    -0.504 OA
ATOM     15  H   UNL     1      34.451 -15.834 -19.350  0.00  0.00    +0.292 HD
ENDBRANCH   6  14
TORSDOF 1
ENDMDL
MODEL 6
REMARK VINA RESULT:      -7.4      8.830     10.215
REMARK  Name = 63306
REMARK  1 active torsions:
REMARK  status: ('A' for Active; 'I' for Inactive)
REMARK    1  A    between atoms: C_6  and  O_14
REMARK                            x       y       z     vdW  Elec       q    Type
REMARK                         _______ _______ _______ _____ _____    ______ ____
ROOT
ATOM      1  O   UNL     1      34.859 -23.926 -14.980  0.00  0.00    -0.209 OA
ATOM      2  N   UNL     1      32.241 -22.696 -17.755  0.00  0.00    -0.288 N 
ATOM      3  N   UNL     1      34.480 -23.218 -17.127  0.00  0.00    -0.322 NA
ATOM      4  C   UNL     1      31.740 -23.007 -16.490  0.00  0.00    +0.096 C 
ATOM      5  C   UNL     1      32.630 -23.440 -15.497  0.00  0.00    +0.111 C 
ATOM      6  C   UNL     1      30.380 -22.897 -16.189  0.00  0.00    +0.148 C 
ATOM      7  C   UNL     1      33.590 -22.822 -17.989  0.00  0.00    +0.174 C 
ATOM      8  C   UNL     1      32.169 -23.760 -14.218  0.00  0.00    +0.014 C 
ATOM      9  C   UNL     1      34.075 -23.547 -15.845  0.00  0.00    +0.207 C 
ATOM     10  C   UNL     1      29.917 -23.218 -14.912  0.00  0.00    +0.038 C 
ATOM     11  C   UNL     1      30.808 -23.648 -13.930  0.00  0.00    +0.004 C 
ATOM     12  C   UNL     1      34.069 -22.470 -19.376  0.00  0.00    +0.085 C 
ATOM     13  H   UNL     1      31.637 -22.389 -18.470  0.00  0.00    +0.154 HD
ENDROOT
BRANCH   6  14
ATOM     14  O   UNL     1      29.490 -22.479 -17.132  0.00  0.00    -0.504 OA
ATOM     15  H   UNL     1      28.675 -22.096 -16.871  0.00  0.00    +0.292 HD
ENDBRANCH   6  14
TORSDOF 1
ENDMDL
MODEL 7
REMARK VINA RESULT:      -7.4      1.538      3.479
REMARK  Name = 63306
REMARK  1 active torsions:
REMARK  status: ('A' for Active; 'I' for Inactive)
REMARK    1  A    between atoms: C_6  and  O_14
REMARK                            x       y       z     vdW  Elec       q    Type
REMARK                         _______ _______ _______ _____ _____    ______ ____
ROOT
ATOM      1  O   UNL     1      34.784 -18.327 -25.534  0.00  0.00    -0.209 OA
ATOM      2  N   UNL     1      33.536 -14.785 -24.133  0.00  0.00    -0.288 N 
ATOM      3  N   UNL     1      33.830 -16.287 -25.961  0.00  0.00    -0.322 NA
ATOM      4  C   UNL     1      34.092 -15.680 -23.217  0.00  0.00    +0.096 C 
ATOM      5  C   UNL     1      34.539 -16.927 -23.676  0.00  0.00    +0.111 C 
ATOM      6  C   UNL     1      34.216 -15.365 -21.862  0.00  0.00    +0.148 C 
ATOM      7  C   UNL     1      33.444 -15.152 -25.455  0.00  0.00    +0.174 C 
ATOM      8  C   UNL     1      35.102 -17.851 -22.793  0.00  0.00    +0.014 C 
ATOM      9  C   UNL     1      34.395 -17.237 -25.127  0.00  0.00    +0.207 C 
ATOM     10  C   UNL     1      34.777 -16.287 -20.977  0.00  0.00    +0.038 C 
ATOM     11  C   UNL     1      35.219 -17.526 -21.441  0.00  0.00    +0.004 C 
ATOM     12  C   UNL     1      32.833 -14.140 -26.394  0.00  0.00    +0.085 C 
ATOM     13  H   UNL     1      33.215 -13.902 -23.836  0.00  0.00    +0.154 HD
ENDROOT
BRANCH   6  14
ATOM     14  O   UNL     1      33.792 -14.161 -21.386  0.00  0.00    -0.504 OA
ATOM     15  H   UNL     1      32.900 -14.051 -21.117  0.00  0.00    +0.292 HD
ENDBRANCH   6  14
TORSDOF 1
ENDMDL
MODEL 8
REMARK VINA RESULT:      -7.4      5.654      7.199
REMARK  Name = 63306
REMARK  1 active torsions:
REMARK  status: ('A' for Active; 'I' for Inactive)
REMARK    1  A    between atoms: C_6  and  O_14
REMARK                            x       y       z     vdW  Elec       q    Type
REMARK                         _______ _______ _______ _____ _____    ______ ____
ROOT
ATOM      1  O   UNL     1      36.823 -22.277 -17.860  0.00  0.00    -0.209 OA
ATOM      2  N   UNL     1      32.959 -21.916 -18.864  0.00  0.00    -0.288 N 
ATOM      3  N   UNL     1      34.642 -22.869 -17.471  0.00  0.00    -0.322 NA
ATOM      4  C   UNL     1      33.888 -21.184 -19.605  0.00  0.00    +0.096 C 
ATOM      5  C   UNL     1      35.247 -21.288 -19.279  0.00  0.00    +0.111 C 
ATOM      6  C   UNL     1      33.499 -20.354 -20.660  0.00  0.00    +0.148 C 
ATOM      7  C   UNL     1      33.403 -22.718 -17.840  0.00  0.00    +0.174 C 
ATOM      8  C   UNL     1      36.209 -20.573 -19.996  0.00  0.00    +0.014 C 
ATOM      9  C   UNL     1      35.634 -22.181 -18.151  0.00  0.00    +0.207 C 
ATOM     10  C   UNL     1      34.458 -19.638 -21.377  0.00  0.00    +0.038 C 
ATOM     11  C   UNL     1      35.809 -19.746 -21.047  0.00  0.00    +0.004 C 
ATOM     12  C   UNL     1      32.350 -23.484 -17.077  0.00  0.00    +0.085 C 
ATOM     13  H   UNL     1      31.998 -21.861 -19.074  0.00  0.00    +0.154 HD
ENDROOT
BRANCH   6  14
ATOM     14  O   UNL     1      32.186 -20.232 -21.001  0.00  0.00    -0.504 OA
ATOM     15  H   UNL     1      31.929 -20.277 -21.902  0.00  0.00    +0.292 HD
ENDBRANCH   6  14
TORSDOF 1
ENDMDL
MODEL 9
REMARK VINA RESULT:      -7.3      1.177      1.321
REMARK  Name = 63306
REMARK  1 active torsions:
REMARK  status: ('A' for Active; 'I' for Inactive)
REMARK    1  A    between atoms: C_6  and  O_14
REMARK                            x       y       z     vdW  Elec       q    Type
REMARK                         _______ _______ _______ _____ _____    ______ ____
ROOT
ATOM      1  O   UNL     1      34.958 -15.710 -20.253  0.00  0.00    -0.209 OA
ATOM      2  N   UNL     1      33.213 -14.570 -23.677  0.00  0.00    -0.288 N 
ATOM      3  N   UNL     1      33.657 -14.186 -21.367  0.00  0.00    -0.322 NA
ATOM      4  C   UNL     1      33.958 -15.751 -23.696  0.00  0.00    +0.096 C 
ATOM      5  C   UNL     1      34.581 -16.177 -22.515  0.00  0.00    +0.111 C 
ATOM      6  C   UNL     1      34.098 -16.515 -24.857  0.00  0.00    +0.148 C 
ATOM      7  C   UNL     1      33.110 -13.863 -22.502  0.00  0.00    +0.174 C 
ATOM      8  C   UNL     1      35.335 -17.352 -22.490  0.00  0.00    +0.014 C 
ATOM      9  C   UNL     1      34.415 -15.343 -21.291  0.00  0.00    +0.207 C 
ATOM     10  C   UNL     1      34.851 -17.689 -24.836  0.00  0.00    +0.038 C 
ATOM     11  C   UNL     1      35.469 -18.106 -23.657  0.00  0.00    +0.004 C 
ATOM     12  C   UNL     1      32.290 -12.597 -22.547  0.00  0.00    +0.085 C 
ATOM     13  H   UNL     1      32.765 -14.250 -24.493  0.00  0.00    +0.154 HD
ENDROOT
BRANCH   6  14
ATOM     14  O   UNL     1      33.504 -16.128 -26.021  0.00  0.00    -0.504 OA
ATOM     15  H   UNL     1      32.590 -15.921 -26.034  0.00  0.00    +0.292 HD
ENDBRANCH   6  14
TORSDOF 1
ENDMDL
