MODEL 1
REMARK VINA RESULT:      -9.1      0.000      0.000
REMARK  Name = 9547261
REMARK  8 active torsions:
REMARK  status: ('A' for Active; 'I' for Inactive)
REMARK    1  A    between atoms: C_2  and  C_24
REMARK    2  A    between atoms: C_11  and  C_12
REMARK    3  A    between atoms: C_16  and  O_20
REMARK    4  A    between atoms: C_17  and  O_22
REMARK    5  A    between atoms: C_24  and  C_26
REMARK    6  A    between atoms: C_27  and  C_28
REMARK    7  A    between atoms: C_28  and  C_30
REMARK    8  A    between atoms: C_28  and  O_33
REMARK                            x       y       z     vdW  Elec       q    Type
REMARK                         _______ _______ _______ _____ _____    ______ ____
ROOT
ATOM      1  C   UNL     1      33.901 -15.619 -23.219  0.00  0.00    +0.004 C 
ATOM      2  C   UNL     1      33.781 -16.997 -22.524  0.00  0.00    +0.004 C 
ATOM      3  C   UNL     1      32.740 -14.875 -22.515  0.00  0.00    +0.018 C 
ATOM      4  C   UNL     1      33.499 -16.645 -21.045  0.00  0.00    +0.001 C 
ATOM      5  C   UNL     1      32.957 -15.204 -21.036  0.00  0.00    +0.004 C 
ATOM      6  C   UNL     1      33.617 -15.645 -24.735  0.00  0.00    +0.001 C 
ATOM      7  C   UNL     1      32.609 -13.463 -23.017  0.00  0.00    -0.045 C 
ATOM      8  C   UNL     1      35.287 -14.974 -22.961  0.00  0.00    +0.000 C 
ATOM      9  C   UNL     1      33.421 -14.227 -25.301  0.00  0.00    +0.004 C 
ATOM     10  C   UNL     1      32.396 -13.393 -24.515  0.00  0.00    +0.022 C 
ATOM     11  C   UNL     1      32.664 -12.364 -22.252  0.00  0.00    -0.009 C 
ENDROOT
BRANCH  11  12
ATOM     12  C   UNL     1      32.526 -11.028 -22.775  0.00  0.00    -0.005 C 
ATOM     13  C   UNL     1      31.939 -10.029 -22.098  0.00  0.00    -0.021 C 
ATOM     14  C   UNL     1      31.851  -8.632 -22.660  0.00  0.00    +0.055 C 
ATOM     15  C   UNL     1      31.381 -10.196 -20.758  0.00  0.00    +0.000 C 
ATOM     16  C   UNL     1      32.337  -7.577 -21.663  0.00  0.00    +0.118 C 
ATOM     17  C   UNL     1      31.770  -9.140 -19.750  0.00  0.00    +0.135 C 
ATOM     18  C   UNL     1      31.620  -7.725 -20.317  0.00  0.00    +0.063 C 
ATOM     19  C   UNL     1      30.531 -11.189 -20.446  0.00  0.00    -0.003 C 
BRANCH  16  20
ATOM     20  O   UNL     1      32.071  -6.286 -22.204  0.00  0.00    -0.384 OA
ATOM     21  H   UNL     1      31.258  -6.318 -22.733  0.00  0.00    +0.210 HD
ENDBRANCH  16  20
BRANCH  17  22
ATOM     22  O   UNL     1      33.130  -9.363 -19.372  0.00  0.00    -0.380 OA
ATOM     23  H   UNL     1      33.349  -8.803 -18.611  0.00  0.00    +0.211 HD
ENDBRANCH  17  22
ENDBRANCH  11  12
BRANCH   2  24
ATOM     24  C   UNL     1      34.958 -17.947 -22.694  0.00  0.00    +0.022 C 
ATOM     25  C   UNL     1      34.712 -18.918 -23.851  0.00  0.00    +0.005 C 
BRANCH  24  26
ATOM     26  C   UNL     1      35.200 -18.718 -21.416  0.00  0.00    -0.029 C 
ATOM     27  C   UNL     1      35.199 -20.059 -21.345  0.00  0.00    -0.005 C 
BRANCH  27  28
ATOM     28  C   UNL     1      35.441 -20.895 -20.102  0.00  0.00    +0.106 C 
ATOM     29  C   UNL     1      36.142 -22.196 -20.520  0.00  0.00    +0.034 C 
BRANCH  28  30
ATOM     30  C   UNL     1      34.131 -21.174 -19.299  0.00  0.00    +0.029 C 
ATOM     31  C   UNL     1      33.922 -22.672 -19.025  0.00  0.00    +0.003 C 
ATOM     32  C   UNL     1      32.864 -20.594 -19.936  0.00  0.00    +0.003 C 
ENDBRANCH  28  30
BRANCH  28  33
ATOM     33  O   UNL     1      36.349 -20.213 -19.226  0.00  0.00    -0.383 OA
ATOM     34  H   UNL     1      37.244 -20.566 -19.349  0.00  0.00    +0.211 HD
ENDBRANCH  28  33
ENDBRANCH  27  28
ENDBRANCH  24  26
ENDBRANCH   2  24
TORSDOF 8
ENDMDL
MODEL 2
REMARK VINA RESULT:      -9.0      1.124      1.504
REMARK  Name = 9547261
REMARK  8 active torsions:
REMARK  status: ('A' for Active; 'I' for Inactive)
REMARK    1  A    between atoms: C_2  and  C_24
REMARK    2  A    between atoms: C_11  and  C_12
REMARK    3  A    between atoms: C_16  and  O_20
REMARK    4  A    between atoms: C_17  and  O_22
REMARK    5  A    between atoms: C_24  and  C_26
REMARK    6  A    between atoms: C_27  and  C_28
REMARK    7  A    between atoms: C_28  and  C_30
REMARK    8  A    between atoms: C_28  and  O_33
REMARK                            x       y       z     vdW  Elec       q    Type
REMARK                         _______ _______ _______ _____ _____    ______ ____
ROOT
ATOM      1  C   UNL     1      33.940 -16.066 -22.507  0.00  0.00    +0.004 C 
ATOM      2  C   UNL     1      33.545 -17.410 -21.851  0.00  0.00    +0.004 C 
ATOM      3  C   UNL     1      32.655 -15.253 -22.219  0.00  0.00    +0.018 C 
ATOM      4  C   UNL     1      32.833 -16.993 -20.544  0.00  0.00    +0.001 C 
ATOM      5  C   UNL     1      32.385 -15.533 -20.739  0.00  0.00    +0.004 C 
ATOM      6  C   UNL     1      34.141 -16.139 -24.035  0.00  0.00    +0.001 C 
ATOM      7  C   UNL     1      32.753 -13.856 -22.772  0.00  0.00    -0.045 C 
ATOM      8  C   UNL     1      35.206 -15.463 -21.845  0.00  0.00    +0.000 C 
ATOM      9  C   UNL     1      34.197 -14.737 -24.669  0.00  0.00    +0.004 C 
ATOM     10  C   UNL     1      33.020 -13.837 -24.263  0.00  0.00    +0.022 C 
ATOM     11  C   UNL     1      32.619 -12.733 -22.055  0.00  0.00    -0.009 C 
ENDROOT
BRANCH  11  12
ATOM     12  C   UNL     1      32.714 -11.413 -22.629  0.00  0.00    -0.005 C 
ATOM     13  C   UNL     1      32.139 -10.330 -22.083  0.00  0.00    -0.021 C 
ATOM     14  C   UNL     1      32.296  -8.957 -22.687  0.00  0.00    +0.055 C 
ATOM     15  C   UNL     1      31.358 -10.381 -20.849  0.00  0.00    +0.000 C 
ATOM     16  C   UNL     1      32.728  -7.916 -21.652  0.00  0.00    +0.118 C 
ATOM     17  C   UNL     1      31.694  -9.328 -19.818  0.00  0.00    +0.135 C 
ATOM     18  C   UNL     1      31.792  -7.931 -20.438  0.00  0.00    +0.063 C 
ATOM     19  C   UNL     1      30.365 -11.265 -20.656  0.00  0.00    -0.003 C 
BRANCH  16  20
ATOM     20  O   UNL     1      32.695  -6.629 -22.261  0.00  0.00    -0.384 OA
ATOM     21  H   UNL     1      31.786  -6.291 -22.256  0.00  0.00    +0.210 HD
ENDBRANCH  16  20
BRANCH  17  22
ATOM     22  O   UNL     1      32.942  -9.674 -19.216  0.00  0.00    -0.380 OA
ATOM     23  H   UNL     1      32.782 -10.074 -18.347  0.00  0.00    +0.211 HD
ENDBRANCH  17  22
ENDBRANCH  11  12
BRANCH   2  24
ATOM     24  C   UNL     1      34.670 -18.409 -21.621  0.00  0.00    +0.022 C 
ATOM     25  C   UNL     1      35.210 -18.937 -22.952  0.00  0.00    +0.005 C 
BRANCH  24  26
ATOM     26  C   UNL     1      34.185 -19.560 -20.768  0.00  0.00    -0.029 C 
ATOM     27  C   UNL     1      34.994 -20.505 -20.264  0.00  0.00    -0.005 C 
BRANCH  27  28
ATOM     28  C   UNL     1      34.579 -21.679 -19.397  0.00  0.00    +0.106 C 
ATOM     29  C   UNL     1      33.055 -21.632 -19.211  0.00  0.00    +0.034 C 
BRANCH  28  30
ATOM     30  C   UNL     1      35.329 -21.713 -18.028  0.00  0.00    +0.029 C 
ATOM     31  C   UNL     1      36.856 -21.741 -18.199  0.00  0.00    +0.003 C 
ATOM     32  C   UNL     1      34.903 -22.857 -17.102  0.00  0.00    +0.003 C 
ENDBRANCH  28  30
BRANCH  28  33
ATOM     33  O   UNL     1      34.863 -22.910 -20.077  0.00  0.00    -0.383 OA
ATOM     34  H   UNL     1      35.806 -23.120 -19.986  0.00  0.00    +0.211 HD
ENDBRANCH  28  33
ENDBRANCH  27  28
ENDBRANCH  24  26
ENDBRANCH   2  24
TORSDOF 8
ENDMDL
MODEL 3
REMARK VINA RESULT:      -8.9      2.461      4.894
REMARK  Name = 9547261
REMARK  8 active torsions:
REMARK  status: ('A' for Active; 'I' for Inactive)
REMARK    1  A    between atoms: C_2  and  C_24
REMARK    2  A    between atoms: C_11  and  C_12
REMARK    3  A    between atoms: C_16  and  O_20
REMARK    4  A    between atoms: C_17  and  O_22
REMARK    5  A    between atoms: C_24  and  C_26
REMARK    6  A    between atoms: C_27  and  C_28
REMARK    7  A    between atoms: C_28  and  C_30
REMARK    8  A    between atoms: C_28  and  O_33
REMARK                            x       y       z     vdW  Elec       q    Type
REMARK                         _______ _______ _______ _____ _____    ______ ____
ROOT
ATOM      1  C   UNL     1      32.319 -12.111 -22.067  0.00  0.00    +0.004 C 
ATOM      2  C   UNL     1      33.324 -13.254 -22.346  0.00  0.00    +0.004 C 
ATOM      3  C   UNL     1      33.063 -10.941 -22.756  0.00  0.00    +0.018 C 
ATOM      4  C   UNL     1      33.776 -13.006 -23.804  0.00  0.00    +0.001 C 
ATOM      5  C   UNL     1      33.465 -11.529 -24.111  0.00  0.00    +0.004 C 
ATOM      6  C   UNL     1      32.145 -11.768 -20.573  0.00  0.00    +0.001 C 
ATOM      7  C   UNL     1      32.295  -9.653 -22.631  0.00  0.00    -0.045 C 
ATOM      8  C   UNL     1      30.933 -12.410 -22.697  0.00  0.00    +0.000 C 
ATOM      9  C   UNL     1      31.409 -10.429 -20.379  0.00  0.00    +0.004 C 
ATOM     10  C   UNL     1      32.020  -9.275 -21.191  0.00  0.00    +0.022 C 
ATOM     11  C   UNL     1      31.889  -8.895 -23.659  0.00  0.00    -0.009 C 
ENDROOT
BRANCH  11  12
ATOM     12  C   UNL     1      31.161  -7.662 -23.492  0.00  0.00    -0.005 C 
ATOM     13  C   UNL     1      31.682  -6.456 -23.767  0.00  0.00    -0.021 C 
ATOM     14  C   UNL     1      30.876  -5.190 -23.622  0.00  0.00    +0.055 C 
ATOM     15  C   UNL     1      33.044  -6.273 -24.265  0.00  0.00    +0.000 C 
ATOM     16  C   UNL     1      30.952  -4.310 -24.873  0.00  0.00    +0.118 C 
ATOM     17  C   UNL     1      33.187  -5.355 -25.456  0.00  0.00    +0.135 C 
ATOM     18  C   UNL     1      32.409  -4.048 -25.269  0.00  0.00    +0.063 C 
ATOM     19  C   UNL     1      34.112  -6.834 -23.675  0.00  0.00    -0.003 C 
BRANCH  16  20
ATOM     20  O   UNL     1      30.305  -3.072 -24.596  0.00  0.00    -0.384 OA
ATOM     21  H   UNL     1      29.344  -3.208 -24.566  0.00  0.00    +0.210 HD
ENDBRANCH  16  20
BRANCH  17  22
ATOM     22  O   UNL     1      32.700  -6.040 -26.611  0.00  0.00    -0.380 OA
ATOM     23  H   UNL     1      32.596  -5.410 -27.341  0.00  0.00    +0.211 HD
ENDBRANCH  17  22
ENDBRANCH  11  12
BRANCH   2  24
ATOM     24  C   UNL     1      32.822 -14.671 -22.114  0.00  0.00    +0.022 C 
ATOM     25  C   UNL     1      32.697 -14.967 -20.618  0.00  0.00    +0.005 C 
BRANCH  24  26
ATOM     26  C   UNL     1      33.751 -15.672 -22.762  0.00  0.00    -0.029 C 
ATOM     27  C   UNL     1      34.101 -16.838 -22.196  0.00  0.00    -0.005 C 
BRANCH  27  28
ATOM     28  C   UNL     1      35.020 -17.889 -22.791  0.00  0.00    +0.106 C 
ATOM     29  C   UNL     1      34.567 -18.173 -24.231  0.00  0.00    +0.034 C 
BRANCH  28  30
ATOM     30  C   UNL     1      35.079 -19.193 -21.934  0.00  0.00    +0.029 C 
ATOM     31  C   UNL     1      33.788 -19.423 -21.132  0.00  0.00    +0.003 C 
ATOM     32  C   UNL     1      36.282 -19.273 -20.989  0.00  0.00    +0.003 C 
ENDBRANCH  28  30
BRANCH  28  33
ATOM     33  O   UNL     1      36.354 -17.371 -22.885  0.00  0.00    -0.383 OA
ATOM     34  H   UNL     1      36.897 -17.970 -23.421  0.00  0.00    +0.211 HD
ENDBRANCH  28  33
ENDBRANCH  27  28
ENDBRANCH  24  26
ENDBRANCH   2  24
TORSDOF 8
ENDMDL
MODEL 4
REMARK VINA RESULT:      -7.9      3.923     11.760
REMARK  Name = 9547261
REMARK  8 active torsions:
REMARK  status: ('A' for Active; 'I' for Inactive)
REMARK    1  A    between atoms: C_2  and  C_24
REMARK    2  A    between atoms: C_11  and  C_12
REMARK    3  A    between atoms: C_16  and  O_20
REMARK    4  A    between atoms: C_17  and  O_22
REMARK    5  A    between atoms: C_24  and  C_26
REMARK    6  A    between atoms: C_27  and  C_28
REMARK    7  A    between atoms: C_28  and  C_30
REMARK    8  A    between atoms: C_28  and  O_33
REMARK                            x       y       z     vdW  Elec       q    Type
REMARK                         _______ _______ _______ _____ _____    ______ ____
ROOT
ATOM      1  C   UNL     1      32.098  -7.449 -22.181  0.00  0.00    +0.004 C 
ATOM      2  C   UNL     1      31.432  -6.465 -23.173  0.00  0.00    +0.004 C 
ATOM      3  C   UNL     1      31.161  -8.668 -22.362  0.00  0.00    +0.018 C 
ATOM      4  C   UNL     1      31.074  -7.347 -24.391  0.00  0.00    +0.001 C 
ATOM      5  C   UNL     1      31.044  -8.800 -23.882  0.00  0.00    +0.004 C 
ATOM      6  C   UNL     1      32.040  -7.001 -20.706  0.00  0.00    +0.001 C 
ATOM      7  C   UNL     1      31.577  -9.815 -21.480  0.00  0.00    -0.045 C 
ATOM      8  C   UNL     1      33.568  -7.744 -22.578  0.00  0.00    +0.000 C 
ATOM      9  C   UNL     1      32.406  -8.150 -19.749  0.00  0.00    +0.004 C 
ATOM     10  C   UNL     1      31.613  -9.440 -20.014  0.00  0.00    +0.022 C 
ATOM     11  C   UNL     1      31.882 -11.046 -21.912  0.00  0.00    -0.009 C 
ENDROOT
BRANCH  11  12
ATOM     12  C   UNL     1      32.269 -12.119 -21.030  0.00  0.00    -0.005 C 
ATOM     13  C   UNL     1      32.663 -13.326 -21.466  0.00  0.00    -0.021 C 
ATOM     14  C   UNL     1      33.103 -14.411 -20.516  0.00  0.00    +0.055 C 
ATOM     15  C   UNL     1      32.740 -13.672 -22.884  0.00  0.00    +0.000 C 
ATOM     16  C   UNL     1      34.447 -15.023 -20.919  0.00  0.00    +0.118 C 
ATOM     17  C   UNL     1      34.018 -14.347 -23.324  0.00  0.00    +0.135 C 
ATOM     18  C   UNL     1      34.420 -15.484 -22.380  0.00  0.00    +0.063 C 
ATOM     19  C   UNL     1      31.723 -13.462 -23.737  0.00  0.00    -0.003 C 
BRANCH  16  20
ATOM     20  O   UNL     1      34.709 -16.138 -20.073  0.00  0.00    -0.384 OA
ATOM     21  H   UNL     1      35.013 -15.823 -19.207  0.00  0.00    +0.210 HD
ENDBRANCH  16  20
BRANCH  17  22
ATOM     22  O   UNL     1      35.054 -13.364 -23.358  0.00  0.00    -0.380 OA
ATOM     23  H   UNL     1      34.659 -12.478 -23.330  0.00  0.00    +0.211 HD
ENDBRANCH  17  22
ENDBRANCH  11  12
BRANCH   2  24
ATOM     24  C   UNL     1      32.240  -5.232 -23.551  0.00  0.00    +0.022 C 
ATOM     25  C   UNL     1      31.490  -3.952 -23.174  0.00  0.00    +0.005 C 
BRANCH  24  26
ATOM     26  C   UNL     1      32.542  -5.235 -25.032  0.00  0.00    -0.029 C 
ATOM     27  C   UNL     1      32.735  -4.120 -25.754  0.00  0.00    -0.005 C 
BRANCH  27  28
ATOM     28  C   UNL     1      33.049  -4.049 -27.238  0.00  0.00    +0.106 C 
ATOM     29  C   UNL     1      34.573  -3.970 -27.410  0.00  0.00    +0.034 C 
BRANCH  28  30
ATOM     30  C   UNL     1      32.322  -2.866 -27.952  0.00  0.00    +0.029 C 
ATOM     31  C   UNL     1      31.296  -2.175 -27.039  0.00  0.00    +0.003 C 
ATOM     32  C   UNL     1      31.649  -3.244 -29.275  0.00  0.00    +0.003 C 
ENDBRANCH  28  30
BRANCH  28  33
ATOM     33  O   UNL     1      32.634  -5.263 -27.880  0.00  0.00    -0.383 OA
ATOM     34  H   UNL     1      33.255  -5.975 -27.659  0.00  0.00    +0.211 HD
ENDBRANCH  28  33
ENDBRANCH  27  28
ENDBRANCH  24  26
ENDBRANCH   2  24
TORSDOF 8
ENDMDL
MODEL 5
REMARK VINA RESULT:      -7.5      3.617     11.383
REMARK  Name = 9547261
REMARK  8 active torsions:
REMARK  status: ('A' for Active; 'I' for Inactive)
REMARK    1  A    between atoms: C_2  and  C_24
REMARK    2  A    between atoms: C_11  and  C_12
REMARK    3  A    between atoms: C_16  and  O_20
REMARK    4  A    between atoms: C_17  and  O_22
REMARK    5  A    between atoms: C_24  and  C_26
REMARK    6  A    between atoms: C_27  and  C_28
REMARK    7  A    between atoms: C_28  and  C_30
REMARK    8  A    between atoms: C_28  and  O_33
REMARK                            x       y       z     vdW  Elec       q    Type
REMARK                         _______ _______ _______ _____ _____    ______ ____
ROOT
ATOM      1  C   UNL     1      32.615  -9.392 -23.069  0.00  0.00    +0.004 C 
ATOM      2  C   UNL     1      32.960  -8.347 -24.157  0.00  0.00    +0.004 C 
ATOM      3  C   UNL     1      33.100 -10.676 -23.784  0.00  0.00    +0.018 C 
ATOM      4  C   UNL     1      34.340  -8.801 -24.686  0.00  0.00    +0.001 C 
ATOM      5  C   UNL     1      34.484 -10.286 -24.307  0.00  0.00    +0.004 C 
ATOM      6  C   UNL     1      31.106  -9.533 -22.779  0.00  0.00    +0.001 C 
ATOM      7  C   UNL     1      32.873 -11.897 -22.933  0.00  0.00    -0.045 C 
ATOM      8  C   UNL     1      33.373  -9.103 -21.747  0.00  0.00    +0.000 C 
ATOM      9  C   UNL     1      30.802 -10.797 -21.953  0.00  0.00    +0.004 C 
ATOM     10  C   UNL     1      31.420 -12.074 -22.543  0.00  0.00    +0.022 C 
ATOM     11  C   UNL     1      33.826 -12.756 -22.549  0.00  0.00    -0.009 C 
ENDROOT
BRANCH  11  12
ATOM     12  C   UNL     1      33.562 -13.919 -21.738  0.00  0.00    -0.005 C 
ATOM     13  C   UNL     1      33.528 -15.168 -22.230  0.00  0.00    -0.021 C 
ATOM     14  C   UNL     1      33.291 -16.365 -21.345  0.00  0.00    +0.055 C 
ATOM     15  C   UNL     1      33.757 -15.473 -23.641  0.00  0.00    +0.000 C 
ATOM     16  C   UNL     1      34.334 -17.463 -21.566  0.00  0.00    +0.118 C 
ATOM     17  C   UNL     1      34.725 -16.599 -23.917  0.00  0.00    +0.135 C 
ATOM     18  C   UNL     1      34.435 -17.829 -23.051  0.00  0.00    +0.063 C 
ATOM     19  C   UNL     1      33.112 -14.839 -24.633  0.00  0.00    -0.003 C 
BRANCH  16  20
ATOM     20  O   UNL     1      33.949 -18.612 -20.818  0.00  0.00    -0.384 OA
ATOM     21  H   UNL     1      33.056 -18.886 -21.082  0.00  0.00    +0.210 HD
ENDBRANCH  16  20
BRANCH  17  22
ATOM     22  O   UNL     1      36.047 -16.128 -23.652  0.00  0.00    -0.380 OA
ATOM     23  H   UNL     1      36.574 -16.170 -24.465  0.00  0.00    +0.211 HD
ENDBRANCH  17  22
ENDBRANCH  11  12
BRANCH   2  24
ATOM     24  C   UNL     1      32.940  -6.888 -23.727  0.00  0.00    +0.022 C 
ATOM     25  C   UNL     1      31.508  -6.416 -23.464  0.00  0.00    +0.005 C 
BRANCH  24  26
ATOM     26  C   UNL     1      33.582  -6.019 -24.785  0.00  0.00    -0.029 C 
ATOM     27  C   UNL     1      32.900  -5.436 -25.784  0.00  0.00    -0.005 C 
BRANCH  27  28
ATOM     28  C   UNL     1      33.477  -4.549 -26.872  0.00  0.00    +0.106 C 
ATOM     29  C   UNL     1      34.970  -4.874 -27.025  0.00  0.00    +0.034 C 
BRANCH  28  30
ATOM     30  C   UNL     1      33.239  -3.029 -26.599  0.00  0.00    +0.029 C 
ATOM     31  C   UNL     1      32.028  -2.783 -25.685  0.00  0.00    +0.003 C 
ATOM     32  C   UNL     1      33.102  -2.175 -27.863  0.00  0.00    +0.003 C 
ENDBRANCH  28  30
BRANCH  28  33
ATOM     33  O   UNL     1      32.866  -4.863 -28.131  0.00  0.00    -0.383 OA
ATOM     34  H   UNL     1      33.128  -5.756 -28.403  0.00  0.00    +0.211 HD
ENDBRANCH  28  33
ENDBRANCH  27  28
ENDBRANCH  24  26
ENDBRANCH   2  24
TORSDOF 8
ENDMDL
MODEL 6
REMARK VINA RESULT:      -6.9      4.819      8.173
REMARK  Name = 9547261
REMARK  8 active torsions:
REMARK  status: ('A' for Active; 'I' for Inactive)
REMARK    1  A    between atoms: C_2  and  C_24
REMARK    2  A    between atoms: C_11  and  C_12
REMARK    3  A    between atoms: C_16  and  O_20
REMARK    4  A    between atoms: C_17  and  O_22
REMARK    5  A    between atoms: C_24  and  C_26
REMARK    6  A    between atoms: C_27  and  C_28
REMARK    7  A    between atoms: C_28  and  C_30
REMARK    8  A    between atoms: C_28  and  O_33
REMARK                            x       y       z     vdW  Elec       q    Type
REMARK                         _______ _______ _______ _____ _____    ______ ____
ROOT
ATOM      1  C   UNL     1      34.536 -21.876 -18.955  0.00  0.00    +0.004 C 
ATOM      2  C   UNL     1      35.297 -22.027 -17.616  0.00  0.00    +0.004 C 
ATOM      3  C   UNL     1      35.179 -20.564 -19.468  0.00  0.00    +0.018 C 
ATOM      4  C   UNL     1      36.751 -21.634 -17.967  0.00  0.00    +0.001 C 
ATOM      5  C   UNL     1      36.677 -20.802 -19.260  0.00  0.00    +0.004 C 
ATOM      6  C   UNL     1      33.018 -21.648 -18.801  0.00  0.00    +0.001 C 
ATOM      7  C   UNL     1      34.604 -20.154 -20.797  0.00  0.00    -0.045 C 
ATOM      8  C   UNL     1      34.788 -23.087 -19.890  0.00  0.00    +0.000 C 
ATOM      9  C   UNL     1      32.378 -21.175 -20.119  0.00  0.00    +0.004 C 
ATOM     10  C   UNL     1      33.101 -19.975 -20.751  0.00  0.00    +0.022 C 
ATOM     11  C   UNL     1      35.314 -19.954 -21.915  0.00  0.00    -0.009 C 
ENDROOT
BRANCH  11  12
ATOM     12  C   UNL     1      34.721 -19.554 -23.167  0.00  0.00    -0.005 C 
ATOM     13  C   UNL     1      34.287 -18.306 -23.411  0.00  0.00    -0.021 C 
ATOM     14  C   UNL     1      33.711 -17.912 -24.747  0.00  0.00    +0.055 C 
ATOM     15  C   UNL     1      34.374 -17.228 -22.429  0.00  0.00    +0.000 C 
ATOM     16  C   UNL     1      34.354 -16.638 -25.301  0.00  0.00    +0.118 C 
ATOM     17  C   UNL     1      34.936 -15.922 -22.939  0.00  0.00    +0.135 C 
ATOM     18  C   UNL     1      34.299 -15.506 -24.269  0.00  0.00    +0.063 C 
ATOM     19  C   UNL     1      33.934 -17.361 -21.166  0.00  0.00    -0.003 C 
BRANCH  16  20
ATOM     20  O   UNL     1      33.649 -16.247 -26.475  0.00  0.00    -0.384 OA
ATOM     21  H   UNL     1      33.579 -15.279 -26.503  0.00  0.00    +0.210 HD
ENDBRANCH  16  20
BRANCH  17  22
ATOM     22  O   UNL     1      36.345 -16.078 -23.112  0.00  0.00    -0.380 OA
ATOM     23  H   UNL     1      36.595 -16.994 -22.913  0.00  0.00    +0.211 HD
ENDBRANCH  17  22
ENDBRANCH  11  12
BRANCH   2  24
ATOM     24  C   UNL     1      35.199 -23.382 -16.930  0.00  0.00    +0.022 C 
ATOM     25  C   UNL     1      33.812 -23.582 -16.315  0.00  0.00    +0.005 C 
BRANCH  24  26
ATOM     26  C   UNL     1      36.260 -23.508 -15.861  0.00  0.00    -0.029 C 
ATOM     27  C   UNL     1      36.306 -24.514 -14.973  0.00  0.00    -0.005 C 
BRANCH  27  28
ATOM     28  C   UNL     1      37.343 -24.707 -13.882  0.00  0.00    +0.106 C 
ATOM     29  C   UNL     1      37.828 -26.164 -13.923  0.00  0.00    +0.034 C 
BRANCH  28  30
ATOM     30  C   UNL     1      36.811 -24.313 -12.467  0.00  0.00    +0.029 C 
ATOM     31  C   UNL     1      35.275 -24.261 -12.415  0.00  0.00    +0.003 C 
ATOM     32  C   UNL     1      37.380 -22.999 -11.922  0.00  0.00    +0.003 C 
ENDBRANCH  28  30
BRANCH  28  33
ATOM     33  O   UNL     1      38.492 -23.893 -14.154  0.00  0.00    -0.383 OA
ATOM     34  H   UNL     1      38.521 -23.153 -13.528  0.00  0.00    +0.211 HD
ENDBRANCH  28  33
ENDBRANCH  27  28
ENDBRANCH  24  26
ENDBRANCH   2  24
TORSDOF 8
ENDMDL
MODEL 7
REMARK VINA RESULT:      -6.8      2.388      4.334
REMARK  Name = 9547261
REMARK  8 active torsions:
REMARK  status: ('A' for Active; 'I' for Inactive)
REMARK    1  A    between atoms: C_2  and  C_24
REMARK    2  A    between atoms: C_11  and  C_12
REMARK    3  A    between atoms: C_16  and  O_20
REMARK    4  A    between atoms: C_17  and  O_22
REMARK    5  A    between atoms: C_24  and  C_26
REMARK    6  A    between atoms: C_27  and  C_28
REMARK    7  A    between atoms: C_28  and  C_30
REMARK    8  A    between atoms: C_28  and  O_33
REMARK                            x       y       z     vdW  Elec       q    Type
REMARK                         _______ _______ _______ _____ _____    ______ ____
ROOT
ATOM      1  C   UNL     1      33.192 -13.308 -24.401  0.00  0.00    +0.004 C 
ATOM      2  C   UNL     1      34.204 -13.989 -25.353  0.00  0.00    +0.004 C 
ATOM      3  C   UNL     1      33.829 -11.899 -24.315  0.00  0.00    +0.018 C 
ATOM      4  C   UNL     1      34.508 -12.904 -26.412  0.00  0.00    +0.001 C 
ATOM      5  C   UNL     1      34.121 -11.556 -25.777  0.00  0.00    +0.004 C 
ATOM      6  C   UNL     1      33.148 -13.912 -22.982  0.00  0.00    +0.001 C 
ATOM      7  C   UNL     1      33.034 -10.991 -23.415  0.00  0.00    -0.045 C 
ATOM      8  C   UNL     1      31.764 -13.297 -25.005  0.00  0.00    +0.000 C 
ATOM      9  C   UNL     1      32.391 -13.001 -21.999  0.00  0.00    +0.004 C 
ATOM     10  C   UNL     1      32.884 -11.545 -22.014  0.00  0.00    +0.022 C 
ATOM     11  C   UNL     1      32.509  -9.814 -23.779  0.00  0.00    -0.009 C 
ENDROOT
BRANCH  11  12
ATOM     12  C   UNL     1      31.760  -8.971 -22.880  0.00  0.00    -0.005 C 
ATOM     13  C   UNL     1      31.999  -7.659 -22.729  0.00  0.00    -0.021 C 
ATOM     14  C   UNL     1      31.166  -6.799 -21.812  0.00  0.00    +0.055 C 
ATOM     15  C   UNL     1      33.045  -6.951 -23.464  0.00  0.00    +0.000 C 
ATOM     16  C   UNL     1      30.668  -5.529 -22.504  0.00  0.00    +0.118 C 
ATOM     17  C   UNL     1      32.627  -5.651 -24.109  0.00  0.00    +0.135 C 
ATOM     18  C   UNL     1      31.831  -4.764 -23.146  0.00  0.00    +0.063 C 
ATOM     19  C   UNL     1      34.313  -7.391 -23.521  0.00  0.00    -0.003 C 
BRANCH  16  20
ATOM     20  O   UNL     1      30.034  -4.702 -21.534  0.00  0.00    -0.384 OA
ATOM     21  H   UNL     1      29.088  -4.918 -21.492  0.00  0.00    +0.210 HD
ENDBRANCH  16  20
BRANCH  17  22
ATOM     22  O   UNL     1      31.825  -5.956 -25.252  0.00  0.00    -0.380 OA
ATOM     23  H   UNL     1      32.131  -5.434 -26.010  0.00  0.00    +0.211 HD
ENDBRANCH  17  22
ENDBRANCH  11  12
BRANCH   2  24
ATOM     24  C   UNL     1      33.772 -15.312 -25.967  0.00  0.00    +0.022 C 
ATOM     25  C   UNL     1      32.348 -15.217 -26.523  0.00  0.00    +0.005 C 
BRANCH  24  26
ATOM     26  C   UNL     1      33.851 -16.419 -24.941  0.00  0.00    -0.029 C 
ATOM     27  C   UNL     1      34.982 -16.762 -24.302  0.00  0.00    -0.005 C 
BRANCH  27  28
ATOM     28  C   UNL     1      35.132 -17.853 -23.259  0.00  0.00    +0.106 C 
ATOM     29  C   UNL     1      34.769 -19.199 -23.905  0.00  0.00    +0.034 C 
BRANCH  28  30
ATOM     30  C   UNL     1      34.287 -17.580 -21.974  0.00  0.00    +0.029 C 
ATOM     31  C   UNL     1      34.935 -16.526 -21.062  0.00  0.00    +0.003 C 
ATOM     32  C   UNL     1      33.964 -18.832 -21.152  0.00  0.00    +0.003 C 
ENDBRANCH  28  30
BRANCH  28  33
ATOM     33  O   UNL     1      36.506 -17.957 -22.859  0.00  0.00    -0.383 OA
ATOM     34  H   UNL     1      36.855 -18.823 -23.121  0.00  0.00    +0.211 HD
ENDBRANCH  28  33
ENDBRANCH  27  28
ENDBRANCH  24  26
ENDBRANCH   2  24
TORSDOF 8
ENDMDL
MODEL 8
REMARK VINA RESULT:      -6.7      4.232     11.846
REMARK  Name = 9547261
REMARK  8 active torsions:
REMARK  status: ('A' for Active; 'I' for Inactive)
REMARK    1  A    between atoms: C_2  and  C_24
REMARK    2  A    between atoms: C_11  and  C_12
REMARK    3  A    between atoms: C_16  and  O_20
REMARK    4  A    between atoms: C_17  and  O_22
REMARK    5  A    between atoms: C_24  and  C_26
REMARK    6  A    between atoms: C_27  and  C_28
REMARK    7  A    between atoms: C_28  and  C_30
REMARK    8  A    between atoms: C_28  and  O_33
REMARK                            x       y       z     vdW  Elec       q    Type
REMARK                         _______ _______ _______ _____ _____    ______ ____
ROOT
ATOM      1  C   UNL     1      34.728 -21.565 -19.485  0.00  0.00    +0.004 C 
ATOM      2  C   UNL     1      35.601 -20.891 -20.571  0.00  0.00    +0.004 C 
ATOM      3  C   UNL     1      35.841 -22.030 -18.514  0.00  0.00    +0.018 C 
ATOM      4  C   UNL     1      36.680 -20.132 -19.764  0.00  0.00    +0.001 C 
ATOM      5  C   UNL     1      36.725 -20.789 -18.372  0.00  0.00    +0.004 C 
ATOM      6  C   UNL     1      33.954 -22.807 -19.973  0.00  0.00    +0.001 C 
ATOM      7  C   UNL     1      35.265 -22.751 -17.326  0.00  0.00    -0.045 C 
ATOM      8  C   UNL     1      33.740 -20.555 -18.845  0.00  0.00    +0.000 C 
ATOM      9  C   UNL     1      33.383 -23.619 -18.796  0.00  0.00    +0.004 C 
ATOM     10  C   UNL     1      34.429 -23.951 -17.720  0.00  0.00    +0.022 C 
ATOM     11  C   UNL     1      35.456 -22.402 -16.046  0.00  0.00    -0.009 C 
ENDROOT
BRANCH  11  12
ATOM     12  C   UNL     1      34.890 -23.129 -14.936  0.00  0.00    -0.005 C 
ATOM     13  C   UNL     1      35.631 -23.804 -14.043  0.00  0.00    -0.021 C 
ATOM     14  C   UNL     1      35.008 -24.516 -12.870  0.00  0.00    +0.055 C 
ATOM     15  C   UNL     1      37.090 -23.869 -14.107  0.00  0.00    +0.000 C 
ATOM     16  C   UNL     1      35.690 -24.158 -11.547  0.00  0.00    +0.118 C 
ATOM     17  C   UNL     1      37.814 -23.594 -12.811  0.00  0.00    +0.135 C 
ATOM     18  C   UNL     1      37.205 -24.370 -11.639  0.00  0.00    +0.063 C 
ATOM     19  C   UNL     1      37.751 -24.206 -15.227  0.00  0.00    -0.003 C 
BRANCH  16  20
ATOM     20  O   UNL     1      35.155 -24.988 -10.521  0.00  0.00    -0.384 OA
ATOM     21  H   UNL     1      35.691 -25.793 -10.443  0.00  0.00    +0.210 HD
ENDBRANCH  16  20
BRANCH  17  22
ATOM     22  O   UNL     1      37.742 -22.192 -12.546  0.00  0.00    -0.380 OA
ATOM     23  H   UNL     1      38.013 -22.022 -11.631  0.00  0.00    +0.211 HD
ENDBRANCH  17  22
ENDBRANCH  11  12
BRANCH   2  24
ATOM     24  C   UNL     1      34.874 -20.003 -21.571  0.00  0.00    +0.022 C 
ATOM     25  C   UNL     1      35.487 -20.140 -22.967  0.00  0.00    +0.005 C 
BRANCH  24  26
ATOM     26  C   UNL     1      34.923 -18.559 -21.126  0.00  0.00    -0.029 C 
ATOM     27  C   UNL     1      34.137 -17.597 -21.633  0.00  0.00    -0.005 C 
BRANCH  27  28
ATOM     28  C   UNL     1      34.127 -16.134 -21.229  0.00  0.00    +0.106 C 
ATOM     29  C   UNL     1      32.713 -15.769 -20.756  0.00  0.00    +0.034 C 
BRANCH  28  30
ATOM     30  C   UNL     1      34.619 -15.190 -22.372  0.00  0.00    +0.029 C 
ATOM     31  C   UNL     1      33.635 -14.040 -22.643  0.00  0.00    +0.003 C 
ATOM     32  C   UNL     1      34.937 -15.905 -23.689  0.00  0.00    +0.003 C 
ENDBRANCH  28  30
BRANCH  28  33
ATOM     33  O   UNL     1      34.992 -15.935 -20.101  0.00  0.00    -0.383 OA
ATOM     34  H   UNL     1      34.605 -16.358 -19.319  0.00  0.00    +0.211 HD
ENDBRANCH  28  33
ENDBRANCH  27  28
ENDBRANCH  24  26
ENDBRANCH   2  24
TORSDOF 8
ENDMDL
MODEL 9
REMARK VINA RESULT:      -6.5      1.811     10.051
REMARK  Name = 9547261
REMARK  8 active torsions:
REMARK  status: ('A' for Active; 'I' for Inactive)
REMARK    1  A    between atoms: C_2  and  C_24
REMARK    2  A    between atoms: C_11  and  C_12
REMARK    3  A    between atoms: C_16  and  O_20
REMARK    4  A    between atoms: C_17  and  O_22
REMARK    5  A    between atoms: C_24  and  C_26
REMARK    6  A    between atoms: C_27  and  C_28
REMARK    7  A    between atoms: C_28  and  C_30
REMARK    8  A    between atoms: C_28  and  O_33
REMARK                            x       y       z     vdW  Elec       q    Type
REMARK                         _______ _______ _______ _____ _____    ______ ____
ROOT
ATOM      1  C   UNL     1      33.753 -14.608 -23.810  0.00  0.00    +0.004 C 
ATOM      2  C   UNL     1      34.323 -13.170 -23.847  0.00  0.00    +0.004 C 
ATOM      3  C   UNL     1      34.707 -15.235 -22.765  0.00  0.00    +0.018 C 
ATOM      4  C   UNL     1      34.619 -12.848 -22.364  0.00  0.00    +0.001 C 
ATOM      5  C   UNL     1      34.722 -14.201 -21.637  0.00  0.00    +0.004 C 
ATOM      6  C   UNL     1      33.900 -15.384 -25.135  0.00  0.00    +0.001 C 
ATOM      7  C   UNL     1      34.384 -16.685 -22.526  0.00  0.00    -0.045 C 
ATOM      8  C   UNL     1      32.267 -14.617 -23.365  0.00  0.00    +0.000 C 
ATOM      9  C   UNL     1      33.632 -16.889 -24.945  0.00  0.00    +0.004 C 
ATOM     10  C   UNL     1      34.438 -17.511 -23.794  0.00  0.00    +0.022 C 
ATOM     11  C   UNL     1      34.082 -17.222 -21.336  0.00  0.00    -0.009 C 
ENDROOT
BRANCH  11  12
ATOM     12  C   UNL     1      33.785 -18.621 -21.152  0.00  0.00    -0.005 C 
ATOM     13  C   UNL     1      34.731 -19.570 -21.072  0.00  0.00    -0.021 C 
ATOM     14  C   UNL     1      34.386 -21.019 -20.836  0.00  0.00    +0.055 C 
ATOM     15  C   UNL     1      36.160 -19.278 -21.163  0.00  0.00    +0.000 C 
ATOM     16  C   UNL     1      35.203 -21.629 -19.695  0.00  0.00    +0.118 C 
ATOM     17  C   UNL     1      37.027 -19.915 -20.102  0.00  0.00    +0.135 C 
ATOM     18  C   UNL     1      36.703 -21.401 -19.915  0.00  0.00    +0.063 C 
ATOM     19  C   UNL     1      36.687 -18.540 -22.154  0.00  0.00    -0.003 C 
BRANCH  16  20
ATOM     20  O   UNL     1      34.938 -23.027 -19.644  0.00  0.00    -0.384 OA
ATOM     21  H   UNL     1      34.382 -23.224 -18.873  0.00  0.00    +0.210 HD
ENDBRANCH  16  20
BRANCH  17  22
ATOM     22  O   UNL     1      36.813 -19.220 -18.873  0.00  0.00    -0.380 OA
ATOM     23  H   UNL     1      37.597 -19.312 -18.309  0.00  0.00    +0.211 HD
ENDBRANCH  17  22
ENDBRANCH  11  12
BRANCH   2  24
ATOM     24  C   UNL     1      33.458 -12.115 -24.522  0.00  0.00    +0.022 C 
ATOM     25  C   UNL     1      34.163 -11.538 -25.752  0.00  0.00    +0.005 C 
BRANCH  24  26
ATOM     26  C   UNL     1      33.127 -11.005 -23.550  0.00  0.00    -0.029 C 
ATOM     27  C   UNL     1      32.875  -9.740 -23.922  0.00  0.00    -0.005 C 
BRANCH  27  28
ATOM     28  C   UNL     1      32.530  -8.582 -23.004  0.00  0.00    +0.106 C 
ATOM     29  C   UNL     1      31.059  -8.202 -23.231  0.00  0.00    +0.034 C 
BRANCH  28  30
ATOM     30  C   UNL     1      33.482  -7.358 -23.194  0.00  0.00    +0.029 C 
ATOM     31  C   UNL     1      32.957  -6.369 -24.247  0.00  0.00    +0.003 C 
ATOM     32  C   UNL     1      34.930  -7.730 -23.527  0.00  0.00    +0.003 C 
ENDBRANCH  28  30
BRANCH  28  33
ATOM     33  O   UNL     1      32.631  -9.000 -21.635  0.00  0.00    -0.383 OA
ATOM     34  H   UNL     1      31.952  -9.668 -21.450  0.00  0.00    +0.211 HD
ENDBRANCH  28  33
ENDBRANCH  27  28
ENDBRANCH  24  26
ENDBRANCH   2  24
TORSDOF 8
ENDMDL
