MODEL 1
REMARK VINA RESULT:      -8.1      0.000      0.000
REMARK  Name = 28204
REMARK  1 active torsions:
REMARK  status: ('A' for Active; 'I' for Inactive)
REMARK    1  A    between atoms: C_6  and  O_23
REMARK                            x       y       z     vdW  Elec       q    Type
REMARK                         _______ _______ _______ _____ _____    ______ ____
ROOT
ATOM      1  O   UNL     1      32.544  -7.408 -19.557  0.00  0.00    -0.291 OA
ATOM      2  C   UNL     1      33.037  -3.324 -26.025  0.00  0.00    +0.002 C 
ATOM      3  C   UNL     1      33.645  -4.085 -27.232  0.00  0.00    +0.023 C 
ATOM      4  C   UNL     1      32.177  -4.234 -25.105  0.00  0.00    +0.001 C 
ATOM      5  C   UNL     1      33.095  -5.418 -24.603  0.00  0.00    +0.003 C 
ATOM      6  C   UNL     1      34.340  -2.927 -28.012  0.00  0.00    +0.088 C 
ATOM      7  C   UNL     1      32.366  -6.437 -23.641  0.00  0.00    +0.016 C 
ATOM      8  C   UNL     1      34.581  -5.174 -26.695  0.00  0.00    +0.002 C 
ATOM      9  C   UNL     1      33.843  -6.135 -25.759  0.00  0.00    +0.000 C 
ATOM     10  C   UNL     1      32.431  -2.085 -26.688  0.00  0.00    +0.002 C 
ATOM     11  C   UNL     1      31.549  -3.506 -23.876  0.00  0.00    +0.004 C 
ATOM     12  C   UNL     1      33.303  -1.789 -27.922  0.00  0.00    +0.027 C 
ATOM     13  C   UNL     1      30.805  -4.507 -22.976  0.00  0.00    +0.022 C 
ATOM     14  C   UNL     1      31.660  -5.662 -22.533  0.00  0.00    -0.042 C 
ATOM     15  C   UNL     1      32.568  -4.748 -28.142  0.00  0.00    +0.002 C 
ATOM     16  C   UNL     1      33.434  -7.390 -23.025  0.00  0.00    +0.012 C 
ATOM     17  C   UNL     1      35.693  -2.463 -27.460  0.00  0.00    +0.029 C 
ATOM     18  C   UNL     1      31.313  -7.286 -24.389  0.00  0.00    +0.004 C 
ATOM     19  C   UNL     1      30.547  -2.403 -24.236  0.00  0.00    +0.000 C 
ATOM     20  C   UNL     1      32.947  -8.146 -21.798  0.00  0.00    +0.069 C 
ATOM     21  C   UNL     1      31.733  -5.969 -21.227  0.00  0.00    +0.029 C 
ATOM     22  C   UNL     1      32.444  -7.180 -20.760  0.00  0.00    +0.173 C 
ENDROOT
BRANCH   6  23
ATOM     23  O   UNL     1      34.547  -3.260 -29.383  0.00  0.00    -0.387 OA
ATOM     24  H   UNL     1      35.124  -2.598 -29.793  0.00  0.00    +0.210 HD
ENDBRANCH   6  23
TORSDOF 1
ENDMDL
MODEL 2
REMARK VINA RESULT:      -8.0     19.441     21.722
REMARK  Name = 28204
REMARK  1 active torsions:
REMARK  status: ('A' for Active; 'I' for Inactive)
REMARK    1  A    between atoms: C_6  and  O_23
REMARK                            x       y       z     vdW  Elec       q    Type
REMARK                         _______ _______ _______ _____ _____    ______ ____
ROOT
ATOM      1  O   UNL     1      27.887 -21.774 -15.659  0.00  0.00    -0.291 OA
ATOM      2  C   UNL     1      35.363 -23.376 -15.109  0.00  0.00    +0.002 C 
ATOM      3  C   UNL     1      35.729 -24.419 -14.020  0.00  0.00    +0.023 C 
ATOM      4  C   UNL     1      34.002 -23.669 -15.798  0.00  0.00    +0.001 C 
ATOM      5  C   UNL     1      32.890 -23.703 -14.674  0.00  0.00    +0.003 C 
ATOM      6  C   UNL     1      37.153 -23.944 -13.599  0.00  0.00    +0.088 C 
ATOM      7  C   UNL     1      31.434 -23.984 -15.216  0.00  0.00    +0.016 C 
ATOM      8  C   UNL     1      34.662 -24.364 -12.922  0.00  0.00    +0.002 C 
ATOM      9  C   UNL     1      33.263 -24.629 -13.485  0.00  0.00    +0.000 C 
ATOM     10  C   UNL     1      36.653 -23.291 -15.929  0.00  0.00    +0.002 C 
ATOM     11  C   UNL     1      33.596 -22.640 -16.898  0.00  0.00    +0.004 C 
ATOM     12  C   UNL     1      37.803 -23.587 -14.951  0.00  0.00    +0.027 C 
ATOM     13  C   UNL     1      32.194 -22.956 -17.445  0.00  0.00    +0.022 C 
ATOM     14  C   UNL     1      31.140 -23.038 -16.375  0.00  0.00    -0.042 C 
ATOM     15  C   UNL     1      35.811 -25.874 -14.572  0.00  0.00    +0.002 C 
ATOM     16  C   UNL     1      30.418 -23.738 -14.059  0.00  0.00    +0.012 C 
ATOM     17  C   UNL     1      37.205 -22.743 -12.647  0.00  0.00    +0.029 C 
ATOM     18  C   UNL     1      31.273 -25.436 -15.719  0.00  0.00    +0.004 C 
ATOM     19  C   UNL     1      34.542 -22.593 -18.103  0.00  0.00    +0.000 C 
ATOM     20  C   UNL     1      28.980 -23.579 -14.530  0.00  0.00    +0.069 C 
ATOM     21  C   UNL     1      30.010 -22.322 -16.504  0.00  0.00    +0.029 C 
ATOM     22  C   UNL     1      28.887 -22.481 -15.552  0.00  0.00    +0.173 C 
ENDROOT
BRANCH   6  23
ATOM     23  O   UNL     1      37.901 -24.989 -12.984  0.00  0.00    -0.387 OA
ATOM     24  H   UNL     1      37.522 -25.191 -12.116  0.00  0.00    +0.210 HD
ENDBRANCH   6  23
TORSDOF 1
ENDMDL
MODEL 3
REMARK VINA RESULT:      -7.7      4.912      7.593
REMARK  Name = 28204
REMARK  1 active torsions:
REMARK  status: ('A' for Active; 'I' for Inactive)
REMARK    1  A    between atoms: C_6  and  O_23
REMARK                            x       y       z     vdW  Elec       q    Type
REMARK                         _______ _______ _______ _____ _____    ______ ____
ROOT
ATOM      1  O   UNL     1      34.708 -16.908 -21.041  0.00  0.00    -0.291 OA
ATOM      2  C   UNL     1      32.794  -9.567 -22.137  0.00  0.00    +0.002 C 
ATOM      3  C   UNL     1      33.029  -9.039 -23.577  0.00  0.00    +0.023 C 
ATOM      4  C   UNL     1      32.343 -11.053 -22.102  0.00  0.00    +0.001 C 
ATOM      5  C   UNL     1      33.454 -11.912 -22.827  0.00  0.00    +0.003 C 
ATOM      6  C   UNL     1      33.351  -7.537 -23.309  0.00  0.00    +0.088 C 
ATOM      7  C   UNL     1      33.149 -13.460 -22.869  0.00  0.00    +0.016 C 
ATOM      8  C   UNL     1      34.161  -9.854 -24.211  0.00  0.00    +0.002 C 
ATOM      9  C   UNL     1      33.835 -11.351 -24.224  0.00  0.00    +0.000 C 
ATOM     10  C   UNL     1      31.921  -8.469 -21.523  0.00  0.00    +0.002 C 
ATOM     11  C   UNL     1      32.099 -11.623 -20.670  0.00  0.00    +0.004 C 
ATOM     12  C   UNL     1      32.324  -7.159 -22.223  0.00  0.00    +0.027 C 
ATOM     13  C   UNL     1      31.758 -13.122 -20.734  0.00  0.00    +0.022 C 
ATOM     14  C   UNL     1      32.789 -13.937 -21.466  0.00  0.00    -0.042 C 
ATOM     15  C   UNL     1      31.763  -9.144 -24.480  0.00  0.00    +0.002 C 
ATOM     16  C   UNL     1      34.423 -14.205 -23.372  0.00  0.00    +0.012 C 
ATOM     17  C   UNL     1      34.774  -7.231 -22.828  0.00  0.00    +0.029 C 
ATOM     18  C   UNL     1      31.972 -13.792 -23.814  0.00  0.00    +0.004 C 
ATOM     19  C   UNL     1      30.961 -10.942 -19.901  0.00  0.00    +0.000 C 
ATOM     20  C   UNL     1      34.413 -15.699 -23.086  0.00  0.00    +0.069 C 
ATOM     21  C   UNL     1      33.302 -15.033 -20.881  0.00  0.00    +0.029 C 
ATOM     22  C   UNL     1      34.208 -15.944 -21.616  0.00  0.00    +0.173 C 
ENDROOT
BRANCH   6  23
ATOM     23  O   UNL     1      33.126  -6.732 -24.464  0.00  0.00    -0.387 OA
ATOM     24  H   UNL     1      33.668  -7.058 -25.197  0.00  0.00    +0.210 HD
ENDBRANCH   6  23
TORSDOF 1
ENDMDL
MODEL 4
REMARK VINA RESULT:      -7.4     15.810     20.424
REMARK  Name = 28204
REMARK  1 active torsions:
REMARK  status: ('A' for Active; 'I' for Inactive)
REMARK    1  A    between atoms: C_6  and  O_23
REMARK                            x       y       z     vdW  Elec       q    Type
REMARK                         _______ _______ _______ _____ _____    ______ ____
ROOT
ATOM      1  O   UNL     1      35.073 -18.689 -21.486  0.00  0.00    -0.291 OA
ATOM      2  C   UNL     1      34.625 -23.049 -15.198  0.00  0.00    +0.002 C 
ATOM      3  C   UNL     1      33.341 -23.913 -15.093  0.00  0.00    +0.023 C 
ATOM      4  C   UNL     1      35.134 -22.893 -16.658  0.00  0.00    +0.001 C 
ATOM      5  C   UNL     1      33.968 -22.249 -17.509  0.00  0.00    +0.003 C 
ATOM      6  C   UNL     1      33.140 -23.985 -13.549  0.00  0.00    +0.088 C 
ATOM      7  C   UNL     1      34.331 -22.014 -19.027  0.00  0.00    +0.016 C 
ATOM      8  C   UNL     1      32.224 -23.212 -15.873  0.00  0.00    +0.002 C 
ATOM      9  C   UNL     1      32.615 -22.991 -17.337  0.00  0.00    +0.000 C 
ATOM     10  C   UNL     1      35.522 -23.660 -14.118  0.00  0.00    +0.002 C 
ATOM     11  C   UNL     1      36.424 -22.028 -16.807  0.00  0.00    +0.004 C 
ATOM     12  C   UNL     1      34.576 -24.199 -13.030  0.00  0.00    +0.027 C 
ATOM     13  C   UNL     1      36.787 -21.848 -18.291  0.00  0.00    +0.022 C 
ATOM     14  C   UNL     1      35.665 -21.280 -19.116  0.00  0.00    -0.042 C 
ATOM     15  C   UNL     1      33.526 -25.353 -15.659  0.00  0.00    +0.002 C 
ATOM     16  C   UNL     1      33.207 -21.152 -19.679  0.00  0.00    +0.012 C 
ATOM     17  C   UNL     1      32.514 -22.747 -12.895  0.00  0.00    +0.029 C 
ATOM     18  C   UNL     1      34.453 -23.343 -19.806  0.00  0.00    +0.004 C 
ATOM     19  C   UNL     1      37.662 -22.610 -16.115  0.00  0.00    +0.000 C 
ATOM     20  C   UNL     1      33.609 -20.519 -21.003  0.00  0.00    +0.069 C 
ATOM     21  C   UNL     1      35.892 -20.208 -19.893  0.00  0.00    +0.029 C 
ATOM     22  C   UNL     1      34.861 -19.704 -20.828  0.00  0.00    +0.173 C 
ENDROOT
BRANCH   6  23
ATOM     23  O   UNL     1      32.338 -25.100 -13.169  0.00  0.00    -0.387 OA
ATOM     24  H   UNL     1      32.220 -25.689 -13.930  0.00  0.00    +0.210 HD
ENDBRANCH   6  23
TORSDOF 1
ENDMDL
MODEL 5
REMARK VINA RESULT:      -7.3      8.389     12.458
REMARK  Name = 28204
REMARK  1 active torsions:
REMARK  status: ('A' for Active; 'I' for Inactive)
REMARK    1  A    between atoms: C_6  and  O_23
REMARK                            x       y       z     vdW  Elec       q    Type
REMARK                         _______ _______ _______ _____ _____    ______ ____
ROOT
ATOM      1  O   UNL     1      34.398  -9.997 -25.334  0.00  0.00    -0.291 OA
ATOM      2  C   UNL     1      34.672 -17.339 -23.149  0.00  0.00    +0.002 C 
ATOM      3  C   UNL     1      34.525 -17.571 -21.623  0.00  0.00    +0.023 C 
ATOM      4  C   UNL     1      33.815 -16.151 -23.668  0.00  0.00    +0.001 C 
ATOM      5  C   UNL     1      34.250 -14.858 -22.871  0.00  0.00    +0.003 C 
ATOM      6  C   UNL     1      35.383 -18.856 -21.419  0.00  0.00    +0.088 C 
ATOM      7  C   UNL     1      33.473 -13.549 -23.290  0.00  0.00    +0.016 C 
ATOM      8  C   UNL     1      35.025 -16.320 -20.894  0.00  0.00    +0.002 C 
ATOM      9  C   UNL     1      34.257 -15.070 -21.333  0.00  0.00    +0.000 C 
ATOM     10  C   UNL     1      34.482 -18.748 -23.717  0.00  0.00    +0.002 C 
ATOM     11  C   UNL     1      33.938 -15.882 -25.200  0.00  0.00    +0.004 C 
ATOM     12  C   UNL     1      34.999 -19.717 -22.639  0.00  0.00    +0.027 C 
ATOM     13  C   UNL     1      33.137 -14.630 -25.597  0.00  0.00    +0.022 C 
ATOM     14  C   UNL     1      33.513 -13.407 -24.807  0.00  0.00    -0.042 C 
ATOM     15  C   UNL     1      33.056 -17.857 -21.188  0.00  0.00    +0.002 C 
ATOM     16  C   UNL     1      34.167 -12.323 -22.623  0.00  0.00    +0.012 C 
ATOM     17  C   UNL     1      36.902 -18.648 -21.369  0.00  0.00    +0.029 C 
ATOM     18  C   UNL     1      31.994 -13.587 -22.843  0.00  0.00    +0.004 C 
ATOM     19  C   UNL     1      33.438 -17.028 -26.088  0.00  0.00    +0.000 C 
ATOM     20  C   UNL     1      33.785 -10.989 -23.244  0.00  0.00    +0.069 C 
ATOM     21  C   UNL     1      33.824 -12.272 -25.456  0.00  0.00    +0.029 C 
ATOM     22  C   UNL     1      34.060 -11.007 -24.723  0.00  0.00    +0.173 C 
ENDROOT
BRANCH   6  23
ATOM     23  O   UNL     1      35.025 -19.552 -20.227  0.00  0.00    -0.387 OA
ATOM     24  H   UNL     1      35.392 -19.088 -19.460  0.00  0.00    +0.210 HD
ENDBRANCH   6  23
TORSDOF 1
ENDMDL
MODEL 6
REMARK VINA RESULT:      -6.3      4.243      7.872
REMARK  Name = 28204
REMARK  1 active torsions:
REMARK  status: ('A' for Active; 'I' for Inactive)
REMARK    1  A    between atoms: C_6  and  O_23
REMARK                            x       y       z     vdW  Elec       q    Type
REMARK                         _______ _______ _______ _____ _____    ______ ____
ROOT
ATOM      1  O   UNL     1      30.681  -4.689 -23.770  0.00  0.00    -0.291 OA
ATOM      2  C   UNL     1      32.409 -12.116 -22.986  0.00  0.00    +0.002 C 
ATOM      3  C   UNL     1      33.674 -12.576 -23.757  0.00  0.00    +0.023 C 
ATOM      4  C   UNL     1      32.530 -10.670 -22.429  0.00  0.00    +0.001 C 
ATOM      5  C   UNL     1      32.812  -9.706 -23.649  0.00  0.00    +0.003 C 
ATOM      6  C   UNL     1      33.315 -14.057 -24.088  0.00  0.00    +0.088 C 
ATOM      7  C   UNL     1      32.954  -8.185 -23.249  0.00  0.00    +0.016 C 
ATOM      8  C   UNL     1      33.863 -11.656 -24.967  0.00  0.00    +0.002 C 
ATOM      9  C   UNL     1      33.986 -10.189 -24.543  0.00  0.00    +0.000 C 
ATOM     10  C   UNL     1      32.147 -13.297 -22.048  0.00  0.00    +0.002 C 
ATOM     11  C   UNL     1      31.276 -10.168 -21.649  0.00  0.00    +0.004 C 
ATOM     12  C   UNL     1      32.664 -14.548 -22.779  0.00  0.00    +0.027 C 
ATOM     13  C   UNL     1      31.451  -8.699 -21.229  0.00  0.00    +0.022 C 
ATOM     14  C   UNL     1      31.768  -7.783 -22.379  0.00  0.00    -0.042 C 
ATOM     15  C   UNL     1      34.966 -12.540 -22.886  0.00  0.00    +0.002 C 
ATOM     16  C   UNL     1      32.971  -7.328 -24.552  0.00  0.00    +0.012 C 
ATOM     17  C   UNL     1      32.362 -14.268 -25.271  0.00  0.00    +0.029 C 
ATOM     18  C   UNL     1      34.253  -7.913 -22.458  0.00  0.00    +0.004 C 
ATOM     19  C   UNL     1      30.962 -10.959 -20.374  0.00  0.00    +0.000 C 
ATOM     20  C   UNL     1      32.702  -5.850 -24.317  0.00  0.00    +0.069 C 
ATOM     21  C   UNL     1      31.035  -6.671 -22.560  0.00  0.00    +0.029 C 
ATOM     22  C   UNL     1      31.399  -5.669 -23.588  0.00  0.00    +0.173 C 
ENDROOT
BRANCH   6  23
ATOM     23  O   UNL     1      34.477 -14.839 -24.352  0.00  0.00    -0.387 OA
ATOM     24  H   UNL     1      35.211 -14.524 -23.803  0.00  0.00    +0.210 HD
ENDBRANCH   6  23
TORSDOF 1
ENDMDL
MODEL 7
REMARK VINA RESULT:      -6.1     16.733     20.697
REMARK  Name = 28204
REMARK  1 active torsions:
REMARK  status: ('A' for Active; 'I' for Inactive)
REMARK    1  A    between atoms: C_6  and  O_23
REMARK                            x       y       z     vdW  Elec       q    Type
REMARK                         _______ _______ _______ _____ _____    ______ ____
ROOT
ATOM      1  O   UNL     1      36.675 -19.375 -20.373  0.00  0.00    -0.291 OA
ATOM      2  C   UNL     1      32.895 -23.420 -15.071  0.00  0.00    +0.002 C 
ATOM      3  C   UNL     1      31.452 -23.828 -15.467  0.00  0.00    +0.023 C 
ATOM      4  C   UNL     1      33.879 -23.421 -16.274  0.00  0.00    +0.001 C 
ATOM      5  C   UNL     1      33.308 -22.431 -17.365  0.00  0.00    +0.003 C 
ATOM      6  C   UNL     1      30.742 -23.846 -14.080  0.00  0.00    +0.088 C 
ATOM      7  C   UNL     1      34.204 -22.309 -18.659  0.00  0.00    +0.016 C 
ATOM      8  C   UNL     1      30.918 -22.799 -16.470  0.00  0.00    +0.002 C 
ATOM      9  C   UNL     1      31.817 -22.701 -17.706  0.00  0.00    +0.000 C 
ATOM     10  C   UNL     1      33.159 -24.296 -13.843  0.00  0.00    +0.002 C 
ATOM     11  C   UNL     1      35.342 -23.013 -15.917  0.00  0.00    +0.004 C 
ATOM     12  C   UNL     1      31.793 -24.513 -13.170  0.00  0.00    +0.027 C 
ATOM     13  C   UNL     1      36.210 -22.945 -17.185  0.00  0.00    +0.022 C 
ATOM     14  C   UNL     1      35.647 -22.041 -18.246  0.00  0.00    -0.042 C 
ATOM     15  C   UNL     1      31.373 -25.246 -16.108  0.00  0.00    +0.002 C 
ATOM     16  C   UNL     1      33.670 -21.128 -19.525  0.00  0.00    +0.012 C 
ATOM     17  C   UNL     1      30.336 -22.479 -13.515  0.00  0.00    +0.029 C 
ATOM     18  C   UNL     1      34.172 -23.601 -19.508  0.00  0.00    +0.004 C 
ATOM     19  C   UNL     1      36.048 -23.967 -14.947  0.00  0.00    +0.000 C 
ATOM     20  C   UNL     1      34.656 -20.645 -20.577  0.00  0.00    +0.069 C 
ATOM     21  C   UNL     1      36.428 -21.091 -18.788  0.00  0.00    +0.029 C 
ATOM     22  C   UNL     1      35.963 -20.275 -19.932  0.00  0.00    +0.173 C 
ENDROOT
BRANCH   6  23
ATOM     23  O   UNL     1      29.564 -24.649 -14.097  0.00  0.00    -0.387 OA
ATOM     24  H   UNL     1      29.150 -24.599 -14.971  0.00  0.00    +0.210 HD
ENDBRANCH   6  23
TORSDOF 1
ENDMDL
MODEL 8
REMARK VINA RESULT:      -5.5      6.091     10.270
REMARK  Name = 28204
REMARK  1 active torsions:
REMARK  status: ('A' for Active; 'I' for Inactive)
REMARK    1  A    between atoms: C_6  and  O_23
REMARK                            x       y       z     vdW  Elec       q    Type
REMARK                         _______ _______ _______ _____ _____    ______ ____
ROOT
ATOM      1  O   UNL     1      32.648  -7.161 -20.438  0.00  0.00    -0.291 OA
ATOM      2  C   UNL     1      33.746 -14.507 -22.332  0.00  0.00    +0.002 C 
ATOM      3  C   UNL     1      33.162 -15.534 -21.328  0.00  0.00    +0.023 C 
ATOM      4  C   UNL     1      32.873 -13.228 -22.470  0.00  0.00    +0.001 C 
ATOM      5  C   UNL     1      32.740 -12.579 -21.035  0.00  0.00    +0.003 C 
ATOM      6  C   UNL     1      34.159 -16.722 -21.482  0.00  0.00    +0.088 C 
ATOM      7  C   UNL     1      31.883 -11.254 -21.003  0.00  0.00    +0.016 C 
ATOM      8  C   UNL     1      33.120 -14.883 -19.942  0.00  0.00    +0.002 C 
ATOM      9  C   UNL     1      32.290 -13.596 -19.952  0.00  0.00    +0.000 C 
ATOM     10  C   UNL     1      34.054 -15.378 -23.553  0.00  0.00    +0.002 C 
ATOM     11  C   UNL     1      33.429 -12.168 -23.470  0.00  0.00    +0.004 C 
ATOM     12  C   UNL     1      34.385 -16.779 -23.007  0.00  0.00    +0.027 C 
ATOM     13  C   UNL     1      32.555 -10.902 -23.459  0.00  0.00    +0.022 C 
ATOM     14  C   UNL     1      32.385 -10.307 -22.088  0.00  0.00    -0.042 C 
ATOM     15  C   UNL     1      31.727 -16.011 -21.707  0.00  0.00    +0.002 C 
ATOM     16  C   UNL     1      32.045 -10.590 -19.602  0.00  0.00    +0.012 C 
ATOM     17  C   UNL     1      35.498 -16.575 -20.749  0.00  0.00    +0.029 C 
ATOM     18  C   UNL     1      30.383 -11.529 -21.252  0.00  0.00    +0.004 C 
ATOM     19  C   UNL     1      33.501 -12.644 -24.925  0.00  0.00    +0.000 C 
ATOM     20  C   UNL     1      31.613  -9.132 -19.560  0.00  0.00    +0.069 C 
ATOM     21  C   UNL     1      32.642  -9.001 -21.897  0.00  0.00    +0.029 C 
ATOM     22  C   UNL     1      32.352  -8.342 -20.604  0.00  0.00    +0.173 C 
ENDROOT
BRANCH   6  23
ATOM     23  O   UNL     1      33.588 -17.955 -21.051  0.00  0.00    -0.387 OA
ATOM     24  H   UNL     1      32.703 -17.794 -20.692  0.00  0.00    +0.210 HD
ENDBRANCH   6  23
TORSDOF 1
ENDMDL
