MODEL 1
REMARK VINA RESULT:      -8.6      0.000      0.000
REMARK  Name = 2583
REMARK  7 active torsions:
REMARK  status: ('A' for Active; 'I' for Inactive)
REMARK    1  A    between atoms: O_1  and  C_6
REMARK    2  A    between atoms: O_1  and  C_14
REMARK    3  A    between atoms: C_14  and  C_15
REMARK    4  A    between atoms: C_15  and  O_16
REMARK    5  A    between atoms: C_15  and  C_18
REMARK    6  A    between atoms: C_18  and  N_19
REMARK    7  A    between atoms: N_19  and  C_22
REMARK                            x       y       z     vdW  Elec       q    Type
REMARK                         _______ _______ _______ _____ _____    ______ ____
ROOT
ATOM      1  O   UNL     1      34.414 -17.935 -22.599  0.00  0.00    -0.473 OA
ENDROOT
BRANCH   1   6
ATOM      2  O   UNL     1      32.924 -22.632 -18.607  0.00  0.00    -0.275 OA
ATOM      3  N   UNL     1      34.784 -21.550 -19.409  0.00  0.00    -0.284 N 
ATOM      4  C   UNL     1      34.562 -19.719 -20.994  0.00  0.00    +0.026 C 
ATOM      5  C   UNL     1      33.089 -19.993 -21.078  0.00  0.00    +0.040 C 
ATOM      6  C   UNL     1      35.161 -18.731 -21.783  0.00  0.00    +0.136 C 
ATOM      7  C   UNL     1      35.368 -20.537 -20.190  0.00  0.00    +0.049 C 
ATOM      8  C   UNL     1      32.568 -20.563 -19.766  0.00  0.00    +0.090 C 
ATOM      9  C   UNL     1      33.421 -21.697 -19.234  0.00  0.00    +0.226 C 
ATOM     10  C   UNL     1      36.545 -18.554 -21.756  0.00  0.00    +0.037 C 
ATOM     11  C   UNL     1      36.755 -20.372 -20.178  0.00  0.00    +0.015 C 
ATOM     12  C   UNL     1      37.341 -19.375 -20.957  0.00  0.00    +0.004 C 
ATOM     13  H   UNL     1      35.382 -22.192 -18.961  0.00  0.00    +0.155 HD
ENDBRANCH   1   6
BRANCH   1  14
ATOM     14  C   UNL     1      34.832 -17.784 -23.940  0.00  0.00    +0.232 C 
BRANCH  14  15
ATOM     15  C   UNL     1      34.804 -16.301 -24.303  0.00  0.00    +0.133 C 
BRANCH  15  16
ATOM     16  O   UNL     1      33.705 -16.067 -25.187  0.00  0.00    -0.383 OA
ATOM     17  H   UNL     1      33.477 -16.891 -25.646  0.00  0.00    +0.210 HD
ENDBRANCH  15  16
BRANCH  15  18
ATOM     18  C   UNL     1      34.643 -15.384 -23.088  0.00  0.00    -0.048 C 
BRANCH  18  19
ATOM     19  N   UNL     1      33.244 -15.205 -22.720  0.00  0.00    +0.388 N 
ATOM     20  H   UNL     1      32.861 -14.416 -23.240  0.00  0.00    -0.084 HD
ATOM     21  H   UNL     1      32.737 -16.060 -22.943  0.00  0.00    -0.084 HD
BRANCH  19  22
ATOM     22  C   UNL     1      33.111 -14.944 -21.293  0.00  0.00    -0.046 C 
ATOM     23  C   UNL     1      34.503 -14.989 -20.657  0.00  0.00    -0.022 C 
ATOM     24  C   UNL     1      32.493 -13.554 -21.107  0.00  0.00    -0.022 C 
ATOM     25  C   UNL     1      32.207 -16.011 -20.663  0.00  0.00    -0.022 C 
ENDBRANCH  19  22
ENDBRANCH  18  19
ENDBRANCH  15  18
ENDBRANCH  14  15
ENDBRANCH   1  14
TORSDOF 7
ENDMDL
MODEL 2
REMARK VINA RESULT:      -8.1      1.572      2.311
REMARK  Name = 2583
REMARK  7 active torsions:
REMARK  status: ('A' for Active; 'I' for Inactive)
REMARK    1  A    between atoms: O_1  and  C_6
REMARK    2  A    between atoms: O_1  and  C_14
REMARK    3  A    between atoms: C_14  and  C_15
REMARK    4  A    between atoms: C_15  and  O_16
REMARK    5  A    between atoms: C_15  and  C_18
REMARK    6  A    between atoms: C_18  and  N_19
REMARK    7  A    between atoms: N_19  and  C_22
REMARK                            x       y       z     vdW  Elec       q    Type
REMARK                         _______ _______ _______ _____ _____    ______ ____
ROOT
ATOM      1  O   UNL     1      34.255 -17.902 -22.112  0.00  0.00    -0.473 OA
ENDROOT
BRANCH   1   6
ATOM      2  O   UNL     1      33.133 -23.059 -18.594  0.00  0.00    -0.275 OA
ATOM      3  N   UNL     1      34.913 -21.845 -19.390  0.00  0.00    -0.284 N 
ATOM      4  C   UNL     1      34.547 -19.853 -20.736  0.00  0.00    +0.026 C 
ATOM      5  C   UNL     1      33.077 -20.154 -20.751  0.00  0.00    +0.040 C 
ATOM      6  C   UNL     1      35.071 -18.766 -21.444  0.00  0.00    +0.136 C 
ATOM      7  C   UNL     1      35.422 -20.735 -20.087  0.00  0.00    +0.049 C 
ATOM      8  C   UNL     1      32.659 -20.882 -19.482  0.00  0.00    +0.090 C 
ATOM      9  C   UNL     1      33.568 -22.047 -19.142  0.00  0.00    +0.226 C 
ATOM     10  C   UNL     1      36.450 -18.557 -21.490  0.00  0.00    +0.037 C 
ATOM     11  C   UNL     1      36.803 -20.537 -20.149  0.00  0.00    +0.015 C 
ATOM     12  C   UNL     1      37.315 -19.442 -20.846  0.00  0.00    +0.004 C 
ATOM     13  H   UNL     1      35.552 -22.518 -19.060  0.00  0.00    +0.155 HD
ENDBRANCH   1   6
BRANCH   1  14
ATOM     14  C   UNL     1      34.738 -16.600 -22.368  0.00  0.00    +0.232 C 
BRANCH  14  15
ATOM     15  C   UNL     1      34.146 -15.642 -21.337  0.00  0.00    +0.133 C 
BRANCH  15  16
ATOM     16  O   UNL     1      34.924 -15.720 -20.139  0.00  0.00    -0.383 OA
ATOM     17  H   UNL     1      35.851 -15.516 -20.342  0.00  0.00    +0.210 HD
ENDBRANCH  15  16
BRANCH  15  18
ATOM     18  C   UNL     1      34.132 -14.184 -21.803  0.00  0.00    -0.048 C 
BRANCH  18  19
ATOM     19  N   UNL     1      34.473 -14.058 -23.215  0.00  0.00    +0.388 N 
ATOM     20  H   UNL     1      35.318 -13.495 -23.305  0.00  0.00    -0.084 HD
ATOM     21  H   UNL     1      34.622 -14.991 -23.598  0.00  0.00    -0.084 HD
BRANCH  19  22
ATOM     22  C   UNL     1      33.394 -13.419 -23.954  0.00  0.00    -0.046 C 
ATOM     23  C   UNL     1      33.914 -12.101 -24.537  0.00  0.00    -0.022 C 
ATOM     24  C   UNL     1      32.955 -14.356 -25.086  0.00  0.00    -0.022 C 
ATOM     25  C   UNL     1      32.217 -13.149 -23.008  0.00  0.00    -0.022 C 
ENDBRANCH  19  22
ENDBRANCH  18  19
ENDBRANCH  15  18
ENDBRANCH  14  15
ENDBRANCH   1  14
TORSDOF 7
ENDMDL
MODEL 3
REMARK VINA RESULT:      -8.1      4.778      8.873
REMARK  Name = 2583
REMARK  7 active torsions:
REMARK  status: ('A' for Active; 'I' for Inactive)
REMARK    1  A    between atoms: O_1  and  C_6
REMARK    2  A    between atoms: O_1  and  C_14
REMARK    3  A    between atoms: C_14  and  C_15
REMARK    4  A    between atoms: C_15  and  O_16
REMARK    5  A    between atoms: C_15  and  C_18
REMARK    6  A    between atoms: C_18  and  N_19
REMARK    7  A    between atoms: N_19  and  C_22
REMARK                            x       y       z     vdW  Elec       q    Type
REMARK                         _______ _______ _______ _____ _____    ______ ____
ROOT
ATOM      1  O   UNL     1      36.871 -22.172 -18.048  0.00  0.00    -0.473 OA
ENDROOT
BRANCH   1   6
ATOM      2  O   UNL     1      35.092 -18.300 -22.746  0.00  0.00    -0.275 OA
ATOM      3  N   UNL     1      34.165 -19.816 -21.290  0.00  0.00    -0.284 N 
ATOM      4  C   UNL     1      35.549 -20.966 -19.655  0.00  0.00    +0.026 C 
ATOM      5  C   UNL     1      36.768 -20.353 -20.282  0.00  0.00    +0.040 C 
ATOM      6  C   UNL     1      35.659 -21.872 -18.595  0.00  0.00    +0.136 C 
ATOM      7  C   UNL     1      34.289 -20.706 -20.209  0.00  0.00    +0.049 C 
ATOM      8  C   UNL     1      36.441 -18.997 -20.890  0.00  0.00    +0.090 C 
ATOM      9  C   UNL     1      35.196 -19.021 -21.754  0.00  0.00    +0.226 C 
ATOM     10  C   UNL     1      34.519 -22.498 -18.087  0.00  0.00    +0.037 C 
ATOM     11  C   UNL     1      33.151 -21.347 -19.712  0.00  0.00    +0.015 C 
ATOM     12  C   UNL     1      33.269 -22.238 -18.646  0.00  0.00    +0.004 C 
ATOM     13  H   UNL     1      33.292 -19.755 -21.743  0.00  0.00    +0.155 HD
ENDBRANCH   1   6
BRANCH   1  14
ATOM     14  C   UNL     1      37.088 -21.834 -16.695  0.00  0.00    +0.232 C 
BRANCH  14  15
ATOM     15  C   UNL     1      37.249 -23.118 -15.884  0.00  0.00    +0.133 C 
BRANCH  15  16
ATOM     16  O   UNL     1      38.643 -23.426 -15.786  0.00  0.00    -0.383 OA
ATOM     17  H   UNL     1      39.161 -22.611 -15.877  0.00  0.00    +0.210 HD
ENDBRANCH  15  16
BRANCH  15  18
ATOM     18  C   UNL     1      36.682 -23.014 -14.466  0.00  0.00    -0.048 C 
BRANCH  18  19
ATOM     19  N   UNL     1      36.400 -24.324 -13.893  0.00  0.00    +0.388 N 
ATOM     20  H   UNL     1      35.394 -24.492 -13.923  0.00  0.00    -0.084 HD
ATOM     21  H   UNL     1      36.896 -25.030 -14.435  0.00  0.00    -0.084 HD
BRANCH  19  22
ATOM     22  C   UNL     1      36.853 -24.396 -12.511  0.00  0.00    -0.046 C 
ATOM     23  C   UNL     1      37.860 -25.542 -12.386  0.00  0.00    -0.022 C 
ATOM     24  C   UNL     1      37.523 -23.065 -12.148  0.00  0.00    -0.022 C 
ATOM     25  C   UNL     1      35.650 -24.647 -11.593  0.00  0.00    -0.022 C 
ENDBRANCH  19  22
ENDBRANCH  18  19
ENDBRANCH  15  18
ENDBRANCH  14  15
ENDBRANCH   1  14
TORSDOF 7
ENDMDL
MODEL 4
REMARK VINA RESULT:      -8.1      4.467      7.445
REMARK  Name = 2583
REMARK  7 active torsions:
REMARK  status: ('A' for Active; 'I' for Inactive)
REMARK    1  A    between atoms: O_1  and  C_6
REMARK    2  A    between atoms: O_1  and  C_14
REMARK    3  A    between atoms: C_14  and  C_15
REMARK    4  A    between atoms: C_15  and  O_16
REMARK    5  A    between atoms: C_15  and  C_18
REMARK    6  A    between atoms: C_18  and  N_19
REMARK    7  A    between atoms: N_19  and  C_22
REMARK                            x       y       z     vdW  Elec       q    Type
REMARK                         _______ _______ _______ _____ _____    ______ ____
ROOT
ATOM      1  O   UNL     1      31.986 -12.004 -22.567  0.00  0.00    -0.473 OA
ENDROOT
BRANCH   1   6
ATOM      2  O   UNL     1      34.709 -16.698 -25.850  0.00  0.00    -0.275 OA
ATOM      3  N   UNL     1      34.161 -16.177 -23.681  0.00  0.00    -0.284 N 
ATOM      4  C   UNL     1      33.045 -14.080 -23.158  0.00  0.00    +0.026 C 
ATOM      5  C   UNL     1      33.210 -13.655 -24.588  0.00  0.00    +0.040 C 
ATOM      6  C   UNL     1      32.476 -13.224 -22.209  0.00  0.00    +0.136 C 
ATOM      7  C   UNL     1      33.565 -15.314 -22.744  0.00  0.00    +0.049 C 
ATOM      8  C   UNL     1      33.203 -14.861 -25.516  0.00  0.00    +0.090 C 
ATOM      9  C   UNL     1      34.121 -15.973 -25.047  0.00  0.00    +0.226 C 
ATOM     10  C   UNL     1      32.415 -13.605 -20.868  0.00  0.00    +0.037 C 
ATOM     11  C   UNL     1      33.520 -15.687 -21.398  0.00  0.00    +0.015 C 
ATOM     12  C   UNL     1      32.938 -14.832 -20.463  0.00  0.00    +0.004 C 
ATOM     13  H   UNL     1      34.635 -16.972 -23.344  0.00  0.00    +0.155 HD
ENDBRANCH   1   6
BRANCH   1  14
ATOM     14  C   UNL     1      31.162 -11.324 -21.643  0.00  0.00    +0.232 C 
BRANCH  14  15
ATOM     15  C   UNL     1      31.519  -9.840 -21.661  0.00  0.00    +0.133 C 
BRANCH  15  16
ATOM     16  O   UNL     1      32.139  -9.503 -20.416  0.00  0.00    -0.383 OA
ATOM     17  H   UNL     1      32.551  -8.628 -20.486  0.00  0.00    +0.210 HD
ENDBRANCH  15  16
BRANCH  15  18
ATOM     18  C   UNL     1      32.481  -9.462 -22.790  0.00  0.00    -0.048 C 
BRANCH  18  19
ATOM     19  N   UNL     1      32.023  -8.293 -23.530  0.00  0.00    +0.388 N 
ATOM     20  H   UNL     1      32.012  -8.512 -24.526  0.00  0.00    -0.084 HD
ATOM     21  H   UNL     1      31.087  -8.050 -23.208  0.00  0.00    -0.084 HD
BRANCH  19  22
ATOM     22  C   UNL     1      32.903  -7.156 -23.302  0.00  0.00    -0.046 C 
ATOM     23  C   UNL     1      32.896  -6.274 -24.555  0.00  0.00    -0.022 C 
ATOM     24  C   UNL     1      32.376  -6.364 -22.100  0.00  0.00    -0.022 C 
ATOM     25  C   UNL     1      34.324  -7.659 -23.019  0.00  0.00    -0.022 C 
ENDBRANCH  19  22
ENDBRANCH  18  19
ENDBRANCH  15  18
ENDBRANCH  14  15
ENDBRANCH   1  14
TORSDOF 7
ENDMDL
MODEL 5
REMARK VINA RESULT:      -8.0      4.010      6.751
REMARK  Name = 2583
REMARK  7 active torsions:
REMARK  status: ('A' for Active; 'I' for Inactive)
REMARK    1  A    between atoms: O_1  and  C_6
REMARK    2  A    between atoms: O_1  and  C_14
REMARK    3  A    between atoms: C_14  and  C_15
REMARK    4  A    between atoms: C_15  and  O_16
REMARK    5  A    between atoms: C_15  and  C_18
REMARK    6  A    between atoms: C_18  and  N_19
REMARK    7  A    between atoms: N_19  and  C_22
REMARK                            x       y       z     vdW  Elec       q    Type
REMARK                         _______ _______ _______ _____ _____    ______ ____
ROOT
ATOM      1  O   UNL     1      34.631 -23.210 -17.944  0.00  0.00    -0.473 OA
ENDROOT
BRANCH   1   6
ATOM      2  O   UNL     1      34.941 -24.235 -11.693  0.00  0.00    -0.275 OA
ATOM      3  N   UNL     1      33.386 -23.700 -13.297  0.00  0.00    -0.284 N 
ATOM      4  C   UNL     1      34.041 -23.486 -15.629  0.00  0.00    +0.026 C 
ATOM      5  C   UNL     1      35.476 -23.651 -15.224  0.00  0.00    +0.040 C 
ATOM      6  C   UNL     1      33.688 -23.237 -16.960  0.00  0.00    +0.136 C 
ATOM      7  C   UNL     1      33.046 -23.476 -14.643  0.00  0.00    +0.049 C 
ATOM      8  C   UNL     1      35.592 -24.524 -13.983  0.00  0.00    +0.090 C 
ATOM      9  C   UNL     1      34.638 -24.113 -12.880  0.00  0.00    +0.226 C 
ATOM     10  C   UNL     1      32.356 -22.997 -17.300  0.00  0.00    +0.037 C 
ATOM     11  C   UNL     1      31.715 -23.216 -14.980  0.00  0.00    +0.015 C 
ATOM     12  C   UNL     1      31.372 -22.984 -16.312  0.00  0.00    +0.004 C 
ATOM     13  H   UNL     1      32.693 -23.555 -12.612  0.00  0.00    +0.155 HD
ENDBRANCH   1   6
BRANCH   1  14
ATOM     14  C   UNL     1      34.390 -22.390 -19.069  0.00  0.00    +0.232 C 
BRANCH  14  15
ATOM     15  C   UNL     1      35.459 -21.301 -19.123  0.00  0.00    +0.133 C 
BRANCH  15  16
ATOM     16  O   UNL     1      36.695 -21.848 -18.656  0.00  0.00    -0.383 OA
ATOM     17  H   UNL     1      37.092 -21.245 -18.008  0.00  0.00    +0.210 HD
ENDBRANCH  15  16
BRANCH  15  18
ATOM     18  C   UNL     1      35.685 -20.744 -20.531  0.00  0.00    -0.048 C 
BRANCH  18  19
ATOM     19  N   UNL     1      35.659 -19.287 -20.553  0.00  0.00    +0.388 N 
ATOM     20  H   UNL     1      35.518 -18.941 -19.604  0.00  0.00    -0.084 HD
ATOM     21  H   UNL     1      36.546 -18.951 -20.927  0.00  0.00    -0.084 HD
BRANCH  19  22
ATOM     22  C   UNL     1      34.582 -18.799 -21.403  0.00  0.00    -0.046 C 
ATOM     23  C   UNL     1      34.876 -19.211 -22.849  0.00  0.00    -0.022 C 
ATOM     24  C   UNL     1      33.266 -19.431 -20.934  0.00  0.00    -0.022 C 
ATOM     25  C   UNL     1      34.500 -17.272 -21.295  0.00  0.00    -0.022 C 
ENDBRANCH  19  22
ENDBRANCH  18  19
ENDBRANCH  15  18
ENDBRANCH  14  15
ENDBRANCH   1  14
TORSDOF 7
ENDMDL
MODEL 6
REMARK VINA RESULT:      -8.0      3.196      7.852
REMARK  Name = 2583
REMARK  7 active torsions:
REMARK  status: ('A' for Active; 'I' for Inactive)
REMARK    1  A    between atoms: O_1  and  C_6
REMARK    2  A    between atoms: O_1  and  C_14
REMARK    3  A    between atoms: C_14  and  C_15
REMARK    4  A    between atoms: C_15  and  O_16
REMARK    5  A    between atoms: C_15  and  C_18
REMARK    6  A    between atoms: C_18  and  N_19
REMARK    7  A    between atoms: N_19  and  C_22
REMARK                            x       y       z     vdW  Elec       q    Type
REMARK                         _______ _______ _______ _____ _____    ______ ____
ROOT
ATOM      1  O   UNL     1      34.198 -14.291 -23.880  0.00  0.00    -0.473 OA
ENDROOT
BRANCH   1   6
ATOM      2  O   UNL     1      32.687  -8.131 -23.857  0.00  0.00    -0.275 OA
ATOM      3  N   UNL     1      32.204 -10.049 -22.689  0.00  0.00    -0.284 N 
ATOM      4  C   UNL     1      33.243 -12.162 -23.299  0.00  0.00    +0.026 C 
ATOM      5  C   UNL     1      33.850 -11.497 -24.499  0.00  0.00    +0.040 C 
ATOM      6  C   UNL     1      33.414 -13.531 -23.065  0.00  0.00    +0.136 C 
ATOM      7  C   UNL     1      32.405 -11.421 -22.455  0.00  0.00    +0.049 C 
ATOM      8  C   UNL     1      34.113 -10.023 -24.228  0.00  0.00    +0.090 C 
ATOM      9  C   UNL     1      32.924  -9.314 -23.612  0.00  0.00    +0.226 C 
ATOM     10  C   UNL     1      32.766 -14.146 -21.993  0.00  0.00    +0.037 C 
ATOM     11  C   UNL     1      31.742 -12.041 -21.393  0.00  0.00    +0.015 C 
ATOM     12  C   UNL     1      31.930 -13.403 -21.160  0.00  0.00    +0.004 C 
ATOM     13  H   UNL     1      31.510  -9.586 -22.166  0.00  0.00    +0.155 HD
ENDBRANCH   1   6
BRANCH   1  14
ATOM     14  C   UNL     1      33.563 -15.231 -24.722  0.00  0.00    +0.232 C 
BRANCH  14  15
ATOM     15  C   UNL     1      34.295 -16.566 -24.611  0.00  0.00    +0.133 C 
BRANCH  15  16
ATOM     16  O   UNL     1      34.981 -16.815 -25.841  0.00  0.00    -0.383 OA
ATOM     17  H   UNL     1      35.893 -16.489 -25.775  0.00  0.00    +0.210 HD
ENDBRANCH  15  16
BRANCH  15  18
ATOM     18  C   UNL     1      35.322 -16.602 -23.476  0.00  0.00    -0.048 C 
BRANCH  18  19
ATOM     19  N   UNL     1      35.742 -17.962 -23.162  0.00  0.00    +0.388 N 
ATOM     20  H   UNL     1      35.290 -18.608 -23.808  0.00  0.00    -0.084 HD
ATOM     21  H   UNL     1      36.755 -18.018 -23.250  0.00  0.00    -0.084 HD
BRANCH  19  22
ATOM     22  C   UNL     1      35.373 -18.317 -21.799  0.00  0.00    -0.046 C 
ATOM     23  C   UNL     1      34.960 -17.043 -21.056  0.00  0.00    -0.022 C 
ATOM     24  C   UNL     1      34.197 -19.299 -21.852  0.00  0.00    -0.022 C 
ATOM     25  C   UNL     1      36.573 -18.970 -21.101  0.00  0.00    -0.022 C 
ENDBRANCH  19  22
ENDBRANCH  18  19
ENDBRANCH  15  18
ENDBRANCH  14  15
ENDBRANCH   1  14
TORSDOF 7
ENDMDL
MODEL 7
REMARK VINA RESULT:      -8.0      8.161     11.105
REMARK  Name = 2583
REMARK  7 active torsions:
REMARK  status: ('A' for Active; 'I' for Inactive)
REMARK    1  A    between atoms: O_1  and  C_6
REMARK    2  A    between atoms: O_1  and  C_14
REMARK    3  A    between atoms: C_14  and  C_15
REMARK    4  A    between atoms: C_15  and  O_16
REMARK    5  A    between atoms: C_15  and  C_18
REMARK    6  A    between atoms: C_18  and  N_19
REMARK    7  A    between atoms: N_19  and  C_22
REMARK                            x       y       z     vdW  Elec       q    Type
REMARK                         _______ _______ _______ _____ _____    ______ ____
ROOT
ATOM      1  O   UNL     1      34.246 -24.392 -13.114  0.00  0.00    -0.473 OA
ENDROOT
BRANCH   1   6
ATOM      2  O   UNL     1      28.427 -23.885 -15.584  0.00  0.00    -0.275 OA
ATOM      3  N   UNL     1      30.612 -23.500 -16.177  0.00  0.00    -0.284 N 
ATOM      4  C   UNL     1      32.418 -23.983 -14.622  0.00  0.00    +0.026 C 
ATOM      5  C   UNL     1      31.401 -24.290 -13.563  0.00  0.00    +0.040 C 
ATOM      6  C   UNL     1      33.788 -24.012 -14.340  0.00  0.00    +0.136 C 
ATOM      7  C   UNL     1      31.987 -23.558 -15.886  0.00  0.00    +0.049 C 
ATOM      8  C   UNL     1      30.122 -24.837 -14.181  0.00  0.00    +0.090 C 
ATOM      9  C   UNL     1      29.629 -24.008 -15.350  0.00  0.00    +0.226 C 
ATOM     10  C   UNL     1      34.713 -23.636 -15.316  0.00  0.00    +0.037 C 
ATOM     11  C   UNL     1      32.912 -23.164 -16.855  0.00  0.00    +0.015 C 
ATOM     12  C   UNL     1      34.276 -23.210 -16.569  0.00  0.00    +0.004 C 
ATOM     13  H   UNL     1      30.335 -23.073 -17.021  0.00  0.00    +0.155 HD
ENDBRANCH   1   6
BRANCH   1  14
ATOM     14  C   UNL     1      35.304 -23.650 -12.544  0.00  0.00    +0.232 C 
BRANCH  14  15
ATOM     15  C   UNL     1      36.138 -24.577 -11.661  0.00  0.00    +0.133 C 
BRANCH  15  16
ATOM     16  O   UNL     1      35.271 -25.212 -10.717  0.00  0.00    -0.383 OA
ATOM     17  H   UNL     1      34.480 -25.539 -11.173  0.00  0.00    +0.210 HD
ENDBRANCH  15  16
BRANCH  15  18
ATOM     18  C   UNL     1      36.867 -25.668 -12.449  0.00  0.00    -0.048 C 
BRANCH  18  19
ATOM     19  N   UNL     1      38.236 -25.286 -12.772  0.00  0.00    +0.388 N 
ATOM     20  H   UNL     1      38.371 -24.301 -12.543  0.00  0.00    -0.084 HD
ATOM     21  H   UNL     1      38.873 -25.869 -12.231  0.00  0.00    -0.084 HD
BRANCH  19  22
ATOM     22  C   UNL     1      38.512 -25.486 -14.188  0.00  0.00    -0.046 C 
ATOM     23  C   UNL     1      39.989 -25.857 -14.350  0.00  0.00    -0.022 C 
ATOM     24  C   UNL     1      37.624 -26.626 -14.700  0.00  0.00    -0.022 C 
ATOM     25  C   UNL     1      38.204 -24.194 -14.954  0.00  0.00    -0.022 C 
ENDBRANCH  19  22
ENDBRANCH  18  19
ENDBRANCH  15  18
ENDBRANCH  14  15
ENDBRANCH   1  14
TORSDOF 7
ENDMDL
MODEL 8
REMARK VINA RESULT:      -7.9      4.102      6.507
REMARK  Name = 2583
REMARK  7 active torsions:
REMARK  status: ('A' for Active; 'I' for Inactive)
REMARK    1  A    between atoms: O_1  and  C_6
REMARK    2  A    between atoms: O_1  and  C_14
REMARK    3  A    between atoms: C_14  and  C_15
REMARK    4  A    between atoms: C_15  and  O_16
REMARK    5  A    between atoms: C_15  and  C_18
REMARK    6  A    between atoms: C_18  and  N_19
REMARK    7  A    between atoms: N_19  and  C_22
REMARK                            x       y       z     vdW  Elec       q    Type
REMARK                         _______ _______ _______ _____ _____    ______ ____
ROOT
ATOM      1  O   UNL     1      32.023 -13.149 -22.847  0.00  0.00    -0.473 OA
ENDROOT
BRANCH   1   6
ATOM      2  O   UNL     1      35.579 -17.910 -20.630  0.00  0.00    -0.275 OA
ATOM      3  N   UNL     1      34.873 -17.051 -22.640  0.00  0.00    -0.284 N 
ATOM      4  C   UNL     1      33.461 -15.072 -22.710  0.00  0.00    +0.026 C 
ATOM      5  C   UNL     1      33.356 -15.115 -21.214  0.00  0.00    +0.040 C 
ATOM      6  C   UNL     1      32.763 -14.118 -23.458  0.00  0.00    +0.136 C 
ATOM      7  C   UNL     1      34.185 -16.070 -23.376  0.00  0.00    +0.049 C 
ATOM      8  C   UNL     1      34.612 -15.716 -20.600  0.00  0.00    +0.090 C 
ATOM      9  C   UNL     1      35.037 -17.008 -21.269  0.00  0.00    +0.226 C 
ATOM     10  C   UNL     1      32.802 -14.153 -24.853  0.00  0.00    +0.037 C 
ATOM     11  C   UNL     1      34.209 -16.116 -24.772  0.00  0.00    +0.015 C 
ATOM     12  C   UNL     1      33.522 -15.152 -25.509  0.00  0.00    +0.004 C 
ATOM     13  H   UNL     1      35.260 -17.813 -23.131  0.00  0.00    +0.155 HD
ENDBRANCH   1   6
BRANCH   1  14
ATOM     14  C   UNL     1      32.553 -11.841 -22.804  0.00  0.00    +0.232 C 
BRANCH  14  15
ATOM     15  C   UNL     1      31.440 -10.869 -22.417  0.00  0.00    +0.133 C 
BRANCH  15  16
ATOM     16  O   UNL     1      30.493 -11.562 -21.599  0.00  0.00    -0.383 OA
ATOM     17  H   UNL     1      30.711 -11.423 -20.664  0.00  0.00    +0.210 HD
ENDBRANCH  15  16
BRANCH  15  18
ATOM     18  C   UNL     1      31.943  -9.651 -21.639  0.00  0.00    -0.048 C 
BRANCH  18  19
ATOM     19  N   UNL     1      31.640  -8.401 -22.324  0.00  0.00    +0.388 N 
ATOM     20  H   UNL     1      31.725  -8.543 -23.330  0.00  0.00    -0.084 HD
ATOM     21  H   UNL     1      30.691  -8.120 -22.082  0.00  0.00    -0.084 HD
BRANCH  19  22
ATOM     22  C   UNL     1      32.557  -7.347 -21.913  0.00  0.00    -0.046 C 
ATOM     23  C   UNL     1      31.905  -5.992 -22.204  0.00  0.00    -0.022 C 
ATOM     24  C   UNL     1      32.822  -7.490 -20.410  0.00  0.00    -0.022 C 
ATOM     25  C   UNL     1      33.869  -7.481 -22.694  0.00  0.00    -0.022 C 
ENDBRANCH  19  22
ENDBRANCH  18  19
ENDBRANCH  15  18
ENDBRANCH  14  15
ENDBRANCH   1  14
TORSDOF 7
ENDMDL
MODEL 9
REMARK VINA RESULT:      -7.9      3.801      5.759
REMARK  Name = 2583
REMARK  7 active torsions:
REMARK  status: ('A' for Active; 'I' for Inactive)
REMARK    1  A    between atoms: O_1  and  C_6
REMARK    2  A    between atoms: O_1  and  C_14
REMARK    3  A    between atoms: C_14  and  C_15
REMARK    4  A    between atoms: C_15  and  O_16
REMARK    5  A    between atoms: C_15  and  C_18
REMARK    6  A    between atoms: C_18  and  N_19
REMARK    7  A    between atoms: N_19  and  C_22
REMARK                            x       y       z     vdW  Elec       q    Type
REMARK                         _______ _______ _______ _____ _____    ______ ____
ROOT
ATOM      1  O   UNL     1      34.187 -13.741 -23.813  0.00  0.00    -0.473 OA
ENDROOT
BRANCH   1   6
ATOM      2  O   UNL     1      35.029 -19.975 -24.623  0.00  0.00    -0.275 OA
ATOM      3  N   UNL     1      34.931 -18.436 -22.921  0.00  0.00    -0.284 N 
ATOM      4  C   UNL     1      34.530 -16.086 -23.402  0.00  0.00    +0.026 C 
ATOM      5  C   UNL     1      34.626 -16.387 -24.869  0.00  0.00    +0.040 C 
ATOM      6  C   UNL     1      34.353 -14.777 -22.942  0.00  0.00    +0.136 C 
ATOM      7  C   UNL     1      34.727 -17.118 -22.475  0.00  0.00    +0.049 C 
ATOM      8  C   UNL     1      34.160 -17.806 -25.163  0.00  0.00    +0.090 C 
ATOM      9  C   UNL     1      34.777 -18.834 -24.236  0.00  0.00    +0.226 C 
ATOM     10  C   UNL     1      34.357 -14.507 -21.573  0.00  0.00    +0.037 C 
ATOM     11  C   UNL     1      34.751 -16.845 -21.105  0.00  0.00    +0.015 C 
ATOM     12  C   UNL     1      34.558 -15.539 -20.656  0.00  0.00    +0.004 C 
ATOM     13  H   UNL     1      35.199 -19.114 -22.259  0.00  0.00    +0.155 HD
ENDBRANCH   1   6
BRANCH   1  14
ATOM     14  C   UNL     1      33.155 -12.814 -23.550  0.00  0.00    +0.232 C 
BRANCH  14  15
ATOM     15  C   UNL     1      33.698 -11.401 -23.752  0.00  0.00    +0.133 C 
BRANCH  15  16
ATOM     16  O   UNL     1      33.822 -11.154 -25.155  0.00  0.00    -0.383 OA
ATOM     17  H   UNL     1      33.156 -11.671 -25.635  0.00  0.00    +0.210 HD
ENDBRANCH  15  16
BRANCH  15  18
ATOM     18  C   UNL     1      32.799 -10.315 -23.154  0.00  0.00    -0.048 C 
BRANCH  18  19
ATOM     19  N   UNL     1      32.747  -9.125 -23.994  0.00  0.00    +0.388 N 
ATOM     20  H   UNL     1      33.352  -9.262 -24.804  0.00  0.00    -0.084 HD
ATOM     21  H   UNL     1      31.783  -8.977 -24.290  0.00  0.00    -0.084 HD
BRANCH  19  22
ATOM     22  C   UNL     1      33.194  -7.950 -23.259  0.00  0.00    -0.046 C 
ATOM     23  C   UNL     1      32.872  -8.151 -21.775  0.00  0.00    -0.022 C 
ATOM     24  C   UNL     1      34.707  -7.800 -23.452  0.00  0.00    -0.022 C 
ATOM     25  C   UNL     1      32.469  -6.709 -23.793  0.00  0.00    -0.022 C 
ENDBRANCH  19  22
ENDBRANCH  18  19
ENDBRANCH  15  18
ENDBRANCH  14  15
ENDBRANCH   1  14
TORSDOF 7
ENDMDL
